@<TRIPOS>MOLECULE
3R207
157   159    1
SMALL
USER_CHARGES


@<TRIPOS>ATOM
      1 CA        -45.8047  -31.9174    7.1140 C.3       0 UNK        -0.1975 
      2 C         -46.8147  -30.8111    6.8502 C.2       0 UNK         0.4852 
      3 O         -46.9697  -29.9189    7.6841 O.2       0 UNK        -0.5216 
      4 N         -47.4857  -30.8558    5.6896 N.am      1 UNK        -0.4461 
      5 CA        -48.5404  -29.9480    5.2010 C.3       1 UNK         0.0864 
      6 C6        -49.7758  -29.8444    6.1318 C.3       14 UNK        -0.0898 
      7 S7        -50.5743  -31.4448    6.4840 S.3       14 UNK        -0.2598 
      8 C8        -51.2282  -31.1370    8.1570 C.3       14 UNK         0.0286 
      9 C9        -52.3679  -30.1254    8.1457 C.ar      14 UNK        -0.0844 
     10 C10       -52.0996  -28.7581    8.2669 C.ar      14 UNK        -0.0881 
     11 C11       -53.1387  -27.8194    8.2752 C.ar      14 UNK        -0.0643 
     12 C12       -54.4520  -28.2677    8.1126 C.ar      14 UNK        -0.0930 
     13 C13       -54.7416  -29.6322    8.0240 C.ar      14 UNK        -0.0827 
     14 C14       -53.6931  -30.5570    8.0362 C.ar      14 UNK        -0.1249 
     15 C15       -56.1852  -30.1073    7.9204 C.3       14 UNK         0.0141 
     16 S16       -56.9887  -30.2168    9.5565 S.3       14 UNK        -0.2313 
     17 C17       -57.3813  -28.4675    9.9033 C.3       14 UNK        -0.0915 
     18 CA        -56.3886  -27.8253   10.9179 C.3       13 UNK         0.0968 
     19 C         -56.3912  -26.2642   10.8890 C.2       13 UNK         0.5732 
     20 N         -56.1026  -25.5746   11.9871 N.am      13 UNK        -0.7310 
     21 O         -56.6158  -25.6604    9.8429 O.2       13 UNK        -0.5035 
     22 N         -56.4731  -28.4139   12.2624 N.am      13 UNK        -0.4233 
     23 C         -57.4877  -28.2862   13.1287 C.2       13 UNK         0.4989 
     24 O         -58.5755  -27.7775   12.8559 O.2       13 UNK        -0.4996 
     25 CA        -57.2284  -28.7717   14.5690 C.3       12 UNK         0.0216 
     26 CB        -57.8233  -30.1742   14.7767 C.3       12 UNK        -0.1964 
     27 N         -55.8102  -28.7825   14.9594 N.am      12 UNK        -0.4276 
     28 C         -54.9965  -27.7161   14.9668 C.2       12 UNK         0.5020 
     29 O         -55.3476  -26.5815   14.6320 O.2       12 UNK        -0.5489 
     30 CA        -53.5289  -27.9960   15.3257 C.3       11 UNK         0.0294 
     31 CB        -52.7891  -28.6012   14.1203 C.3       11 UNK        -0.2019 
     32 N         -52.8210  -26.7878   15.7456 N.am      11 UNK        -0.4493 
     33 C         -52.9765  -26.1742   16.9256 C.2       11 UNK         0.4932 
     34 O         -53.7672  -26.5433   17.7968 O.2       11 UNK        -0.5029 
     35 CA        -52.0326  -24.9816   17.1770 C.3       10 UNK         0.0280 
     36 CB        -52.1411  -24.3999   18.6023 C.3       10 UNK        -0.1976 
     37 N         -50.6441  -25.3279   16.8477 N.am      10 UNK        -0.4242 
     38 C         -49.9013  -26.3118   17.3823 C.2       10 UNK         0.5072 
     39 O         -50.2437  -26.9897   18.3522 O.2       10 UNK        -0.5224 
     40 CA        -48.5586  -26.6321   16.7004 C.3       9 UNK         0.0343 
     41 CB        -48.7006  -27.8942   15.8335 C.3       9 UNK        -0.2003 
     42 N         -48.0420  -25.5401   15.8722 N.am      9 UNK        -0.4272 
     43 C         -47.5288  -24.4012   16.3580 C.2       9 UNK         0.4988 
     44 O         -47.3886  -24.1692   17.5594 O.2       9 UNK        -0.5108 
     45 CA        -47.1184  -23.3321   15.3331 C.3       8 UNK         0.0248 
     46 CB        -45.7113  -23.6246   14.7882 C.3       8 UNK        -0.2001 
     47 N         -48.0675  -23.1994   14.2222 N.am      8 UNK        -0.4140 
     48 C         -49.3355  -22.7785   14.3514 C.2       8 UNK         0.5028 
     49 O         -49.8436  -22.4556   15.4252 O.2       8 UNK        -0.5428 
     50 CA        -50.1971  -22.7375   13.0781 C.3       7 UNK         0.0264 
     51 CB        -49.8048  -21.5518   12.1826 C.3       7 UNK        -0.1988 
     52 N         -50.1327  -23.9852   12.3155 N.am      7 UNK        -0.4454 
     53 C         -50.6002  -25.1639   12.7556 C.2       7 UNK         0.5027 
     54 O         -51.1917  -25.3127   13.8268 O.2       7 UNK        -0.5083 
     55 CA        -50.3198  -26.4056   11.8874 C.3       6 UNK         0.0844 
     56 C56       -51.4787  -26.7114   10.9010 C.3       14 UNK        -0.0967 
     57 S57       -51.3428  -25.8536    9.2938 S.3       14 UNK        -0.2604 
     58 C58       -52.8972  -26.3186    8.4540 C.3       14 UNK         0.0134 
     59 N         -49.0013  -26.3562   11.2449 N.am      6 UNK        -0.4116 
     60 C         -47.8349  -26.3540   11.9041 C.2       5 UNK         0.5034 
     61 O         -47.7349  -26.4291   13.1285 O.2       5 UNK        -0.5045 
     62 CA        -46.5689  -26.1823   11.0569 C.3       5 UNK         0.0224 
     63 CB        -46.2477  -27.4625   10.2680 C.3       5 UNK        -0.1978 
     64 N         -46.6605  -25.0344   10.1503 N.am      5 UNK        -0.4737 
     65 C         -46.6587  -23.7566   10.5603 C.2       4 UNK         0.5027 
     66 O         -46.6540  -23.4240   11.7435 O.2       4 UNK        -0.5211 
     67 CA        -46.6594  -22.6577    9.4849 C.3       4 UNK         0.0297 
     68 CB        -45.2181  -22.2600    9.1300 C.3       4 UNK        -0.1993 
     69 N         -47.3688  -23.0463    8.2682 N.am      4 UNK        -0.4486 
     70 C         -48.6962  -23.2047    8.1847 C.2       3 UNK         0.4961 
     71 O         -49.4708  -22.9722    9.1124 O.2       3 UNK        -0.5105 
     72 CA        -49.2434  -23.7312    6.8444 C.3       3 UNK         0.0299 
     73 CB        -49.6633  -22.5618    5.9400 C.3       3 UNK        -0.1972 
     74 N         -48.3036  -24.5982    6.1197 N.am      3 UNK        -0.4305 
     75 C         -47.8425  -25.7692    6.5800 C.2       2 UNK         0.5006 
     76 O         -48.1295  -26.2337    7.6854 O.2       2 UNK        -0.5106 
     77 CA        -46.8503  -26.5245    5.6870 C.3       2 UNK         0.0296 
     78 CB        -45.4166  -26.3548    6.2159 C.3       2 UNK        -0.2002 
     79 N         -47.2019  -27.9403    5.7014 N.am      2 UNK        -0.4032 
     80 C         -48.0488  -28.5269    4.8492 C.2       1 UNK         0.5000 
     81 O         -48.4696  -27.9828    3.8261 O.2       1 UNK        -0.5238 
     82 H82       -45.7629  -32.6368    6.2965 H         1 UNK         0.0889 
     83 H83       -46.0688  -32.4541    8.0248 H         1 UNK         0.0889 
     84 H84       -44.8097  -31.4929    7.2447 H         1 UNK         0.0889 
     85 H85       -47.2721  -31.6107    5.0524 H         1 UNK         0.3028 
     86 H86       -48.8806  -30.3874    4.2617 H         1 UNK         0.0864 
     87 H87       -49.4853  -29.3756    7.0726 H         1 UNK         0.0720 
     88 H88       -50.5354  -29.1952    5.6909 H         1 UNK         0.0720 
     89 H89       -50.4227  -30.7973    8.8102 H         1 UNK         0.0814 
     90 H90       -51.5764  -32.0822    8.5762 H         1 UNK         0.0814 
     91 H91       -51.0765  -28.4270    8.3675 H         1 UNK         0.1469 
     92 H92       -55.2582  -27.5478    8.0909 H         1 UNK         0.1381 
     93 H93       -53.9080  -31.6143    7.9600 H         1 UNK         0.1206 
     94 H94       -56.2171  -31.0932    7.4541 H         1 UNK         0.0813 
     95 H95       -56.7561  -29.4492    7.2637 H         1 UNK         0.0813 
     96 H96       -58.4041  -28.4106   10.2770 H         1 UNK         0.0638 
     97 H97       -57.3926  -27.9273    8.9564 H         1 UNK         0.0638 
     98 H98       -55.3811  -28.0753   10.5912 H         1 UNK         0.0568 
     99 H99       -56.0982  -24.5689   11.9405 H         1 UNK         0.3450 
    100 H100      -55.8917  -26.0344   12.8686 H         1 UNK         0.3450 
    101 H101      -55.6306  -28.8587   12.5915 H         1 UNK         0.2987 
    102 H102      -57.7431  -28.0784   15.2375 H         1 UNK         0.0766 
    103 H103      -57.7380  -30.4937   15.8155 H         1 UNK         0.0798 
    104 H104      -57.3291  -30.9196   14.1521 H         1 UNK         0.0798 
    105 H105      -58.8843  -30.1895   14.5226 H         1 UNK         0.0798 
    106 H106      -55.4320  -29.6771   15.2385 H         1 UNK         0.3198 
    107 H107      -53.5024  -28.7099   16.1521 H         1 UNK         0.0843 
    108 H108      -52.8215  -27.9363   13.2576 H         1 UNK         0.0831 
    109 H109      -53.2323  -29.5506   13.8176 H         1 UNK         0.0831 
    110 H110      -51.7424  -28.7974   14.3539 H         1 UNK         0.0831 
    111 H111      -52.2000  -26.3562   15.0652 H         1 UNK         0.3133 
    112 H112      -52.3270  -24.1992   16.4758 H         1 UNK         0.0566 
    113 H113      -51.4684  -23.5525   18.7350 H         1 UNK         0.0814 
    114 H114      -53.1532  -24.0455   18.8009 H         1 UNK         0.0814 
    115 H115      -51.9020  -25.1412   19.3653 H         1 UNK         0.0814 
    116 H116      -50.2658  -24.8461   16.0421 H         1 UNK         0.3091 
    117 H117      -47.8306  -26.8382   17.4879 H         1 UNK         0.0702 
    118 H118      -47.7458  -28.1829   15.3934 H         1 UNK         0.0785 
    119 H119      -49.4121  -27.7440   15.0205 H         1 UNK         0.0785 
    120 H120      -49.0539  -28.7399   16.4251 H         1 UNK         0.0785 
    121 H121      -48.0551  -25.6862   14.8653 H         1 UNK         0.2998 
    122 H122      -47.0862  -22.3729   15.8540 H         1 UNK         0.0697 
    123 H123      -45.6873  -24.5498   14.2106 H         1 UNK         0.0825 
    124 H124      -44.9889  -23.7251   15.5994 H         1 UNK         0.0825 
    125 H125      -45.3620  -22.8191   14.1420 H         1 UNK         0.0825 
    126 H126      -47.7047  -23.4092   13.2940 H         1 UNK         0.3029 
    127 H127      -51.2347  -22.5942   13.3883 H         1 UNK         0.0897 
    128 H128      -50.4671  -21.4715   11.3203 H         1 UNK         0.0792 
    129 H129      -49.8703  -20.6108   12.7303 H         1 UNK         0.0792 
    130 H130      -48.7843  -21.6426   11.8108 H         1 UNK         0.0792 
    131 H131      -49.6886  -23.9456   11.4070 H         1 UNK         0.3086 
    132 H132      -50.2820  -27.2433   12.5875 H         1 UNK         0.0583 
    133 H133      -51.4923  -27.7849   10.7143 H         1 UNK         0.1020 
    134 H134      -52.4515  -26.4849   11.3427 H         1 UNK         0.1020 
    135 H135      -53.7236  -25.8777    9.0140 H         1 UNK         0.0694 
    136 H136      -52.9067  -25.8493    7.4696 H         1 UNK         0.0694 
    137 H137      -48.9974  -26.2624   10.2371 H         1 UNK         0.2989 
    138 H138      -45.7408  -25.9980   11.7454 H         1 UNK         0.1055 
    139 H139      -46.1355  -28.3147   10.9396 H         1 UNK         0.0806 
    140 H140      -45.3140  -27.3647    9.7145 H         1 UNK         0.0806 
    141 H141      -47.0333  -27.7167    9.5559 H         1 UNK         0.0806 
    142 H142      -46.7674  -25.2369    9.1646 H         1 UNK         0.3061 
    143 H143      -47.1597  -21.7828    9.9056 H         1 UNK         0.0734 
    144 H144      -45.1968  -21.4283    8.4255 H         1 UNK         0.0832 
    145 H145      -44.6729  -21.9417   10.0199 H         1 UNK         0.0832 
    146 H146      -44.6646  -23.0903    8.6894 H         1 UNK         0.0832 
    147 H147      -46.8106  -23.2449    7.4513 H         1 UNK         0.3156 
    148 H148      -50.1331  -24.3237    7.0641 H         1 UNK         0.0589 
    149 H149      -48.8117  -21.9415    5.6576 H         1 UNK         0.0808 
    150 H150      -50.1403  -22.9168    5.0263 H         1 UNK         0.0808 
    151 H151      -50.3819  -21.9166    6.4477 H         1 UNK         0.0808 
    152 H152      -48.0127  -24.2851    5.2041 H         1 UNK         0.3098 
    153 H153      -46.8979  -26.1346    4.6680 H         1 UNK         0.0720 
    154 H154      -44.7012  -26.8934    5.5942 H         1 UNK         0.0791 
    155 H155      -45.3150  -26.7254    7.2368 H         1 UNK         0.0791 
    156 H156      -45.1195  -25.3053    6.2166 H         1 UNK         0.0791 
    157 H157      -46.9862  -28.4550    6.5534 H         1 UNK         0.3028 
@<TRIPOS>BOND
     1    1    2 1    
     2    1   82 1    
     3    1   83 1    
     4    1   84 1    
     5    2    3 2    
     6    2    4 am   BACKBONE|DICT|INTERRES
     7    4    5 1    
     8    4   85 1    
     9    5    6 1    
    10    5   80 1    
    11    5   86 1    
    12    6    7 1    
    13    6   87 1    
    14    6   88 1    
    15    7    8 1    
    16    8    9 1    
    17    8   89 1    
    18    8   90 1    
    19    9   10 ar   
    20    9   14 ar   
    21   10   11 ar   
    22   10   91 1    
    23   11   12 ar   
    24   11   58 1    
    25   12   13 ar   
    26   12   92 1    
    27   13   14 ar   
    28   13   15 1    
    29   14   93 1    
    30   15   16 1    
    31   15   94 1    
    32   15   95 1    
    33   16   17 1    
    34   17   18 1    
    35   17   96 1    
    36   17   97 1    
    37   18   19 1    
    38   18   22 1    
    39   18   98 1    
    40   19   20 am   BACKBONE|DICT|INTERRES
    41   19   21 2    
    42   20   99 1    
    43   20  100 1    
    44   22   23 am   BACKBONE|DICT|INTERRES
    45   22  101 1    
    46   23   24 2    
    47   23   25 1    
    48   25   26 1    
    49   25   27 1    
    50   25  102 1    
    51   26  103 1    
    52   26  104 1    
    53   26  105 1    
    54   27   28 am   BACKBONE|DICT|INTERRES
    55   27  106 1    
    56   28   29 2    
    57   28   30 1    
    58   30   31 1    
    59   30   32 1    
    60   30  107 1    
    61   31  108 1    
    62   31  109 1    
    63   31  110 1    
    64   32   33 am   BACKBONE|DICT|INTERRES
    65   32  111 1    
    66   33   34 2    
    67   33   35 1    
    68   35   36 1    
    69   35   37 1    
    70   35  112 1    
    71   36  113 1    
    72   36  114 1    
    73   36  115 1    
    74   37   38 am   BACKBONE|DICT|INTERRES
    75   37  116 1    
    76   38   39 2    
    77   38   40 1    
    78   40   41 1    
    79   40   42 1    
    80   40  117 1    
    81   41  118 1    
    82   41  119 1    
    83   41  120 1    
    84   42   43 am   BACKBONE|DICT|INTERRES
    85   42  121 1    
    86   43   44 2    
    87   43   45 1    
    88   45   46 1    
    89   45   47 1    
    90   45  122 1    
    91   46  123 1    
    92   46  124 1    
    93   46  125 1    
    94   47   48 am   BACKBONE|DICT|INTERRES
    95   47  126 1    
    96   48   49 2    
    97   48   50 1    
    98   50   51 1    
    99   50   52 1    
   100   50  127 1    
   101   51  128 1    
   102   51  129 1    
   103   51  130 1    
   104   52   53 am   BACKBONE|DICT|INTERRES
   105   52  131 1    
   106   53   54 2    
   107   53   55 1    
   108   55   56 1    
   109   55   59 1    
   110   55  132 1    
   111   56   57 1    
   112   56  133 1    
   113   56  134 1    
   114   57   58 1    
   115   58  135 1    
   116   58  136 1    
   117   59   60 am   BACKBONE|DICT|INTERRES
   118   59  137 1    
   119   60   61 2    
   120   60   62 1    
   121   62   63 1    
   122   62   64 1    
   123   62  138 1    
   124   63  139 1    
   125   63  140 1    
   126   63  141 1    
   127   64   65 am   BACKBONE|DICT|INTERRES
   128   64  142 1    
   129   65   66 2    
   130   65   67 1    
   131   67   68 1    
   132   67   69 1    
   133   67  143 1    
   134   68  144 1    
   135   68  145 1    
   136   68  146 1    
   137   69   70 am   BACKBONE|DICT|INTERRES
   138   69  147 1    
   139   70   71 2    
   140   70   72 1    
   141   72   73 1    
   142   72   74 1    
   143   72  148 1    
   144   73  149 1    
   145   73  150 1    
   146   73  151 1    
   147   74   75 am   BACKBONE|DICT|INTERRES
   148   74  152 1    
   149   75   76 2    
   150   75   77 1    
   151   77   78 1    
   152   77   79 1    
   153   77  153 1    
   154   78  154 1    
   155   78  155 1    
   156   78  156 1    
   157   79   80 am   BACKBONE|DICT|INTERRES
   158   79  157 1    
   159   80   81 2    
@<TRIPOS>SUBSTRUCTURE
     1 UNK         1 GROUP             0       ****    0 ROOT    
