@<TRIPOS>MOLECULE
3R207
157   159    1
SMALL
USER_CHARGES


@<TRIPOS>ATOM
      1 CA        -50.8821  -26.2770    7.3408 C.3       0 UNK        -0.1975 
      2 C         -51.8170  -26.6946    6.2101 C.2       0 UNK         0.4852 
      3 O         -52.7609  -25.9663    5.9101 O.2       0 UNK        -0.5216 
      4 N         -51.6117  -27.8494    5.5615 N.am      1 UNK        -0.4461 
      5 CA        -50.5105  -28.7982    5.7606 C.3       1 UNK         0.0864 
      6 C6        -50.8853  -30.1901    5.1868 C.3       14 UNK        -0.0898 
      7 S7        -49.9527  -31.5562    5.9594 S.3       14 UNK        -0.2598 
      8 C8        -51.1153  -32.1193    7.2450 C.3       14 UNK         0.0286 
      9 C9        -51.2329  -31.1003    8.3680 C.ar      14 UNK        -0.0844 
     10 C10       -50.2753  -31.0665    9.3852 C.ar      14 UNK        -0.0881 
     11 C11       -50.3550  -30.1131   10.4038 C.ar      14 UNK        -0.0643 
     12 C12       -51.4029  -29.1863   10.3991 C.ar      14 UNK        -0.0930 
     13 C13       -52.3669  -29.2117    9.3862 C.ar      14 UNK        -0.0827 
     14 C14       -52.2845  -30.1792    8.3814 C.ar      14 UNK        -0.1249 
     15 C15       -53.4753  -28.1720    9.3508 C.3       14 UNK         0.0141 
     16 S16       -54.9268  -28.6866   10.3159 S.3       14 UNK        -0.2313 
     17 C17       -56.0147  -27.2479   10.0340 C.3       14 UNK        -0.0915 
     18 CA        -55.8281  -26.1469   11.1173 C.3       13 UNK         0.0968 
     19 C         -56.4714  -24.7795   10.7296 C.2       13 UNK         0.5732 
     20 N         -56.8849  -23.9535   11.6832 N.am      13 UNK        -0.7310 
     21 O         -56.5649  -24.4393    9.5526 O.2       13 UNK        -0.5035 
     22 N         -56.1486  -26.6263   12.4723 N.am      13 UNK        -0.4233 
     23 C         -57.3550  -26.9347   12.9619 C.2       13 UNK         0.4989 
     24 O         -58.4004  -26.8351   12.3185 O.2       13 UNK        -0.4996 
     25 CA        -57.4341  -27.4213   14.4254 C.3       12 UNK         0.0216 
     26 CB        -57.5184  -28.9598   14.4806 C.3       12 UNK        -0.1964 
     27 N         -56.3894  -26.9149   15.3370 N.am      12 UNK        -0.4276 
     28 C         -55.0684  -27.1455   15.3060 C.2       12 UNK         0.5020 
     29 O         -54.5189  -27.7951   14.4127 O.2       12 UNK        -0.5489 
     30 CA        -54.2186  -26.4888   16.4140 C.3       11 UNK         0.0294 
     31 CB        -54.8638  -26.5689   17.8165 C.3       11 UNK        -0.2019 
     32 N         -52.8475  -27.0151   16.4075 N.am      11 UNK        -0.4493 
     33 C         -52.4570  -28.2571   16.7348 C.2       11 UNK         0.4932 
     34 O         -53.1750  -29.0854   17.2973 O.2       11 UNK        -0.5029 
     35 CA        -51.0312  -28.6754   16.3424 C.3       10 UNK         0.0280 
     36 CB        -51.0651  -29.5048   15.0481 C.3       10 UNK        -0.1976 
     37 N         -50.1076  -27.5517   16.1694 N.am      10 UNK        -0.4242 
     38 C         -49.4974  -26.9216   17.1821 C.2       10 UNK         0.5072 
     39 O         -49.7092  -27.1675   18.3706 O.2       10 UNK        -0.5224 
     40 CA        -48.4470  -25.8628   16.8110 C.3       9 UNK         0.0343 
     41 CB        -47.1591  -26.5333   16.3047 C.3       9 UNK        -0.2003 
     42 N         -48.9268  -24.9018   15.8173 N.am      9 UNK        -0.4272 
     43 C         -49.8151  -23.9313   16.0761 C.2       9 UNK         0.4988 
     44 O         -50.3186  -23.7396   17.1836 O.2       9 UNK        -0.5108 
     45 CA        -50.2102  -23.0123   14.9061 C.3       8 UNK         0.0248 
     46 CB        -49.1431  -21.9289   14.6828 C.3       8 UNK        -0.2001 
     47 N         -50.4455  -23.7367   13.6558 N.am      8 UNK        -0.4140 
     48 C         -51.4106  -24.6498   13.4793 C.2       8 UNK         0.5028 
     49 O         -52.2364  -24.9508   14.3395 O.2       8 UNK        -0.5428 
     50 CA        -51.4323  -25.3848   12.1296 C.3       7 UNK         0.0264 
     51 CB        -52.1070  -24.5225   11.0494 C.3       7 UNK        -0.1988 
     52 N         -50.0959  -25.7886   11.6818 N.am      7 UNK        -0.4454 
     53 C         -49.2775  -26.6089   12.3604 C.2       7 UNK         0.5027 
     54 O         -49.5631  -27.1293   13.4378 O.2       7 UNK        -0.5083 
     55 CA        -47.8833  -26.8418   11.7530 C.3       6 UNK         0.0844 
     56 C56       -47.9477  -27.7996   10.5312 C.3       14 UNK        -0.0967 
     57 S57       -47.6761  -29.5479   10.9766 S.3       14 UNK        -0.2604 
     58 C58       -49.3235  -30.1088   11.5223 C.3       14 UNK         0.0134 
     59 N         -47.2486  -25.5606   11.4340 N.am      6 UNK        -0.4116 
     60 C         -46.8734  -24.6490   12.3469 C.2       5 UNK         0.5034 
     61 O         -46.9636  -24.8188   13.5618 O.2       5 UNK        -0.5045 
     62 CA        -46.3540  -23.2968   11.8248 C.3       5 UNK         0.0224 
     63 CB        -44.8297  -23.3439   11.6360 C.3       5 UNK        -0.1978 
     64 N         -46.9860  -22.8803   10.5715 N.am      5 UNK        -0.4737 
     65 C         -48.2993  -22.6681   10.4063 C.2       4 UNK         0.5027 
     66 O         -49.1129  -22.6923   11.3287 O.2       4 UNK        -0.5211 
     67 CA        -48.7965  -22.4637    8.9632 C.3       4 UNK         0.0297 
     68 CB        -48.9788  -20.9673    8.6676 C.3       4 UNK        -0.1993 
     69 N         -47.9254  -23.0643    7.9424 N.am      4 UNK        -0.4486 
     70 C         -47.6317  -24.3686    7.8550 C.2       3 UNK         0.4961 
     71 O         -48.0631  -25.2261    8.6317 O.2       3 UNK        -0.5105 
     72 CA        -46.6383  -24.7737    6.7646 C.3       3 UNK         0.0299 
     73 CB        -45.1940  -24.5138    7.2369 C.3       3 UNK        -0.1972 
     74 N         -46.8306  -26.1908    6.4732 N.am      3 UNK        -0.4305 
     75 C         -46.3695  -26.8396    5.3977 C.2       2 UNK         0.5006 
     76 O         -45.7003  -26.3100    4.5094 O.2       2 UNK        -0.5106 
     77 CA        -46.7115  -28.3359    5.2886 C.3       2 UNK         0.0296 
     78 CB        -45.6895  -29.1788    6.0694 C.3       2 UNK        -0.2002 
     79 N         -48.0638  -28.6725    5.7434 N.am      2 UNK        -0.4032 
     80 C         -49.1961  -28.2685    5.1504 C.2       1 UNK         0.5000 
     81 O         -49.2313  -27.5349    4.1589 O.2       1 UNK        -0.5238 
     82 H82       -49.8808  -26.1061    6.9533 H         1 UNK         0.0889 
     83 H83       -50.8357  -27.0317    8.1243 H         1 UNK         0.0889 
     84 H84       -51.2206  -25.3466    7.7957 H         1 UNK         0.0889 
     85 H85       -52.2282  -28.0727    4.7937 H         1 UNK         0.3028 
     86 H86       -50.3585  -28.9004    6.8355 H         1 UNK         0.0864 
     87 H87       -50.7349  -30.2268    4.1058 H         1 UNK         0.0720 
     88 H88       -51.9481  -30.3878    5.3346 H         1 UNK         0.0720 
     89 H89       -50.7621  -33.0693    7.6488 H         1 UNK         0.0814 
     90 H90       -52.0910  -32.3235    6.8013 H         1 UNK         0.0814 
     91 H91       -49.4605  -31.7780    9.3812 H         1 UNK         0.1469 
     92 H92       -51.4718  -28.4476   11.1852 H         1 UNK         0.1381 
     93 H93       -53.0259  -30.1976    7.5943 H         1 UNK         0.1206 
     94 H94       -53.1032  -27.2241    9.7388 H         1 UNK         0.0813 
     95 H95       -53.7759  -27.9846    8.3187 H         1 UNK         0.0813 
     96 H96       -55.8111  -26.8585    9.0351 H         1 UNK         0.0638 
     97 H97       -57.0493  -27.5931   10.0136 H         1 UNK         0.0638 
     98 H98       -54.7628  -25.9232   11.1521 H         1 UNK         0.0568 
     99 H99       -56.8068  -24.2115   12.6533 H         1 UNK         0.3450 
    100 H100      -57.2891  -23.0671   11.4258 H         1 UNK         0.3450 
    101 H101      -55.3537  -26.8424   13.0688 H         1 UNK         0.2987 
    102 H102      -58.3740  -27.0317   14.8199 H         1 UNK         0.0766 
    103 H103      -58.3623  -29.3251   13.8937 H         1 UNK         0.0798 
    104 H104      -56.6200  -29.4313   14.0805 H         1 UNK         0.0798 
    105 H105      -57.6568  -29.3139   15.5021 H         1 UNK         0.0798 
    106 H106      -56.7335  -26.3257   16.0829 H         1 UNK         0.3198 
    107 H107      -54.1313  -25.4339   16.1508 H         1 UNK         0.0843 
    108 H108      -55.1693  -27.5847   18.0698 H         1 UNK         0.0831 
    109 H109      -55.7503  -25.9378   17.8825 H         1 UNK         0.0831 
    110 H110      -54.1743  -26.2263   18.5882 H         1 UNK         0.0831 
    111 H111      -52.1966  -26.4443   15.8791 H         1 UNK         0.3133 
    112 H112      -50.6472  -29.3178   17.1378 H         1 UNK         0.0566 
    113 H113      -51.4661  -28.9287   14.2127 H         1 UNK         0.0814 
    114 H114      -50.0695  -29.8530   14.7735 H         1 UNK         0.0814 
    115 H115      -51.6971  -30.3861   15.1652 H         1 UNK         0.0814 
    116 H116      -49.8745  -27.2978   15.2093 H         1 UNK         0.3091 
    117 H117      -48.1978  -25.3119   17.7206 H         1 UNK         0.0702 
    118 H118      -46.3699  -25.7991   16.1418 H         1 UNK         0.0785 
    119 H119      -47.3204  -27.0622   15.3642 H         1 UNK         0.0785 
    120 H120      -46.7833  -27.2578   17.0285 H         1 UNK         0.0785 
    121 H121      -48.5193  -24.9656   14.8901 H         1 UNK         0.2998 
    122 H122      -51.1450  -22.5164   15.1762 H         1 UNK         0.0697 
    123 H123      -48.1798  -22.3620   14.4137 H         1 UNK         0.0825 
    124 H124      -48.9934  -21.3371   15.5868 H         1 UNK         0.0825 
    125 H125      -49.4346  -21.2413   13.8885 H         1 UNK         0.0825 
    126 H126      -49.8513  -23.4989   12.8643 H         1 UNK         0.3029 
    127 H127      -52.0256  -26.2919   12.2651 H         1 UNK         0.0897 
    128 H128      -51.5411  -23.6146   10.8410 H         1 UNK         0.0792 
    129 H129      -53.1026  -24.2100   11.3661 H         1 UNK         0.0792 
    130 H130      -52.2183  -25.0661   10.1124 H         1 UNK         0.0792 
    131 H131      -49.7551  -25.3699   10.8277 H         1 UNK         0.3086 
    132 H132      -47.2638  -27.3043   12.5249 H         1 UNK         0.0583 
    133 H133      -48.8682  -27.6913    9.9542 H         1 UNK         0.1020 
    134 H134      -47.1488  -27.5522    9.8304 H         1 UNK         0.1020 
    135 H135      -49.2286  -31.1219   11.9154 H         1 UNK         0.0694 
    136 H136      -49.6613  -29.5002   12.3591 H         1 UNK         0.0694 
    137 H137      -47.2132  -25.3138   10.4514 H         1 UNK         0.2989 
    138 H138      -46.5850  -22.5428   12.5799 H         1 UNK         0.1055 
    139 H139      -44.3313  -23.6327   12.5627 H         1 UNK         0.0806 
    140 H140      -44.4345  -22.3691   11.3492 H         1 UNK         0.0806 
    141 H141      -44.5375  -24.0642   10.8707 H         1 UNK         0.0806 
    142 H142      -46.3924  -22.8233    9.7573 H         1 UNK         0.3061 
    143 H143      -49.7721  -22.9490    8.8886 H         1 UNK         0.0734 
    144 H144      -48.0306  -20.4292    8.7021 H         1 UNK         0.0832 
    145 H145      -49.4227  -20.8067    7.6850 H         1 UNK         0.0832 
    146 H146      -49.6425  -20.5040    9.3993 H         1 UNK         0.0832 
    147 H147      -47.5174  -22.4304    7.2694 H         1 UNK         0.3156 
    148 H148      -46.8482  -24.1928    5.8641 H         1 UNK         0.0589 
    149 H149      -44.9526  -25.0926    8.1295 H         1 UNK         0.0808 
    150 H150      -44.4678  -24.7737    6.4667 H         1 UNK         0.0808 
    151 H151      -45.0385  -23.4613    7.4765 H         1 UNK         0.0808 
    152 H152      -47.3894  -26.6803    7.1602 H         1 UNK         0.3098 
    153 H153      -46.6412  -28.6105    4.2338 H         1 UNK         0.0720 
    154 H154      -45.8581  -30.2456    5.9204 H         1 UNK         0.0791 
    155 H155      -45.7317  -28.9781    7.1409 H         1 UNK         0.0791 
    156 H156      -44.6724  -28.9645    5.7377 H         1 UNK         0.0791 
    157 H157      -48.1291  -29.3097    6.5250 H         1 UNK         0.3028 
@<TRIPOS>BOND
     1    1    2 1    
     2    1   82 1    
     3    1   83 1    
     4    1   84 1    
     5    2    3 2    
     6    2    4 am   BACKBONE|DICT|INTERRES
     7    4    5 1    
     8    4   85 1    
     9    5    6 1    
    10    5   80 1    
    11    5   86 1    
    12    6    7 1    
    13    6   87 1    
    14    6   88 1    
    15    7    8 1    
    16    8    9 1    
    17    8   89 1    
    18    8   90 1    
    19    9   10 ar   
    20    9   14 ar   
    21   10   11 ar   
    22   10   91 1    
    23   11   12 ar   
    24   11   58 1    
    25   12   13 ar   
    26   12   92 1    
    27   13   14 ar   
    28   13   15 1    
    29   14   93 1    
    30   15   16 1    
    31   15   94 1    
    32   15   95 1    
    33   16   17 1    
    34   17   18 1    
    35   17   96 1    
    36   17   97 1    
    37   18   19 1    
    38   18   22 1    
    39   18   98 1    
    40   19   20 am   BACKBONE|DICT|INTERRES
    41   19   21 2    
    42   20   99 1    
    43   20  100 1    
    44   22   23 am   BACKBONE|DICT|INTERRES
    45   22  101 1    
    46   23   24 2    
    47   23   25 1    
    48   25   26 1    
    49   25   27 1    
    50   25  102 1    
    51   26  103 1    
    52   26  104 1    
    53   26  105 1    
    54   27   28 am   BACKBONE|DICT|INTERRES
    55   27  106 1    
    56   28   29 2    
    57   28   30 1    
    58   30   31 1    
    59   30   32 1    
    60   30  107 1    
    61   31  108 1    
    62   31  109 1    
    63   31  110 1    
    64   32   33 am   BACKBONE|DICT|INTERRES
    65   32  111 1    
    66   33   34 2    
    67   33   35 1    
    68   35   36 1    
    69   35   37 1    
    70   35  112 1    
    71   36  113 1    
    72   36  114 1    
    73   36  115 1    
    74   37   38 am   BACKBONE|DICT|INTERRES
    75   37  116 1    
    76   38   39 2    
    77   38   40 1    
    78   40   41 1    
    79   40   42 1    
    80   40  117 1    
    81   41  118 1    
    82   41  119 1    
    83   41  120 1    
    84   42   43 am   BACKBONE|DICT|INTERRES
    85   42  121 1    
    86   43   44 2    
    87   43   45 1    
    88   45   46 1    
    89   45   47 1    
    90   45  122 1    
    91   46  123 1    
    92   46  124 1    
    93   46  125 1    
    94   47   48 am   BACKBONE|DICT|INTERRES
    95   47  126 1    
    96   48   49 2    
    97   48   50 1    
    98   50   51 1    
    99   50   52 1    
   100   50  127 1    
   101   51  128 1    
   102   51  129 1    
   103   51  130 1    
   104   52   53 am   BACKBONE|DICT|INTERRES
   105   52  131 1    
   106   53   54 2    
   107   53   55 1    
   108   55   56 1    
   109   55   59 1    
   110   55  132 1    
   111   56   57 1    
   112   56  133 1    
   113   56  134 1    
   114   57   58 1    
   115   58  135 1    
   116   58  136 1    
   117   59   60 am   BACKBONE|DICT|INTERRES
   118   59  137 1    
   119   60   61 2    
   120   60   62 1    
   121   62   63 1    
   122   62   64 1    
   123   62  138 1    
   124   63  139 1    
   125   63  140 1    
   126   63  141 1    
   127   64   65 am   BACKBONE|DICT|INTERRES
   128   64  142 1    
   129   65   66 2    
   130   65   67 1    
   131   67   68 1    
   132   67   69 1    
   133   67  143 1    
   134   68  144 1    
   135   68  145 1    
   136   68  146 1    
   137   69   70 am   BACKBONE|DICT|INTERRES
   138   69  147 1    
   139   70   71 2    
   140   70   72 1    
   141   72   73 1    
   142   72   74 1    
   143   72  148 1    
   144   73  149 1    
   145   73  150 1    
   146   73  151 1    
   147   74   75 am   BACKBONE|DICT|INTERRES
   148   74  152 1    
   149   75   76 2    
   150   75   77 1    
   151   77   78 1    
   152   77   79 1    
   153   77  153 1    
   154   78  154 1    
   155   78  155 1    
   156   78  156 1    
   157   79   80 am   BACKBONE|DICT|INTERRES
   158   79  157 1    
   159   80   81 2    
@<TRIPOS>SUBSTRUCTURE
     1 UNK         1 GROUP             0       ****    0 ROOT    
