@<TRIPOS>MOLECULE
3R207
157   159    1
SMALL
USER_CHARGES


@<TRIPOS>ATOM
      1 CA        -49.7895  -24.8956    5.5959 C.3       0 UNK        -0.1975 
      2 C         -50.1136  -25.3333    4.1693 C.2       0 UNK         0.4852 
      3 O         -49.8103  -24.5981    3.2309 O.2       0 UNK        -0.5216 
      4 N         -50.7393  -26.4977    3.9485 N.am      1 UNK        -0.4461 
      5 CA        -51.0808  -27.5189    4.9431 C.3       1 UNK         0.0864 
      6 C6        -52.2279  -28.4356    4.4475 C.3       14 UNK        -0.0898 
      7 S7        -53.8274  -27.5558    4.4770 S.3       14 UNK        -0.2598 
      8 C8        -54.7217  -28.3986    5.8312 C.3       14 UNK         0.0286 
      9 C9        -53.8958  -28.5331    7.1065 C.ar      14 UNK        -0.0844 
     10 C10       -53.3497  -27.4038    7.7225 C.ar      14 UNK        -0.0881 
     11 C11       -52.5372  -27.5359    8.8511 C.ar      14 UNK        -0.0643 
     12 C12       -52.2989  -28.8050    9.3842 C.ar      14 UNK        -0.0930 
     13 C13       -52.8818  -29.9382    8.8111 C.ar      14 UNK        -0.0827 
     14 C14       -53.6686  -29.7954    7.6641 C.ar      14 UNK        -0.1249 
     15 C15       -52.6666  -31.3206    9.4207 C.3       14 UNK         0.0141 
     16 S16       -53.0840  -31.4122   11.1977 S.3       14 UNK        -0.2313 
     17 C17       -54.7761  -30.7266   11.2468 C.3       14 UNK        -0.0915 
     18 CA        -54.8353  -29.4421   12.1246 C.3       13 UNK         0.0968 
     19 C         -56.1015  -28.5727   11.8906 C.2       13 UNK         0.5732 
     20 N         -56.1208  -27.3679   12.4439 N.am      13 UNK        -0.7310 
     21 O         -57.0560  -28.9728   11.2270 O.2       13 UNK        -0.5035 
     22 N         -54.6010  -29.7128   13.5559 N.am      13 UNK        -0.4233 
     23 C         -55.4177  -30.4015   14.3685 C.2       13 UNK         0.4989 
     24 O         -56.4914  -30.8886   14.0122 O.2       13 UNK        -0.4996 
     25 CA        -54.9730  -30.6216   15.8246 C.3       12 UNK         0.0216 
     26 CB        -54.4682  -32.0631   16.0079 C.3       12 UNK        -0.1964 
     27 N         -53.9199  -29.7028   16.2556 N.am      12 UNK        -0.4276 
     28 C         -54.1020  -28.5705   16.9429 C.2       12 UNK         0.5020 
     29 O         -55.2062  -28.1412   17.2788 O.2       12 UNK        -0.5489 
     30 CA        -52.8339  -27.7873   17.3362 C.3       11 UNK         0.0294 
     31 CB        -52.0015  -28.5482   18.3876 C.3       11 UNK        -0.2019 
     32 N         -52.0110  -27.3726   16.1930 N.am      11 UNK        -0.4493 
     33 C         -51.3870  -28.1355   15.2803 C.2       11 UNK         0.4932 
     34 O         -51.3360  -29.3656   15.3363 O.2       11 UNK        -0.5029 
     35 CA        -50.7401  -27.4058   14.0861 C.3       10 UNK         0.0280 
     36 CB        -50.7006  -28.2712   12.8122 C.3       10 UNK        -0.1976 
     37 N         -51.3398  -26.0971   13.8014 N.am      10 UNK        -0.4242 
     38 C         -52.6257  -25.8213   13.5270 C.2       10 UNK         0.5072 
     39 O         -53.4931  -26.6854   13.3935 O.2       10 UNK        -0.5224 
     40 CA        -53.0209  -24.3337   13.4090 C.3       9 UNK         0.0343 
     41 CB        -54.4463  -24.0730   13.9391 C.3       9 UNK        -0.2003 
     42 N         -52.0695  -23.3952   14.0239 N.am      9 UNK        -0.4272 
     43 C         -51.6670  -23.3501   15.3062 C.2       9 UNK         0.4988 
     44 O         -52.0580  -24.1428   16.1660 O.2       9 UNK        -0.5108 
     45 CA        -50.6182  -22.2793   15.6721 C.3       8 UNK         0.0248 
     46 CB        -49.7126  -22.7352   16.8315 C.3       8 UNK        -0.2001 
     47 N         -49.7768  -21.9679   14.5145 N.am      8 UNK        -0.4140 
     48 C         -49.7238  -20.7958   13.8655 C.2       8 UNK         0.5028 
     49 O         -50.3050  -19.7774   14.2413 O.2       8 UNK        -0.5428 
     50 CA        -48.9163  -20.7564   12.5485 C.3       7 UNK         0.0264 
     51 CB        -47.5036  -20.2086   12.8042 C.3       7 UNK        -0.1988 
     52 N         -48.8190  -22.0594   11.8756 N.am      7 UNK        -0.4454 
     53 C         -49.8768  -22.7592   11.4301 C.2       7 UNK         0.5027 
     54 O         -51.0200  -22.3017   11.4158 O.2       7 UNK        -0.5083 
     55 CA        -49.6805  -24.2390   11.0256 C.3       6 UNK         0.0844 
     56 C56       -49.8468  -24.4230    9.4995 C.3       14 UNK        -0.0967 
     57 S57       -50.1611  -26.1595    9.0496 S.3       14 UNK        -0.2604 
     58 C58       -51.9183  -26.3079    9.4919 C.3       14 UNK         0.0134 
     59 N         -48.4468  -24.8455   11.5409 N.am      6 UNK        -0.4116 
     60 C         -48.1091  -24.9304   12.8386 C.2       5 UNK         0.5034 
     61 O         -48.8677  -24.6055   13.7535 O.2       5 UNK        -0.5045 
     62 CA        -46.6761  -25.3769   13.1887 C.3       5 UNK         0.0224 
     63 CB        -46.6678  -26.8550   13.6080 C.3       5 UNK        -0.1978 
     64 N         -45.7031  -25.1792   12.1092 N.am      5 UNK        -0.4737 
     65 C         -45.4487  -24.0264   11.4717 C.2       4 UNK         0.5027 
     66 O         -45.9241  -22.9432   11.8129 O.2       4 UNK        -0.5211 
     67 CA        -44.5862  -24.1027   10.1949 C.3       4 UNK         0.0297 
     68 CB        -43.1648  -23.5944   10.4834 C.3       4 UNK        -0.1993 
     69 N         -44.5061  -25.4332    9.5695 N.am      4 UNK        -0.4486 
     70 C         -45.5418  -26.1976    9.1885 C.2       3 UNK         0.4961 
     71 O         -46.7192  -25.8639    9.3382 O.2       3 UNK        -0.5105 
     72 CA        -45.1831  -27.5820    8.6102 C.3       3 UNK         0.0299 
     73 CB        -44.3075  -28.3879    9.5898 C.3       3 UNK        -0.1972 
     74 N         -46.3669  -28.3855    8.2979 N.am      3 UNK        -0.4305 
     75 C         -47.1864  -28.2058    7.2546 C.2       2 UNK         0.5006 
     76 O         -46.9948  -27.3580    6.3798 O.2       2 UNK        -0.5106 
     77 CA        -48.3994  -29.1589    7.1622 C.3       2 UNK         0.0296 
     78 CB        -48.8048  -29.7801    8.5165 C.3       2 UNK        -0.2002 
     79 N         -49.5648  -28.4782    6.6005 N.am      2 UNK        -0.4032 
     80 C         -49.8313  -28.3446    5.2954 C.2       1 UNK         0.5000 
     81 O         -49.1603  -28.8489    4.3905 O.2       1 UNK        -0.5238 
     82 H82       -49.0861  -25.5798    6.0684 H         1 UNK         0.0889 
     83 H83       -50.6924  -24.8395    6.2031 H         1 UNK         0.0889 
     84 H84       -49.3331  -23.9060    5.5968 H         1 UNK         0.0889 
     85 H85       -50.9311  -26.7607    2.9929 H         1 UNK         0.3028 
     86 H86       -51.4191  -27.0190    5.8506 H         1 UNK         0.0864 
     87 H87       -52.0358  -28.7828    3.4306 H         1 UNK         0.0720 
     88 H88       -52.3055  -29.3387    5.0556 H         1 UNK         0.0720 
     89 H89       -55.0414  -29.3790    5.4745 H         1 UNK         0.0814 
     90 H90       -55.6331  -27.8425    6.0544 H         1 UNK         0.0814 
     91 H91       -53.5334  -26.4248    7.3009 H         1 UNK         0.1469 
     92 H92       -51.6668  -28.9129   10.2523 H         1 UNK         0.1381 
     93 H93       -54.1041  -30.6708    7.2019 H         1 UNK         0.1206 
     94 H94       -51.6234  -31.6090    9.2905 H         1 UNK         0.0813 
     95 H95       -53.2587  -32.0695    8.8926 H         1 UNK         0.0813 
     96 H96       -55.1049  -30.5137   10.2289 H         1 UNK         0.0638 
     97 H97       -55.4565  -31.4925   11.6202 H         1 UNK         0.0638 
     98 H98       -54.0108  -28.8075   11.7992 H         1 UNK         0.0568 
     99 H99       -56.9231  -26.7717   12.3237 H         1 UNK         0.3450 
    100 H100      -55.2976  -27.0398   12.9422 H         1 UNK         0.3450 
    101 H101      -53.7673  -29.2982   13.9438 H         1 UNK         0.2987 
    102 H102      -55.8536  -30.4892   16.4569 H         1 UNK         0.0766 
    103 H103      -53.5889  -32.2638   15.3941 H         1 UNK         0.0798 
    104 H104      -55.2351  -32.7859   15.7255 H         1 UNK         0.0798 
    105 H105      -54.2050  -32.2618   17.0470 H         1 UNK         0.0798 
    106 H106      -52.9632  -29.9228   15.9827 H         1 UNK         0.3198 
    107 H107      -53.1731  -26.8598   17.8011 H         1 UNK         0.0843 
    108 H108      -51.1609  -27.9474   18.7345 H         1 UNK         0.0831 
    109 H109      -51.6033  -29.4868   18.0016 H         1 UNK         0.0831 
    110 H110      -52.6083  -28.7900   19.2612 H         1 UNK         0.0831 
    111 H111      -51.9980  -26.3703   16.0342 H         1 UNK         0.3133 
    112 H112      -49.7108  -27.2080   14.3835 H         1 UNK         0.0566 
    113 H113      -50.2413  -27.7350   11.9814 H         1 UNK         0.0814 
    114 H114      -50.1191  -29.1801   12.9708 H         1 UNK         0.0814 
    115 H115      -51.7019  -28.5763   12.5111 H         1 UNK         0.0814 
    116 H116      -50.6954  -25.3182   13.8972 H         1 UNK         0.3091 
    117 H117      -53.0198  -24.1096   12.3414 H         1 UNK         0.0702 
    118 H118      -54.7167  -23.0210   13.8496 H         1 UNK         0.0785 
    119 H119      -54.5455  -24.3574   14.9873 H         1 UNK         0.0785 
    120 H120      -55.1866  -24.6423   13.3762 H         1 UNK         0.0785 
    121 H121      -51.6819  -22.7113   13.3832 H         1 UNK         0.2998 
    122 H122      -51.1699  -21.3941   15.9940 H         1 UNK         0.0697 
    123 H123      -48.9719  -21.9743   17.0777 H         1 UNK         0.0825 
    124 H124      -50.2934  -22.9233   17.7355 H         1 UNK         0.0825 
    125 H125      -49.1798  -23.6551   16.5863 H         1 UNK         0.0825 
    126 H126      -49.2735  -22.7623   14.1287 H         1 UNK         0.3029 
    127 H127      -49.4324  -20.0720   11.8717 H         1 UNK         0.0897 
    128 H128      -46.9429  -20.1070   11.8747 H         1 UNK         0.0792 
    129 H129      -47.5441  -19.2220   13.2680 H         1 UNK         0.0792 
    130 H130      -46.9335  -20.8594   13.4685 H         1 UNK         0.0792 
    131 H131      -47.8941  -22.4805   11.8432 H         1 UNK         0.3086 
    132 H132      -50.4998  -24.7702   11.5090 H         1 UNK         0.0583 
    133 H133      -50.6687  -23.8193    9.1085 H         1 UNK         0.1020 
    134 H134      -48.9518  -24.0842    8.9741 H         1 UNK         0.1020 
    135 H135      -52.0188  -26.3734   10.5756 H         1 UNK         0.0694 
    136 H136      -52.4563  -25.4101    9.1837 H         1 UNK         0.0694 
    137 H137      -47.7856  -25.1687   10.8387 H         1 UNK         0.2989 
    138 H138      -46.3501  -24.7714   14.0370 H         1 UNK         0.1055 
    139 H139      -47.0139  -27.5059   12.8036 H         1 UNK         0.0806 
    140 H140      -47.3196  -27.0200   14.4667 H         1 UNK         0.0806 
    141 H141      -45.6693  -27.1811   13.8998 H         1 UNK         0.0806 
    142 H142      -45.2669  -26.0119   11.7419 H         1 UNK         0.3061 
    143 H143      -45.0469  -23.4340    9.4650 H         1 UNK         0.0734 
    144 H144      -42.5718  -23.5280    9.5710 H         1 UNK         0.0832 
    145 H145      -43.1888  -22.5958   10.9227 H         1 UNK         0.0832 
    146 H146      -42.6377  -24.2444   11.1829 H         1 UNK         0.0832 
    147 H147      -43.5740  -25.7899    9.4135 H         1 UNK         0.3156 
    148 H148      -44.6209  -27.4223    7.6879 H         1 UNK         0.0589 
    149 H149      -44.7988  -28.5225   10.5546 H         1 UNK         0.0808 
    150 H150      -44.0790  -29.3773    9.1926 H         1 UNK         0.0808 
    151 H151      -43.3507  -27.8988    9.7752 H         1 UNK         0.0808 
    152 H152      -46.6243  -29.0822    8.9808 H         1 UNK         0.3098 
    153 H153      -48.1111  -29.9747    6.4961 H         1 UNK         0.0720 
    154 H154      -48.0288  -30.4396    8.9064 H         1 UNK         0.0791 
    155 H155      -49.7032  -30.3878    8.4112 H         1 UNK         0.0791 
    156 H156      -49.0099  -29.0183    9.2702 H         1 UNK         0.0791 
    157 H157      -50.1508  -27.9984    7.2710 H         1 UNK         0.3028 
@<TRIPOS>BOND
     1    1    2 1    
     2    1   82 1    
     3    1   83 1    
     4    1   84 1    
     5    2    3 2    
     6    2    4 am   BACKBONE|DICT|INTERRES
     7    4    5 1    
     8    4   85 1    
     9    5    6 1    
    10    5   80 1    
    11    5   86 1    
    12    6    7 1    
    13    6   87 1    
    14    6   88 1    
    15    7    8 1    
    16    8    9 1    
    17    8   89 1    
    18    8   90 1    
    19    9   10 ar   
    20    9   14 ar   
    21   10   11 ar   
    22   10   91 1    
    23   11   12 ar   
    24   11   58 1    
    25   12   13 ar   
    26   12   92 1    
    27   13   14 ar   
    28   13   15 1    
    29   14   93 1    
    30   15   16 1    
    31   15   94 1    
    32   15   95 1    
    33   16   17 1    
    34   17   18 1    
    35   17   96 1    
    36   17   97 1    
    37   18   19 1    
    38   18   22 1    
    39   18   98 1    
    40   19   20 am   BACKBONE|DICT|INTERRES
    41   19   21 2    
    42   20   99 1    
    43   20  100 1    
    44   22   23 am   BACKBONE|DICT|INTERRES
    45   22  101 1    
    46   23   24 2    
    47   23   25 1    
    48   25   26 1    
    49   25   27 1    
    50   25  102 1    
    51   26  103 1    
    52   26  104 1    
    53   26  105 1    
    54   27   28 am   BACKBONE|DICT|INTERRES
    55   27  106 1    
    56   28   29 2    
    57   28   30 1    
    58   30   31 1    
    59   30   32 1    
    60   30  107 1    
    61   31  108 1    
    62   31  109 1    
    63   31  110 1    
    64   32   33 am   BACKBONE|DICT|INTERRES
    65   32  111 1    
    66   33   34 2    
    67   33   35 1    
    68   35   36 1    
    69   35   37 1    
    70   35  112 1    
    71   36  113 1    
    72   36  114 1    
    73   36  115 1    
    74   37   38 am   BACKBONE|DICT|INTERRES
    75   37  116 1    
    76   38   39 2    
    77   38   40 1    
    78   40   41 1    
    79   40   42 1    
    80   40  117 1    
    81   41  118 1    
    82   41  119 1    
    83   41  120 1    
    84   42   43 am   BACKBONE|DICT|INTERRES
    85   42  121 1    
    86   43   44 2    
    87   43   45 1    
    88   45   46 1    
    89   45   47 1    
    90   45  122 1    
    91   46  123 1    
    92   46  124 1    
    93   46  125 1    
    94   47   48 am   BACKBONE|DICT|INTERRES
    95   47  126 1    
    96   48   49 2    
    97   48   50 1    
    98   50   51 1    
    99   50   52 1    
   100   50  127 1    
   101   51  128 1    
   102   51  129 1    
   103   51  130 1    
   104   52   53 am   BACKBONE|DICT|INTERRES
   105   52  131 1    
   106   53   54 2    
   107   53   55 1    
   108   55   56 1    
   109   55   59 1    
   110   55  132 1    
   111   56   57 1    
   112   56  133 1    
   113   56  134 1    
   114   57   58 1    
   115   58  135 1    
   116   58  136 1    
   117   59   60 am   BACKBONE|DICT|INTERRES
   118   59  137 1    
   119   60   61 2    
   120   60   62 1    
   121   62   63 1    
   122   62   64 1    
   123   62  138 1    
   124   63  139 1    
   125   63  140 1    
   126   63  141 1    
   127   64   65 am   BACKBONE|DICT|INTERRES
   128   64  142 1    
   129   65   66 2    
   130   65   67 1    
   131   67   68 1    
   132   67   69 1    
   133   67  143 1    
   134   68  144 1    
   135   68  145 1    
   136   68  146 1    
   137   69   70 am   BACKBONE|DICT|INTERRES
   138   69  147 1    
   139   70   71 2    
   140   70   72 1    
   141   72   73 1    
   142   72   74 1    
   143   72  148 1    
   144   73  149 1    
   145   73  150 1    
   146   73  151 1    
   147   74   75 am   BACKBONE|DICT|INTERRES
   148   74  152 1    
   149   75   76 2    
   150   75   77 1    
   151   77   78 1    
   152   77   79 1    
   153   77  153 1    
   154   78  154 1    
   155   78  155 1    
   156   78  156 1    
   157   79   80 am   BACKBONE|DICT|INTERRES
   158   79  157 1    
   159   80   81 2    
@<TRIPOS>SUBSTRUCTURE
     1 UNK         1 GROUP             0       ****    0 ROOT    
