@<TRIPOS>MOLECULE
3R207
157   159    1
SMALL
USER_CHARGES


@<TRIPOS>ATOM
      1 CA        -48.6879  -31.0240    8.0284 C.3       0 UNK        -0.1975 
      2 C         -48.8519  -30.5285    6.5995 C.2       0 UNK         0.4852 
      3 O         -48.1180  -30.9657    5.7129 O.2       0 UNK        -0.5216 
      4 N         -49.8046  -29.6123    6.3735 N.am      1 UNK        -0.4461 
      5 CA        -50.0756  -28.9778    5.0758 C.3       1 UNK         0.0864 
      6 C6        -51.4153  -28.1980    5.0831 C.3       14 UNK        -0.0898 
      7 S7        -52.9116  -29.2313    4.8736 S.3       14 UNK        -0.2598 
      8 C8        -52.9434  -30.3703    6.3068 C.3       14 UNK         0.0286 
      9 C9        -52.7416  -29.7188    7.6739 C.ar      14 UNK        -0.0844 
     10 C10       -53.1745  -28.4166    7.9460 C.ar      14 UNK        -0.0881 
     11 C11       -52.9029  -27.8197    9.1785 C.ar      14 UNK        -0.0643 
     12 C12       -52.2171  -28.5422   10.1584 C.ar      14 UNK        -0.0930 
     13 C13       -51.8478  -29.8702    9.9299 C.ar      14 UNK        -0.0827 
     14 C14       -52.1071  -30.4483    8.6841 C.ar      14 UNK        -0.1249 
     15 C15       -51.1765  -30.6850   11.0286 C.3       14 UNK         0.0141 
     16 S16       -52.2223  -30.8743   12.5125 S.3       14 UNK        -0.2313 
     17 C17       -53.7799  -31.5424   11.8343 C.3       14 UNK        -0.0915 
     18 CA        -54.8836  -30.4625   11.6390 C.3       13 UNK         0.0968 
     19 C         -56.1107  -31.0556   10.9055 C.2       13 UNK         0.5732 
     20 N         -56.0408  -31.1778    9.5870 N.am      13 UNK        -0.7310 
     21 O         -57.1111  -31.4288   11.5174 O.2       13 UNK        -0.5035 
     22 N         -55.2941  -29.8333   12.9033 N.am      13 UNK        -0.4233 
     23 C         -54.8962  -28.6300   13.3303 C.2       13 UNK         0.4989 
     24 O         -54.0961  -27.9151   12.7227 O.2       13 UNK        -0.4996 
     25 CA        -55.4846  -28.1508   14.6721 C.3       12 UNK         0.0216 
     26 CB        -55.0340  -29.0552   15.8326 C.3       12 UNK        -0.1964 
     27 N         -55.0743  -26.7695   14.9458 N.am      12 UNK        -0.4276 
     28 C         -55.6507  -25.6946   14.3886 C.2       12 UNK         0.5020 
     29 O         -56.7183  -25.7472   13.7739 O.2       12 UNK        -0.5489 
     30 CA        -54.9074  -24.3452   14.4666 C.3       11 UNK         0.0294 
     31 CB        -55.8536  -23.1647   14.7753 C.3       11 UNK        -0.2019 
     32 N         -53.7258  -24.3372   15.3380 N.am      11 UNK        -0.4493 
     33 C         -53.6861  -24.3858   16.6772 C.2       11 UNK         0.4932 
     34 O         -54.6847  -24.4480   17.3960 O.2       11 UNK        -0.5029 
     35 CA        -52.2771  -24.3846   17.3047 C.3       10 UNK         0.0280 
     36 CB        -52.2912  -24.6361   18.8274 C.3       10 UNK        -0.1976 
     37 N         -51.3565  -25.3121   16.6347 N.am      10 UNK        -0.4242 
     38 C         -51.5197  -26.6357   16.4763 C.2       10 UNK         0.5072 
     39 O         -52.4942  -27.2508   16.9083 O.2       10 UNK        -0.5224 
     40 CA        -50.4553  -27.4193   15.6827 C.3       9 UNK         0.0343 
     41 CB        -51.0843  -28.0450   14.4282 C.3       9 UNK        -0.2003 
     42 N         -49.2985  -26.6192   15.2771 N.am      9 UNK        -0.4272 
     43 C         -48.2984  -26.2408   16.0847 C.2       9 UNK         0.4988 
     44 O         -48.2004  -26.5840   17.2630 O.2       9 UNK        -0.5108 
     45 CA        -47.2564  -25.2773   15.4874 C.3       8 UNK         0.0248 
     46 CB        -46.1733  -26.0539   14.7221 C.3       8 UNK        -0.2001 
     47 N         -47.8484  -24.2636   14.6074 N.am      8 UNK        -0.4140 
     48 C         -48.7617  -23.3564   14.9859 C.2       8 UNK         0.5028 
     49 O         -49.1810  -23.2427   16.1374 O.2       8 UNK        -0.5428 
     50 CA        -49.3637  -22.4765   13.8805 C.3       7 UNK         0.0264 
     51 CB        -48.4123  -21.3330   13.4918 C.3       7 UNK        -0.1988 
     52 N         -49.7154  -23.2671   12.6996 N.am      7 UNK        -0.4454 
     53 C         -50.7244  -24.1502   12.6609 C.2       7 UNK         0.5027 
     54 O         -51.5032  -24.3361   13.5967 O.2       7 UNK        -0.5083 
     55 CA        -50.8823  -24.9792   11.3732 C.3       6 UNK         0.0844 
     56 C56       -51.8058  -24.2449   10.3726 C.3       14 UNK        -0.0967 
     57 S57       -52.1070  -25.2107    8.8572 S.3       14 UNK        -0.2604 
     58 C58       -53.3558  -26.3954    9.4441 C.3       14 UNK         0.0134 
     59 N         -49.5851  -25.3388   10.7926 N.am      6 UNK        -0.4116 
     60 C         -48.7330  -26.2218   11.3352 C.2       5 UNK         0.5034 
     61 O         -48.9600  -26.8380   12.3742 O.2       5 UNK        -0.5045 
     62 CA        -47.3723  -26.4142   10.6384 C.3       5 UNK         0.0224 
     63 CB        -47.4895  -27.4743    9.5316 C.3       5 UNK        -0.1978 
     64 N         -46.8277  -25.1744   10.0763 N.am      5 UNK        -0.4737 
     65 C         -46.6271  -24.0430   10.7686 C.2       4 UNK         0.5027 
     66 O         -46.7375  -23.9699   11.9921 O.2       4 UNK        -0.5211 
     67 CA        -46.3262  -22.7595    9.9729 C.3       4 UNK         0.0297 
     68 CB        -44.8332  -22.4110   10.0685 C.3       4 UNK        -0.1993 
     69 N         -46.7213  -22.8115    8.5609 N.am      4 UNK        -0.4486 
     70 C         -47.9493  -23.0614    8.0806 C.2       3 UNK         0.4961 
     71 O         -48.9383  -23.2485    8.7899 O.2       3 UNK        -0.5105 
     72 CA        -48.0859  -23.1567    6.5483 C.3       3 UNK         0.0299 
     73 CB        -47.1223  -22.2073    5.8029 C.3       3 UNK        -0.1972 
     74 N         -47.9528  -24.5216    6.0128 N.am      3 UNK        -0.4305 
     75 C         -46.9870  -25.4210    6.2605 C.2       2 UNK         0.5006 
     76 O         -46.1258  -25.2966    7.1326 O.2       2 UNK        -0.5106 
     77 CA        -46.9913  -26.6738    5.3740 C.3       2 UNK         0.0296 
     78 CB        -45.7628  -27.5779    5.6011 C.3       2 UNK        -0.2002 
     79 N         -48.2072  -27.4532    5.5940 N.am      2 UNK        -0.4032 
     80 C         -48.9170  -28.0568    4.6297 C.2       1 UNK         0.5000 
     81 O         -48.6830  -27.9281    3.4263 O.2       1 UNK        -0.5238 
     82 H82       -49.1481  -30.3455    8.7454 H         1 UNK         0.0889 
     83 H83       -47.6308  -31.1062    8.2800 H         1 UNK         0.0889 
     84 H84       -49.1434  -32.0074    8.1410 H         1 UNK         0.0889 
     85 H85       -50.4148  -29.3335    7.1308 H         1 UNK         0.3028 
     86 H86       -50.1438  -29.7702    4.3270 H         1 UNK         0.0864 
     87 H87       -51.5033  -27.5826    5.9791 H         1 UNK         0.0720 
     88 H88       -51.4470  -27.4909    4.2512 H         1 UNK         0.0720 
     89 H89       -52.1856  -31.1378    6.1418 H         1 UNK         0.0814 
     90 H90       -53.9023  -30.8897    6.3115 H         1 UNK         0.0814 
     91 H91       -53.6978  -27.8490    7.1890 H         1 UNK         0.1469 
     92 H92       -52.0126  -28.0916   11.1196 H         1 UNK         0.1381 
     93 H93       -51.8055  -31.4701    8.4965 H         1 UNK         0.1206 
     94 H94       -50.2459  -30.1938   11.3164 H         1 UNK         0.0813 
     95 H95       -50.9020  -31.6764   10.6654 H         1 UNK         0.0813 
     96 H96       -54.1326  -32.3214   12.5122 H         1 UNK         0.0638 
     97 H97       -53.5568  -32.0442   10.8911 H         1 UNK         0.0638 
     98 H98       -54.4997  -29.6875   10.9769 H         1 UNK         0.0568 
     99 H99       -55.2214  -30.8774    9.0822 H         1 UNK         0.3450 
    100 H100      -56.8236  -31.5709    9.0888 H         1 UNK         0.3450 
    101 H101      -55.9919  -30.3459   13.4238 H         1 UNK         0.2987 
    102 H102      -56.5737  -28.1927   14.6042 H         1 UNK         0.0766 
    103 H103      -53.9510  -29.1750   15.8569 H         1 UNK         0.0798 
    104 H104      -55.4653  -30.0529   15.7456 H         1 UNK         0.0798 
    105 H105      -55.3468  -28.6528   16.7964 H         1 UNK         0.0798 
    106 H106      -54.1919  -26.6507   15.4271 H         1 UNK         0.3198 
    107 H107      -54.5132  -24.1828   13.4621 H         1 UNK         0.0843 
    108 H108      -56.3642  -23.2906   15.7302 H         1 UNK         0.0831 
    109 H109      -56.6248  -23.0725   14.0096 H         1 UNK         0.0831 
    110 H110      -55.3136  -22.2184   14.8032 H         1 UNK         0.0831 
    111 H111      -52.8368  -24.3237   14.8361 H         1 UNK         0.3133 
    112 H112      -51.8724  -23.3849   17.1406 H         1 UNK         0.0566 
    113 H113      -51.2846  -24.5985   19.2438 H         1 UNK         0.0814 
    114 H114      -52.8832  -23.8789   19.3429 H         1 UNK         0.0814 
    115 H115      -52.7205  -25.6077   19.0741 H         1 UNK         0.0814 
    116 H116      -50.5278  -24.8803   16.2413 H         1 UNK         0.3091 
    117 H117      -50.1053  -28.2289   16.3262 H         1 UNK         0.0702 
    118 H118      -51.9130  -28.7033   14.6883 H         1 UNK         0.0785 
    119 H119      -51.4757  -27.2856   13.7504 H         1 UNK         0.0785 
    120 H120      -50.3616  -28.6462   13.8766 H         1 UNK         0.0785 
    121 H121      -49.2541  -26.3654   14.2950 H         1 UNK         0.2998 
    122 H122      -46.7786  -24.7510   16.3162 H         1 UNK         0.0697 
    123 H123      -46.5915  -26.6024   13.8778 H         1 UNK         0.0825 
    124 H124      -45.6812  -26.7793   15.3712 H         1 UNK         0.0825 
    125 H125      -45.4023  -25.3859   14.3373 H         1 UNK         0.0825 
    126 H126      -47.5279  -24.2517   13.6403 H         1 UNK         0.3029 
    127 H127      -50.2805  -22.0311   14.2738 H         1 UNK         0.0897 
    128 H128      -48.8553  -20.6896   12.7315 H         1 UNK         0.0792 
    129 H129      -47.4610  -21.7005   13.1074 H         1 UNK         0.0792 
    130 H130      -48.1900  -20.7057   14.3560 H         1 UNK         0.0792 
    131 H131      -49.0972  -23.2016   11.9035 H         1 UNK         0.3086 
    132 H132      -51.3780  -25.9072   11.6624 H         1 UNK         0.0583 
    133 H133      -52.7668  -24.0047   10.8324 H         1 UNK         0.1020 
    134 H134      -51.3678  -23.2892   10.0775 H         1 UNK         0.1020 
    135 H135      -53.5535  -26.2625   10.5088 H         1 UNK         0.0694 
    136 H136      -54.3004  -26.1992    8.9348 H         1 UNK         0.0694 
    137 H137      -49.3166  -24.8327    9.9542 H         1 UNK         0.2989 
    138 H138      -46.6650  -26.7724   11.3890 H         1 UNK         0.1055 
    139 H139      -47.8445  -28.4223    9.9382 H         1 UNK         0.0806 
    140 H140      -46.5254  -27.6646    9.0596 H         1 UNK         0.0806 
    141 H141      -48.1916  -27.1678    8.7561 H         1 UNK         0.0806 
    142 H142      -46.6660  -25.1524    9.0734 H         1 UNK         0.3061 
    143 H143      -46.8974  -21.9542   10.4389 H         1 UNK         0.0734 
    144 H144      -44.5154  -22.3379   11.1098 H         1 UNK         0.0832 
    145 H145      -44.6168  -21.4514    9.5986 H         1 UNK         0.0832 
    146 H146      -44.2113  -23.1693    9.5908 H         1 UNK         0.0832 
    147 H147      -45.9721  -22.7388    7.8876 H         1 UNK         0.3156 
    148 H148      -49.1025  -22.8344    6.3171 H         1 UNK         0.0589 
    149 H149      -46.0835  -22.5326    5.8694 H         1 UNK         0.0808 
    150 H150      -47.3766  -22.1479    4.7445 H         1 UNK         0.0808 
    151 H151      -47.1795  -21.1929    6.2007 H         1 UNK         0.0808 
    152 H152      -48.6414  -24.7710    5.3162 H         1 UNK         0.3098 
    153 H153      -46.9550  -26.3154    4.3429 H         1 UNK         0.0720 
    154 H154      -45.7590  -28.4203    4.9091 H         1 UNK         0.0791 
    155 H155      -45.7389  -27.9799    6.6146 H         1 UNK         0.0791 
    156 H156      -44.8350  -27.0260    5.4447 H         1 UNK         0.0791 
    157 H157      -48.4868  -27.5912    6.5540 H         1 UNK         0.3028 
@<TRIPOS>BOND
     1    1    2 1    
     2    1   82 1    
     3    1   83 1    
     4    1   84 1    
     5    2    3 2    
     6    2    4 am   BACKBONE|DICT|INTERRES
     7    4    5 1    
     8    4   85 1    
     9    5    6 1    
    10    5   80 1    
    11    5   86 1    
    12    6    7 1    
    13    6   87 1    
    14    6   88 1    
    15    7    8 1    
    16    8    9 1    
    17    8   89 1    
    18    8   90 1    
    19    9   10 ar   
    20    9   14 ar   
    21   10   11 ar   
    22   10   91 1    
    23   11   12 ar   
    24   11   58 1    
    25   12   13 ar   
    26   12   92 1    
    27   13   14 ar   
    28   13   15 1    
    29   14   93 1    
    30   15   16 1    
    31   15   94 1    
    32   15   95 1    
    33   16   17 1    
    34   17   18 1    
    35   17   96 1    
    36   17   97 1    
    37   18   19 1    
    38   18   22 1    
    39   18   98 1    
    40   19   20 am   BACKBONE|DICT|INTERRES
    41   19   21 2    
    42   20   99 1    
    43   20  100 1    
    44   22   23 am   BACKBONE|DICT|INTERRES
    45   22  101 1    
    46   23   24 2    
    47   23   25 1    
    48   25   26 1    
    49   25   27 1    
    50   25  102 1    
    51   26  103 1    
    52   26  104 1    
    53   26  105 1    
    54   27   28 am   BACKBONE|DICT|INTERRES
    55   27  106 1    
    56   28   29 2    
    57   28   30 1    
    58   30   31 1    
    59   30   32 1    
    60   30  107 1    
    61   31  108 1    
    62   31  109 1    
    63   31  110 1    
    64   32   33 am   BACKBONE|DICT|INTERRES
    65   32  111 1    
    66   33   34 2    
    67   33   35 1    
    68   35   36 1    
    69   35   37 1    
    70   35  112 1    
    71   36  113 1    
    72   36  114 1    
    73   36  115 1    
    74   37   38 am   BACKBONE|DICT|INTERRES
    75   37  116 1    
    76   38   39 2    
    77   38   40 1    
    78   40   41 1    
    79   40   42 1    
    80   40  117 1    
    81   41  118 1    
    82   41  119 1    
    83   41  120 1    
    84   42   43 am   BACKBONE|DICT|INTERRES
    85   42  121 1    
    86   43   44 2    
    87   43   45 1    
    88   45   46 1    
    89   45   47 1    
    90   45  122 1    
    91   46  123 1    
    92   46  124 1    
    93   46  125 1    
    94   47   48 am   BACKBONE|DICT|INTERRES
    95   47  126 1    
    96   48   49 2    
    97   48   50 1    
    98   50   51 1    
    99   50   52 1    
   100   50  127 1    
   101   51  128 1    
   102   51  129 1    
   103   51  130 1    
   104   52   53 am   BACKBONE|DICT|INTERRES
   105   52  131 1    
   106   53   54 2    
   107   53   55 1    
   108   55   56 1    
   109   55   59 1    
   110   55  132 1    
   111   56   57 1    
   112   56  133 1    
   113   56  134 1    
   114   57   58 1    
   115   58  135 1    
   116   58  136 1    
   117   59   60 am   BACKBONE|DICT|INTERRES
   118   59  137 1    
   119   60   61 2    
   120   60   62 1    
   121   62   63 1    
   122   62   64 1    
   123   62  138 1    
   124   63  139 1    
   125   63  140 1    
   126   63  141 1    
   127   64   65 am   BACKBONE|DICT|INTERRES
   128   64  142 1    
   129   65   66 2    
   130   65   67 1    
   131   67   68 1    
   132   67   69 1    
   133   67  143 1    
   134   68  144 1    
   135   68  145 1    
   136   68  146 1    
   137   69   70 am   BACKBONE|DICT|INTERRES
   138   69  147 1    
   139   70   71 2    
   140   70   72 1    
   141   72   73 1    
   142   72   74 1    
   143   72  148 1    
   144   73  149 1    
   145   73  150 1    
   146   73  151 1    
   147   74   75 am   BACKBONE|DICT|INTERRES
   148   74  152 1    
   149   75   76 2    
   150   75   77 1    
   151   77   78 1    
   152   77   79 1    
   153   77  153 1    
   154   78  154 1    
   155   78  155 1    
   156   78  156 1    
   157   79   80 am   BACKBONE|DICT|INTERRES
   158   79  157 1    
   159   80   81 2    
@<TRIPOS>SUBSTRUCTURE
     1 UNK         1 GROUP             0       ****    0 ROOT    
