@<TRIPOS>MOLECULE
3R207
157   159    1
SMALL
USER_CHARGES


@<TRIPOS>ATOM
      1 CA        -48.4241  -32.6382    4.7835 C.3       0 UNK        -0.1975 
      2 C         -49.0253  -31.2434    4.6942 C.2       0 UNK         0.4852 
      3 O         -49.2696  -30.7526    3.5915 O.2       0 UNK        -0.5216 
      4 N         -49.2643  -30.6025    5.8468 N.am      1 UNK        -0.4461 
      5 CA        -49.8501  -29.2589    5.9588 C.3       1 UNK         0.0864 
      6 C6        -50.3649  -28.9791    7.3902 C.3       14 UNK        -0.0898 
      7 S7        -51.7288  -30.0942    7.8698 S.3       14 UNK        -0.2598 
      8 C8        -53.1726  -29.3299    7.0604 C.3       14 UNK         0.0286 
      9 C9        -53.4605  -27.9384    7.6010 C.ar      14 UNK        -0.0844 
     10 C10       -53.0271  -26.8098    6.9014 C.ar      14 UNK        -0.0881 
     11 C11       -53.2499  -25.5289    7.4114 C.ar      14 UNK        -0.0643 
     12 C12       -53.9389  -25.3775    8.6189 C.ar      14 UNK        -0.0930 
     13 C13       -54.3854  -26.5009    9.3230 C.ar      14 UNK        -0.0827 
     14 C14       -54.1486  -27.7783    8.8058 C.ar      14 UNK        -0.1249 
     15 C15       -55.1156  -26.3403   10.6485 C.3       14 UNK         0.0141 
     16 S16       -54.0188  -25.7773   11.9907 S.3       14 UNK        -0.2313 
     17 C17       -52.6893  -27.0298   11.9842 C.3       14 UNK        -0.0915 
     18 CA        -53.1411  -28.4537   12.4032 C.3       13 UNK         0.0968 
     19 C         -51.9404  -29.4363   12.4322 C.2       13 UNK         0.5732 
     20 N         -51.4240  -29.8181   11.2726 N.am      13 UNK        -0.7310 
     21 O         -51.4579  -29.8504   13.4844 O.2       13 UNK        -0.5035 
     22 N         -53.8592  -28.4427   13.6834 N.am      13 UNK        -0.4233 
     23 C         -54.9917  -29.1117   13.9301 C.2       13 UNK         0.4989 
     24 O         -55.5757  -29.8026   13.0924 O.2       13 UNK        -0.4996 
     25 CA        -55.5867  -28.9610   15.3444 C.3       12 UNK         0.0216 
     26 CB        -56.6970  -29.9884   15.6556 C.3       12 UNK        -0.1964 
     27 N         -54.5635  -28.9482   16.3945 N.am      12 UNK        -0.4276 
     28 C         -53.7102  -29.9331   16.7211 C.2       12 UNK         0.5020 
     29 O         -53.7410  -31.0594   16.2230 O.2       12 UNK        -0.5489 
     30 CA        -52.6287  -29.6165   17.7733 C.3       11 UNK         0.0294 
     31 CB        -51.2265  -29.9361   17.2256 C.3       11 UNK        -0.2019 
     32 N         -52.6588  -28.2115   18.1869 N.am      11 UNK        -0.4493 
     33 C         -53.2492  -27.7459   19.2967 C.2       11 UNK         0.4932 
     34 O         -53.7732  -28.4663   20.1463 O.2       11 UNK        -0.5029 
     35 CA        -53.2834  -26.2165   19.4902 C.3       10 UNK         0.0280 
     36 CB        -52.1486  -25.7707   20.4262 C.3       10 UNK        -0.1976 
     37 N         -53.2013  -25.4563   18.2385 N.am      10 UNK        -0.4242 
     38 C         -54.1178  -25.4774   17.2594 C.2       10 UNK         0.5072 
     39 O         -55.1667  -26.1186   17.3184 O.2       10 UNK        -0.5224 
     40 CA        -53.7692  -24.7218   15.9653 C.3       9 UNK         0.0343 
     41 CB        -54.2529  -23.2656   16.0351 C.3       9 UNK        -0.2003 
     42 N         -52.3390  -24.7465   15.6423 N.am      9 UNK        -0.4272 
     43 C         -51.6136  -25.8488   15.4143 C.2       9 UNK         0.4988 
     44 O         -52.0853  -26.9852   15.4872 O.2       9 UNK        -0.5108 
     45 CA        -50.1221  -25.6482   15.0731 C.3       8 UNK         0.0248 
     46 CB        -49.4268  -26.9608   14.6672 C.3       8 UNK        -0.2001 
     47 N         -49.8975  -24.6434   14.0268 N.am      8 UNK        -0.4140 
     48 C         -49.9548  -23.3139   14.2053 C.2       8 UNK         0.5028 
     49 O         -50.2664  -22.7945   15.2784 O.2       8 UNK        -0.5428 
     50 CA        -49.6194  -22.3988   13.0140 C.3       7 UNK         0.0264 
     51 CB        -48.2555  -21.7219   13.2263 C.3       7 UNK        -0.1988 
     52 N         -49.6213  -23.0992   11.7276 N.am      7 UNK        -0.4454 
     53 C         -50.7383  -23.4058   11.0470 C.2       7 UNK         0.5027 
     54 O         -51.8611  -23.0676   11.4214 O.2       7 UNK        -0.5083 
     55 CA        -50.6030  -24.1996    9.7260 C.3       6 UNK         0.0844 
     56 C56       -50.8890  -23.2586    8.5288 C.3       14 UNK        -0.0967 
     57 S57       -50.9338  -24.1106    6.9167 S.3       14 UNK        -0.2604 
     58 C58       -52.7234  -24.3214    6.6538 C.3       14 UNK         0.0134 
     59 N         -49.3192  -24.8995    9.5949 N.am      6 UNK        -0.4116 
     60 C         -48.8959  -25.8849   10.4030 C.2       5 UNK         0.5034 
     61 O         -49.5664  -26.3414   11.3270 O.2       5 UNK        -0.5045 
     62 CA        -47.4564  -26.3989   10.2125 C.3       5 UNK         0.0224 
     63 CB        -47.4441  -27.6801    9.3692 C.3       5 UNK        -0.1978 
     64 N         -46.5491  -25.4119    9.6188 N.am      5 UNK        -0.4737 
     65 C         -46.2630  -24.2220   10.1689 C.2       4 UNK         0.5027 
     66 O         -46.7016  -23.8619   11.2606 O.2       4 UNK        -0.5211 
     67 CA        -45.3908  -23.2446    9.3623 C.3       4 UNK         0.0297 
     68 CB        -43.9457  -23.2635    9.8845 C.3       4 UNK        -0.1993 
     69 N         -45.3842  -23.4844    7.9167 N.am      4 UNK        -0.4486 
     70 C         -46.4547  -23.4745    7.1090 C.2       3 UNK         0.4961 
     71 O         -47.6046  -23.2734    7.4996 O.2       3 UNK        -0.5105 
     72 CA        -46.1983  -23.7465    5.6137 C.3       3 UNK         0.0299 
     73 CB        -44.7418  -23.4660    5.1791 C.3       3 UNK        -0.1972 
     74 N         -46.5848  -25.0943    5.1764 N.am      3 UNK        -0.4305 
     75 C         -46.2910  -26.2701    5.7520 C.2       2 UNK         0.5006 
     76 O         -45.7640  -26.4001    6.8594 O.2       2 UNK        -0.5106 
     77 CA        -46.5685  -27.5207    4.9020 C.3       2 UNK         0.0296 
     78 CB        -45.2789  -28.3330    4.6916 C.3       2 UNK        -0.2002 
     79 N         -47.5874  -28.3889    5.4879 N.am      2 UNK        -0.4032 
     80 C         -48.9041  -28.1378    5.4709 C.2       1 UNK         0.5000 
     81 O         -49.3886  -27.0888    5.0442 O.2       1 UNK        -0.5238 
     82 H82       -49.0867  -33.3627    4.3108 H         1 UNK         0.0889 
     83 H83       -48.2643  -32.9487    5.8159 H         1 UNK         0.0889 
     84 H84       -47.4644  -32.6667    4.2681 H         1 UNK         0.0889 
     85 H85       -49.0742  -31.0695    6.7224 H         1 UNK         0.3028 
     86 H86       -50.7086  -29.2264    5.2850 H         1 UNK         0.0864 
     87 H87       -50.6787  -27.9420    7.5118 H         1 UNK         0.0720 
     88 H88       -49.5612  -29.1270    8.1102 H         1 UNK         0.0720 
     89 H89       -53.0164  -29.3004    5.9813 H         1 UNK         0.0814 
     90 H90       -54.0427  -29.9684    7.2200 H         1 UNK         0.0814 
     91 H91       -52.4842  -26.9255    5.9728 H         1 UNK         0.1469 
     92 H92       -54.1085  -24.3894    9.0247 H         1 UNK         0.1381 
     93 H93       -54.4871  -28.6522    9.3449 H         1 UNK         0.1206 
     94 H94       -55.5918  -27.2755   10.9468 H         1 UNK         0.0813 
     95 H95       -55.9223  -25.6162   10.5284 H         1 UNK         0.0813 
     96 H96       -52.2366  -27.0478   10.9916 H         1 UNK         0.0638 
     97 H97       -51.9091  -26.6700   12.6536 H         1 UNK         0.0638 
     98 H98       -53.8124  -28.8220   11.6272 H         1 UNK         0.0568 
     99 H99       -51.7962  -29.4945   10.3928 H         1 UNK         0.3450 
    100 H100      -50.6417  -30.4519   11.2794 H         1 UNK         0.3450 
    101 H101      -53.3806  -27.9595   14.4379 H         1 UNK         0.2987 
    102 H102      -56.0469  -27.9721   15.3658 H         1 UNK         0.0766 
    103 H103      -57.1034  -29.8421   16.6563 H         1 UNK         0.0798 
    104 H104      -57.5258  -29.8916   14.9534 H         1 UNK         0.0798 
    105 H105      -56.3333  -31.0140   15.5870 H         1 UNK         0.0798 
    106 H106      -54.4735  -28.0645   16.8832 H         1 UNK         0.3198 
    107 H107      -52.8131  -30.2649   18.6325 H         1 UNK         0.0843 
    108 H108      -50.4487  -29.6935   17.9496 H         1 UNK         0.0831 
    109 H109      -51.0196  -29.3848   16.3077 H         1 UNK         0.0831 
    110 H110      -51.1311  -30.9970   16.9910 H         1 UNK         0.0831 
    111 H111      -52.2857  -27.5529   17.5123 H         1 UNK         0.3133 
    112 H112      -54.2351  -25.9692   19.9652 H         1 UNK         0.0566 
    113 H113      -51.1665  -25.9728   19.9965 H         1 UNK         0.0814 
    114 H114      -52.2004  -26.2973   21.3804 H         1 UNK         0.0814 
    115 H115      -52.2083  -24.7043   20.6447 H         1 UNK         0.0814 
    116 H116      -52.3694  -24.9017   18.0960 H         1 UNK         0.3091 
    117 H117      -54.2957  -25.2176   15.1469 H         1 UNK         0.0702 
    118 H118      -53.7330  -22.7031   16.8117 H         1 UNK         0.0785 
    119 H119      -55.3204  -23.2188   16.2550 H         1 UNK         0.0785 
    120 H120      -54.0959  -22.7520   15.0862 H         1 UNK         0.0785 
    121 H121      -51.8561  -23.8541   15.5805 H         1 UNK         0.2998 
    122 H122      -49.6394  -25.2976   15.9876 H         1 UNK         0.0697 
    123 H123      -49.8902  -27.4107   13.7890 H         1 UNK         0.0825 
    124 H124      -49.4774  -27.6955   15.4711 H         1 UNK         0.0825 
    125 H125      -48.3721  -26.8014   14.4434 H         1 UNK         0.0825 
    126 H126      -49.6932  -25.0012   13.1012 H         1 UNK         0.3029 
    127 H127      -50.3792  -21.6145   12.9847 H         1 UNK         0.0897 
    128 H128      -47.9936  -21.0774   12.3870 H         1 UNK         0.0792 
    129 H129      -48.2665  -21.0994   14.1220 H         1 UNK         0.0792 
    130 H130      -47.4561  -22.4528   13.3522 H         1 UNK         0.0792 
    131 H131      -48.7177  -23.4045   11.3786 H         1 UNK         0.3086 
    132 H132      -51.3786  -24.9670    9.7480 H         1 UNK         0.0583 
    133 H133      -51.8339  -22.7304    8.6710 H         1 UNK         0.1020 
    134 H134      -50.1236  -22.4821    8.4706 H         1 UNK         0.1020 
    135 H135      -53.2599  -23.4142    6.9356 H         1 UNK         0.0694 
    136 H136      -52.9044  -24.4598    5.5869 H         1 UNK         0.0694 
    137 H137      -48.7017  -24.5593    8.8657 H         1 UNK         0.2989 
    138 H138      -47.0706  -26.6408   11.2054 H         1 UNK         0.1055 
    139 H139      -46.4366  -28.0856    9.2748 H         1 UNK         0.0806 
    140 H140      -47.8262  -27.4967    8.3653 H         1 UNK         0.0806 
    141 H141      -48.0630  -28.4519    9.8287 H         1 UNK         0.0806 
    142 H142      -46.1667  -25.6331    8.7030 H         1 UNK         0.3061 
    143 H143      -45.8002  -22.2452    9.5230 H         1 UNK         0.0734 
    144 H144      -43.9156  -23.0595   10.9559 H         1 UNK         0.0832 
    145 H145      -43.4718  -24.2330    9.7247 H         1 UNK         0.0832 
    146 H146      -43.3349  -22.5040    9.3960 H         1 UNK         0.0832 
    147 H147      -44.4893  -23.6979    7.5011 H         1 UNK         0.3156 
    148 H148      -46.8403  -23.0516    5.0701 H         1 UNK         0.0589 
    149 H149      -44.0388  -24.1891    5.5948 H         1 UNK         0.0808 
    150 H150      -44.6457  -23.5083    4.0940 H         1 UNK         0.0808 
    151 H151      -44.4202  -22.4693    5.4852 H         1 UNK         0.0808 
    152 H152      -47.0867  -25.1253    4.2996 H         1 UNK         0.3098 
    153 H153      -46.9200  -27.2066    3.9166 H         1 UNK         0.0720 
    154 H154      -45.4462  -29.1781    4.0235 H         1 UNK         0.0791 
    155 H155      -44.4986  -27.7162    4.2435 H         1 UNK         0.0791 
    156 H156      -44.8861  -28.7208    5.6326 H         1 UNK         0.0791 
    157 H157      -47.2706  -29.2651    5.8752 H         1 UNK         0.3028 
@<TRIPOS>BOND
     1    1    2 1    
     2    1   82 1    
     3    1   83 1    
     4    1   84 1    
     5    2    3 2    
     6    2    4 am   BACKBONE|DICT|INTERRES
     7    4    5 1    
     8    4   85 1    
     9    5    6 1    
    10    5   80 1    
    11    5   86 1    
    12    6    7 1    
    13    6   87 1    
    14    6   88 1    
    15    7    8 1    
    16    8    9 1    
    17    8   89 1    
    18    8   90 1    
    19    9   10 ar   
    20    9   14 ar   
    21   10   11 ar   
    22   10   91 1    
    23   11   12 ar   
    24   11   58 1    
    25   12   13 ar   
    26   12   92 1    
    27   13   14 ar   
    28   13   15 1    
    29   14   93 1    
    30   15   16 1    
    31   15   94 1    
    32   15   95 1    
    33   16   17 1    
    34   17   18 1    
    35   17   96 1    
    36   17   97 1    
    37   18   19 1    
    38   18   22 1    
    39   18   98 1    
    40   19   20 am   BACKBONE|DICT|INTERRES
    41   19   21 2    
    42   20   99 1    
    43   20  100 1    
    44   22   23 am   BACKBONE|DICT|INTERRES
    45   22  101 1    
    46   23   24 2    
    47   23   25 1    
    48   25   26 1    
    49   25   27 1    
    50   25  102 1    
    51   26  103 1    
    52   26  104 1    
    53   26  105 1    
    54   27   28 am   BACKBONE|DICT|INTERRES
    55   27  106 1    
    56   28   29 2    
    57   28   30 1    
    58   30   31 1    
    59   30   32 1    
    60   30  107 1    
    61   31  108 1    
    62   31  109 1    
    63   31  110 1    
    64   32   33 am   BACKBONE|DICT|INTERRES
    65   32  111 1    
    66   33   34 2    
    67   33   35 1    
    68   35   36 1    
    69   35   37 1    
    70   35  112 1    
    71   36  113 1    
    72   36  114 1    
    73   36  115 1    
    74   37   38 am   BACKBONE|DICT|INTERRES
    75   37  116 1    
    76   38   39 2    
    77   38   40 1    
    78   40   41 1    
    79   40   42 1    
    80   40  117 1    
    81   41  118 1    
    82   41  119 1    
    83   41  120 1    
    84   42   43 am   BACKBONE|DICT|INTERRES
    85   42  121 1    
    86   43   44 2    
    87   43   45 1    
    88   45   46 1    
    89   45   47 1    
    90   45  122 1    
    91   46  123 1    
    92   46  124 1    
    93   46  125 1    
    94   47   48 am   BACKBONE|DICT|INTERRES
    95   47  126 1    
    96   48   49 2    
    97   48   50 1    
    98   50   51 1    
    99   50   52 1    
   100   50  127 1    
   101   51  128 1    
   102   51  129 1    
   103   51  130 1    
   104   52   53 am   BACKBONE|DICT|INTERRES
   105   52  131 1    
   106   53   54 2    
   107   53   55 1    
   108   55   56 1    
   109   55   59 1    
   110   55  132 1    
   111   56   57 1    
   112   56  133 1    
   113   56  134 1    
   114   57   58 1    
   115   58  135 1    
   116   58  136 1    
   117   59   60 am   BACKBONE|DICT|INTERRES
   118   59  137 1    
   119   60   61 2    
   120   60   62 1    
   121   62   63 1    
   122   62   64 1    
   123   62  138 1    
   124   63  139 1    
   125   63  140 1    
   126   63  141 1    
   127   64   65 am   BACKBONE|DICT|INTERRES
   128   64  142 1    
   129   65   66 2    
   130   65   67 1    
   131   67   68 1    
   132   67   69 1    
   133   67  143 1    
   134   68  144 1    
   135   68  145 1    
   136   68  146 1    
   137   69   70 am   BACKBONE|DICT|INTERRES
   138   69  147 1    
   139   70   71 2    
   140   70   72 1    
   141   72   73 1    
   142   72   74 1    
   143   72  148 1    
   144   73  149 1    
   145   73  150 1    
   146   73  151 1    
   147   74   75 am   BACKBONE|DICT|INTERRES
   148   74  152 1    
   149   75   76 2    
   150   75   77 1    
   151   77   78 1    
   152   77   79 1    
   153   77  153 1    
   154   78  154 1    
   155   78  155 1    
   156   78  156 1    
   157   79   80 am   BACKBONE|DICT|INTERRES
   158   79  157 1    
   159   80   81 2    
@<TRIPOS>SUBSTRUCTURE
     1 UNK         1 GROUP             0       ****    0 ROOT    
