@<TRIPOS>MOLECULE
3R207
157   159    1
SMALL
USER_CHARGES


@<TRIPOS>ATOM
      1 CA        -53.2077  -27.6189    1.8137 C.3       0 UNK        -0.1975 
      2 C         -52.5036  -28.0076    3.1054 C.2       0 UNK         0.4852 
      3 O         -52.7803  -29.0734    3.6572 O.2       0 UNK        -0.5216 
      4 N         -51.5982  -27.1531    3.5915 N.am      1 UNK        -0.4461 
      5 CA        -50.8380  -27.3357    4.8236 C.3       1 UNK         0.0864 
      6 C6        -49.6174  -28.2688    4.6073 C.3       14 UNK        -0.0898 
      7 S7        -48.6932  -28.6545    6.1321 S.3       14 UNK        -0.2598 
      8 C8        -49.7078  -29.9824    6.8542 C.3       14 UNK         0.0286 
      9 C9        -50.1768  -29.5993    8.2487 C.ar      14 UNK        -0.0844 
     10 C10       -49.3558  -29.8444    9.3528 C.ar      14 UNK        -0.0881 
     11 C11       -49.7634  -29.4800   10.6403 C.ar      14 UNK        -0.0643 
     12 C12       -51.0137  -28.8797   10.8172 C.ar      14 UNK        -0.0930 
     13 C13       -51.8519  -28.6452    9.7235 C.ar      14 UNK        -0.0827 
     14 C14       -51.4268  -29.0036    8.4407 C.ar      14 UNK        -0.1249 
     15 C15       -53.2181  -28.0054    9.9224 C.3       14 UNK         0.0141 
     16 S16       -54.5363  -29.2596    9.9509 S.3       14 UNK        -0.2313 
     17 C17       -54.4003  -29.9101   11.6524 C.3       14 UNK        -0.0915 
     18 CA        -55.7297  -29.7756   12.4426 C.3       13 UNK         0.0968 
     19 C         -55.6467  -30.4644   13.8368 C.2       13 UNK         0.5732 
     20 N         -55.9897  -29.8086   14.9407 N.am      13 UNK        -0.7310 
     21 O         -55.2787  -31.6337   13.9200 O.2       13 UNK        -0.5035 
     22 N         -56.1843  -28.3793   12.5070 N.am      13 UNK        -0.4233 
     23 C         -57.4639  -27.9866   12.4515 C.2       13 UNK         0.4989 
     24 O         -58.4057  -28.7581   12.2580 O.2       13 UNK        -0.4996 
     25 CA        -57.7421  -26.4784   12.6447 C.3       12 UNK         0.0216 
     26 CB        -59.1652  -26.2008   13.1760 C.3       12 UNK        -0.1964 
     27 N         -56.7398  -25.7926   13.4735 N.am      12 UNK        -0.4276 
     28 C         -56.3936  -26.1026   14.7306 C.2       12 UNK         0.5020 
     29 O         -56.9165  -27.0004   15.3962 O.2       12 UNK        -0.5489 
     30 CA        -55.2170  -25.3140   15.3236 C.3       11 UNK         0.0294 
     31 CB        -55.6858  -24.4025   16.4686 C.3       11 UNK        -0.2019 
     32 N         -54.1739  -26.2139   15.8151 N.am      11 UNK        -0.4493 
     33 C         -53.5055  -27.1104   15.0779 C.2       11 UNK         0.4932 
     34 O         -53.6776  -27.2721   13.8668 O.2       11 UNK        -0.5029 
     35 CA        -52.4546  -27.9444   15.8319 C.3       10 UNK         0.0280 
     36 CB        -51.8068  -29.0242   14.9464 C.3       10 UNK        -0.1976 
     37 N         -51.4026  -27.0867   16.3790 N.am      10 UNK        -0.4242 
     38 C         -51.4839  -26.3678   17.5072 C.2       10 UNK         0.5072 
     39 O         -52.4689  -26.3679   18.2474 O.2       10 UNK        -0.5224 
     40 CA        -50.2835  -25.4709   17.8401 C.3       9 UNK         0.0343 
     41 CB        -49.0659  -26.3107   18.2622 C.3       9 UNK        -0.2003 
     42 N         -49.9352  -24.6458   16.6838 N.am      9 UNK        -0.4272 
     43 C         -50.3631  -23.3910   16.4810 C.2       9 UNK         0.4988 
     44 O         -51.0191  -22.7475   17.3009 O.2       9 UNK        -0.5108 
     45 CA        -50.0066  -22.7376   15.1310 C.3       8 UNK         0.0248 
     46 CB        -48.6834  -21.9637   15.2412 C.3       8 UNK        -0.2001 
     47 N         -49.9156  -23.7073   14.0359 N.am      8 UNK        -0.4140 
     48 C         -50.9634  -24.3939   13.5523 C.2       8 UNK         0.5028 
     49 O         -52.1277  -24.1588   13.8727 O.2       8 UNK        -0.5428 
     50 CA        -50.6828  -25.5478   12.5677 C.3       7 UNK         0.0264 
     51 CB        -51.0503  -25.1257   11.1375 C.3       7 UNK        -0.1988 
     52 N         -49.3012  -26.0406   12.5764 N.am      7 UNK        -0.4454 
     53 C         -48.6488  -26.5496   13.6326 C.2       7 UNK         0.5027 
     54 O         -49.1776  -26.7369   14.7285 O.2       7 UNK        -0.5083 
     55 CA        -47.1396  -26.8359   13.4719 C.3       6 UNK         0.0844 
     56 C56       -46.8645  -28.3520   13.3100 C.3       14 UNK        -0.0967 
     57 S57       -47.2251  -28.9785   11.6329 S.3       14 UNK        -0.2604 
     58 C58       -48.8631  -29.7474   11.8397 C.3       14 UNK         0.0134 
     59 N         -46.4869  -26.0409   12.4225 N.am      6 UNK        -0.4116 
     60 C         -46.4686  -24.7063   12.3175 C.2       5 UNK         0.5034 
     61 O         -47.0004  -23.9569   13.1378 O.2       5 UNK        -0.5045 
     62 CA        -45.8107  -24.0926   11.0680 C.3       5 UNK         0.0224 
     63 CB        -44.4158  -23.5262   11.3970 C.3       5 UNK        -0.1978 
     64 N         -45.7769  -24.9604    9.8768 N.am      5 UNK        -0.4737 
     65 C         -45.0506  -26.0686    9.6549 C.2       4 UNK         0.5027 
     66 O         -44.3254  -26.5796   10.5075 O.2       4 UNK        -0.5211 
     67 CA        -45.1640  -26.7518    8.2747 C.3       4 UNK         0.0297 
     68 CB        -45.8153  -28.1380    8.4050 C.3       4 UNK        -0.1993 
     69 N         -45.9131  -25.9763    7.2839 N.am      4 UNK        -0.4486 
     70 C         -45.4785  -24.8624    6.6788 C.2       3 UNK         0.4961 
     71 O         -44.3420  -24.4094    6.8152 O.2       3 UNK        -0.5105 
     72 CA        -46.4888  -24.1065    5.7929 C.3       3 UNK         0.0299 
     73 CB        -46.2455  -24.4317    4.3105 C.3       3 UNK        -0.1972 
     74 N         -47.8988  -24.3668    6.1095 N.am      3 UNK        -0.4305 
     75 C         -48.5076  -24.1621    7.2855 C.2       2 UNK         0.5006 
     76 O         -47.9314  -23.7221    8.2808 O.2       2 UNK        -0.5106 
     77 CA        -49.9906  -24.5608    7.4021 C.3       2 UNK         0.0296 
     78 CB        -50.9153  -23.3687    7.0905 C.3       2 UNK        -0.2002 
     79 N         -50.3737  -25.7642    6.6459 N.am      2 UNK        -0.4032 
     80 C         -50.4371  -25.9371    5.3173 C.2       1 UNK         0.5000 
     81 O         -50.1559  -25.0631    4.4917 O.2       1 UNK        -0.5238 
     82 H82       -52.8732  -26.6502    1.4427 H         1 UNK         0.0889 
     83 H83       -54.2843  -27.5674    1.9738 H         1 UNK         0.0889 
     84 H84       -53.0128  -28.3631    1.0420 H         1 UNK         0.0889 
     85 H85       -51.4161  -26.2688    3.1309 H         1 UNK         0.3028 
     86 H86       -51.5024  -27.7781    5.5678 H         1 UNK         0.0864 
     87 H87       -48.9216  -27.8215    3.8947 H         1 UNK         0.0720 
     88 H88       -49.9354  -29.2087    4.1535 H         1 UNK         0.0720 
     89 H89       -49.1164  -30.8983    6.8962 H         1 UNK         0.0814 
     90 H90       -50.5662  -30.2060    6.2189 H         1 UNK         0.0814 
     91 H91       -48.3888  -30.3074    9.2094 H         1 UNK         0.1469 
     92 H92       -51.3416  -28.5992   11.8071 H         1 UNK         0.1381 
     93 H93       -52.0785  -28.8302    7.5959 H         1 UNK         0.1206 
     94 H94       -53.2461  -27.4155   10.8405 H         1 UNK         0.0813 
     95 H95       -53.4143  -27.3071    9.1076 H         1 UNK         0.0813 
     96 H96       -53.5939  -29.4037   12.1831 H         1 UNK         0.0638 
     97 H97       -54.1013  -30.9569   11.5759 H         1 UNK         0.0638 
     98 H98       -56.4749  -30.3522   11.8919 H         1 UNK         0.0568 
     99 H99       -56.3185  -28.8492   14.9092 H         1 UNK         0.3450 
    100 H100      -55.9398  -30.2876   15.8249 H         1 UNK         0.3450 
    101 H101      -55.4636  -27.7038   12.7313 H         1 UNK         0.2987 
    102 H102      -57.6700  -26.0347   11.6507 H         1 UNK         0.0766 
    103 H103      -59.3459  -25.1317   13.2879 H         1 UNK         0.0798 
    104 H104      -59.3340  -26.6725   14.1447 H         1 UNK         0.0798 
    105 H105      -59.9228  -26.5845   12.4915 H         1 UNK         0.0798 
    106 H106      -56.2263  -25.0550   13.0094 H         1 UNK         0.3198 
    107 H107      -54.7707  -24.6906   14.5460 H         1 UNK         0.0843 
    108 H108      -56.1144  -24.9768   17.2912 H         1 UNK         0.0831 
    109 H109      -56.4507  -23.7054   16.1239 H         1 UNK         0.0831 
    110 H110      -54.8617  -23.8092   16.8657 H         1 UNK         0.0831 
    111 H111      -53.9408  -26.1565   16.8003 H         1 UNK         0.3133 
    112 H112      -52.9664  -28.4516   16.6524 H         1 UNK         0.0566 
    113 H113      -51.1139  -29.6417   15.5180 H         1 UNK         0.0814 
    114 H114      -52.5607  -29.6894   14.5235 H         1 UNK         0.0814 
    115 H115      -51.2537  -28.5826   14.1188 H         1 UNK         0.0814 
    116 H116      -50.5630  -26.9965   15.8087 H         1 UNK         0.3091 
    117 H117      -50.5602  -24.8353   18.6841 H         1 UNK         0.0702 
    118 H118      -48.2304  -25.6733   18.5521 H         1 UNK         0.0785 
    119 H119      -48.7213  -26.9672   17.4623 H         1 UNK         0.0785 
    120 H120      -49.3059  -26.9398   19.1204 H         1 UNK         0.0785 
    121 H121      -49.4408  -25.1155   15.9343 H         1 UNK         0.2998 
    122 H122      -50.7988  -22.0266   14.8871 H         1 UNK         0.0697 
    123 H123      -47.8487  -22.6230   15.4833 H         1 UNK         0.0825 
    124 H124      -48.7384  -21.2056   16.0236 H         1 UNK         0.0825 
    125 H125      -48.4441  -21.4513   14.3092 H         1 UNK         0.0825 
    126 H126      -48.9839  -23.9193   13.6932 H         1 UNK         0.3029 
    127 H127      -51.3282  -26.3777   12.8587 H         1 UNK         0.0897 
    128 H128      -50.9115  -25.9454   10.4337 H         1 UNK         0.0792 
    129 H129      -50.4459  -24.2823   10.8013 H         1 UNK         0.0792 
    130 H130      -52.0967  -24.8227   11.0773 H         1 UNK         0.0792 
    131 H131      -48.7831  -25.9392   11.7162 H         1 UNK         0.3086 
    132 H132      -46.6814  -26.5241   14.4127 H         1 UNK         0.0583 
    133 H133      -45.8072  -28.5411   13.5020 H         1 UNK         0.1020 
    134 H134      -47.3977  -28.9383   14.0614 H         1 UNK         0.1020 
    135 H135      -48.7391  -30.8236   11.9661 H         1 UNK         0.0694 
    136 H136      -49.3328  -29.3816   12.7532 H         1 UNK         0.0694 
    137 H137      -45.9782  -26.5655   11.7196 H         1 UNK         0.2989 
    138 H138      -46.4438  -23.2491   10.7864 H         1 UNK         0.1055 
    139 H139      -44.4759  -22.7879   12.1979 H         1 UNK         0.0806 
    140 H140      -43.9757  -23.0300   10.5320 H         1 UNK         0.0806 
    141 H141      -43.7251  -24.3026   11.7269 H         1 UNK         0.0806 
    142 H142      -46.3899  -24.6484    9.1280 H         1 UNK         0.3061 
    143 H143      -44.1464  -26.8882    7.9030 H         1 UNK         0.0734 
    144 H144      -45.8055  -28.6727    7.4552 H         1 UNK         0.0832 
    145 H145      -45.2822  -28.7582    9.1270 H         1 UNK         0.0832 
    146 H146      -46.8512  -28.0666    8.7385 H         1 UNK         0.0832 
    147 H147      -46.8563  -26.2812    7.0909 H         1 UNK         0.3156 
    148 H148      -46.3150  -23.0394    5.9442 H         1 UNK         0.0589 
    149 H149      -46.4377  -25.4832    4.0924 H         1 UNK         0.0808 
    150 H150      -46.8846  -23.8322    3.6619 H         1 UNK         0.0808 
    151 H151      -45.2127  -24.2227    4.0277 H         1 UNK         0.0808 
    152 H152      -48.4893  -24.6826    5.3447 H         1 UNK         0.3098 
    153 H153      -50.1464  -24.8235    8.4473 H         1 UNK         0.0720 
    154 H154      -51.9623  -23.6279    7.2474 H         1 UNK         0.0791 
    155 H155      -50.8053  -23.0212    6.0629 H         1 UNK         0.0791 
    156 H156      -50.6902  -22.5233    7.7421 H         1 UNK         0.0791 
    157 H157      -50.5623  -26.5740    7.2215 H         1 UNK         0.3028 
@<TRIPOS>BOND
     1    1    2 1    
     2    1   82 1    
     3    1   83 1    
     4    1   84 1    
     5    2    3 2    
     6    2    4 am   BACKBONE|DICT|INTERRES
     7    4    5 1    
     8    4   85 1    
     9    5    6 1    
    10    5   80 1    
    11    5   86 1    
    12    6    7 1    
    13    6   87 1    
    14    6   88 1    
    15    7    8 1    
    16    8    9 1    
    17    8   89 1    
    18    8   90 1    
    19    9   10 ar   
    20    9   14 ar   
    21   10   11 ar   
    22   10   91 1    
    23   11   12 ar   
    24   11   58 1    
    25   12   13 ar   
    26   12   92 1    
    27   13   14 ar   
    28   13   15 1    
    29   14   93 1    
    30   15   16 1    
    31   15   94 1    
    32   15   95 1    
    33   16   17 1    
    34   17   18 1    
    35   17   96 1    
    36   17   97 1    
    37   18   19 1    
    38   18   22 1    
    39   18   98 1    
    40   19   20 am   BACKBONE|DICT|INTERRES
    41   19   21 2    
    42   20   99 1    
    43   20  100 1    
    44   22   23 am   BACKBONE|DICT|INTERRES
    45   22  101 1    
    46   23   24 2    
    47   23   25 1    
    48   25   26 1    
    49   25   27 1    
    50   25  102 1    
    51   26  103 1    
    52   26  104 1    
    53   26  105 1    
    54   27   28 am   BACKBONE|DICT|INTERRES
    55   27  106 1    
    56   28   29 2    
    57   28   30 1    
    58   30   31 1    
    59   30   32 1    
    60   30  107 1    
    61   31  108 1    
    62   31  109 1    
    63   31  110 1    
    64   32   33 am   BACKBONE|DICT|INTERRES
    65   32  111 1    
    66   33   34 2    
    67   33   35 1    
    68   35   36 1    
    69   35   37 1    
    70   35  112 1    
    71   36  113 1    
    72   36  114 1    
    73   36  115 1    
    74   37   38 am   BACKBONE|DICT|INTERRES
    75   37  116 1    
    76   38   39 2    
    77   38   40 1    
    78   40   41 1    
    79   40   42 1    
    80   40  117 1    
    81   41  118 1    
    82   41  119 1    
    83   41  120 1    
    84   42   43 am   BACKBONE|DICT|INTERRES
    85   42  121 1    
    86   43   44 2    
    87   43   45 1    
    88   45   46 1    
    89   45   47 1    
    90   45  122 1    
    91   46  123 1    
    92   46  124 1    
    93   46  125 1    
    94   47   48 am   BACKBONE|DICT|INTERRES
    95   47  126 1    
    96   48   49 2    
    97   48   50 1    
    98   50   51 1    
    99   50   52 1    
   100   50  127 1    
   101   51  128 1    
   102   51  129 1    
   103   51  130 1    
   104   52   53 am   BACKBONE|DICT|INTERRES
   105   52  131 1    
   106   53   54 2    
   107   53   55 1    
   108   55   56 1    
   109   55   59 1    
   110   55  132 1    
   111   56   57 1    
   112   56  133 1    
   113   56  134 1    
   114   57   58 1    
   115   58  135 1    
   116   58  136 1    
   117   59   60 am   BACKBONE|DICT|INTERRES
   118   59  137 1    
   119   60   61 2    
   120   60   62 1    
   121   62   63 1    
   122   62   64 1    
   123   62  138 1    
   124   63  139 1    
   125   63  140 1    
   126   63  141 1    
   127   64   65 am   BACKBONE|DICT|INTERRES
   128   64  142 1    
   129   65   66 2    
   130   65   67 1    
   131   67   68 1    
   132   67   69 1    
   133   67  143 1    
   134   68  144 1    
   135   68  145 1    
   136   68  146 1    
   137   69   70 am   BACKBONE|DICT|INTERRES
   138   69  147 1    
   139   70   71 2    
   140   70   72 1    
   141   72   73 1    
   142   72   74 1    
   143   72  148 1    
   144   73  149 1    
   145   73  150 1    
   146   73  151 1    
   147   74   75 am   BACKBONE|DICT|INTERRES
   148   74  152 1    
   149   75   76 2    
   150   75   77 1    
   151   77   78 1    
   152   77   79 1    
   153   77  153 1    
   154   78  154 1    
   155   78  155 1    
   156   78  156 1    
   157   79   80 am   BACKBONE|DICT|INTERRES
   158   79  157 1    
   159   80   81 2    
@<TRIPOS>SUBSTRUCTURE
     1 UNK         1 GROUP             0       ****    0 ROOT    
