@<TRIPOS>MOLECULE
3R207
157   159    1
SMALL
USER_CHARGES


@<TRIPOS>ATOM
      1 CA        -51.8899  -24.6140    1.2011 C.3       0 UNK        -0.1975 
      2 C         -51.3948  -25.5185    2.3203 C.2       0 UNK         0.4852 
      3 O         -51.1778  -26.7080    2.0880 O.2       0 UNK        -0.5216 
      4 N         -51.2183  -24.9582    3.5266 N.am      1 UNK        -0.4461 
      5 CA        -50.7429  -25.6352    4.7416 C.3       1 UNK         0.0864 
      6 C6        -51.7465  -26.7010    5.2649 C.3       14 UNK        -0.0898 
      7 S7        -51.6523  -26.9162    7.0747 S.3       14 UNK        -0.2598 
      8 C8        -51.2495  -28.6869    7.1881 C.3       14 UNK         0.0286 
      9 C9        -51.0277  -29.1454    8.6239 C.ar      14 UNK        -0.0844 
     10 C10       -49.7677  -29.5891    9.0346 C.ar      14 UNK        -0.0881 
     11 C11       -49.5702  -30.0879   10.3259 C.ar      14 UNK        -0.0643 
     12 C12       -50.6446  -30.1255   11.2201 C.ar      14 UNK        -0.0930 
     13 C13       -51.9107  -29.6806   10.8238 C.ar      14 UNK        -0.0827 
     14 C14       -52.0930  -29.1854    9.5278 C.ar      14 UNK        -0.1249 
     15 C15       -53.0890  -29.7494   11.7839 C.3       14 UNK         0.0141 
     16 S16       -54.3424  -30.9323   11.1957 S.3       14 UNK        -0.2313 
     17 C17       -55.5848  -30.8755   12.5285 C.3       14 UNK        -0.0915 
     18 CA        -56.8149  -29.9873   12.1666 C.3       13 UNK         0.0968 
     19 C         -58.0490  -30.2537   13.0855 C.2       13 UNK         0.5732 
     20 N         -58.8831  -29.2628   13.3781 N.am      13 UNK        -0.7310 
     21 O         -58.2838  -31.3837   13.5084 O.2       13 UNK        -0.5035 
     22 N         -56.4633  -28.5626   11.9981 N.am      13 UNK        -0.4233 
     23 C         -56.0094  -27.7534   12.9652 C.2       13 UNK         0.4989 
     24 O         -55.8328  -28.1206   14.1275 O.2       13 UNK        -0.4996 
     25 CA        -55.6560  -26.3147   12.5361 C.3       12 UNK         0.0216 
     26 CB        -56.8497  -25.5795   11.8875 C.3       12 UNK        -0.1964 
     27 N         -55.0680  -25.5332   13.6322 N.am      12 UNK        -0.4276 
     28 C         -55.6591  -25.0708   14.7457 C.2       12 UNK         0.5020 
     29 O         -56.8732  -25.0936   14.9612 O.2       12 UNK        -0.5489 
     30 CA        -54.6933  -24.5073   15.8050 C.3       11 UNK         0.0294 
     31 CB        -55.3920  -24.0086   17.0883 C.3       11 UNK        -0.2019 
     32 N         -53.6331  -25.4777   16.0995 N.am      11 UNK        -0.4493 
     33 C         -53.7512  -26.6832   16.6786 C.2       11 UNK         0.4932 
     34 O         -54.7702  -27.0960   17.2325 O.2       11 UNK        -0.5029 
     35 CA        -52.5142  -27.5994   16.6218 C.3       10 UNK         0.0280 
     36 CB        -52.6298  -28.5658   15.4314 C.3       10 UNK        -0.1976 
     37 N         -51.2522  -26.8623   16.5183 N.am      10 UNK        -0.4242 
     38 C         -50.7070  -26.1477   17.5133 C.2       10 UNK         0.5072 
     39 O         -51.1657  -26.0988   18.6556 O.2       10 UNK        -0.5224 
     40 CA        -49.4513  -25.3268   17.1718 C.3       9 UNK         0.0343 
     41 CB        -48.1970  -26.2135   17.2063 C.3       9 UNK        -0.2003 
     42 N         -49.5485  -24.6443   15.8771 N.am      9 UNK        -0.4272 
     43 C         -50.4383  -23.6794   15.5951 C.2       9 UNK         0.4988 
     44 O         -51.2476  -23.2330   16.4078 O.2       9 UNK        -0.5108 
     45 CA        -50.4532  -23.1326   14.1596 C.3       8 UNK         0.0248 
     46 CB        -49.3597  -22.0688   13.9741 C.3       8 UNK        -0.2001 
     47 N         -50.3039  -24.1820   13.1505 N.am      8 UNK        -0.4140 
     48 C         -51.2002  -25.1519   12.9181 C.2       8 UNK         0.5028 
     49 O         -52.2818  -25.2415   13.5002 O.2       8 UNK        -0.5428 
     50 CA        -50.8061  -26.2325   11.8991 C.3       7 UNK         0.0264 
     51 CB        -50.9560  -25.7155   10.4629 C.3       7 UNK        -0.1988 
     52 N         -49.4437  -26.7256   12.1081 N.am      7 UNK        -0.4454 
     53 C         -49.0388  -27.3620   13.2172 C.2       7 UNK         0.5027 
     54 O         -49.7861  -27.6415   14.1550 O.2       7 UNK        -0.5083 
     55 CA        -47.5387  -27.6831   13.3464 C.3       6 UNK         0.0844 
     56 C56       -47.1912  -29.1242   12.8994 C.3       14 UNK        -0.0967 
     57 S57       -47.0013  -29.3425   11.0981 S.3       14 UNK        -0.2604 
     58 C58       -48.2102  -30.6480   10.7178 C.3       14 UNK         0.0134 
     59 N         -46.6959  -26.6536   12.7306 N.am      6 UNK        -0.4116 
     60 C         -46.5505  -25.4167   13.2261 C.2       5 UNK         0.5034 
     61 O         -47.0942  -25.0236   14.2589 O.2       5 UNK        -0.5045 
     62 CA        -45.6842  -24.4423   12.4128 C.3       5 UNK         0.0224 
     63 CB        -44.1968  -24.8231   12.4956 C.3       5 UNK        -0.1978 
     64 N         -46.0922  -24.3392   11.0086 N.am      5 UNK        -0.4737 
     65 C         -47.2929  -23.9128   10.5912 C.2       4 UNK         0.5027 
     66 O         -48.2022  -23.5880   11.3514 O.2       4 UNK        -0.5211 
     67 CA        -47.5311  -23.8310    9.0742 C.3       4 UNK         0.0297 
     68 CB        -47.2853  -22.4009    8.5694 C.3       4 UNK        -0.1993 
     69 N         -46.7261  -24.7663    8.2864 N.am      4 UNK        -0.4486 
     70 C         -46.8304  -26.0998    8.3389 C.2       3 UNK         0.4961 
     71 O         -47.5828  -26.6934    9.1113 O.2       3 UNK        -0.5105 
     72 CA        -45.9738  -26.8737    7.3209 C.3       3 UNK         0.0299 
     73 CB        -45.9563  -28.3901    7.5759 C.3       3 UNK        -0.1972 
     74 N         -46.4743  -26.6255    5.9701 N.am      3 UNK        -0.4305 
     75 C         -46.1877  -25.5589    5.2154 C.2       2 UNK         0.5006 
     76 O         -45.3868  -24.6846    5.5498 O.2       2 UNK        -0.5106 
     77 CA        -46.9621  -25.4118    3.8941 C.3       2 UNK         0.0296 
     78 CB        -46.6287  -26.5427    2.8994 C.3       2 UNK        -0.2002 
     79 N         -48.4116  -25.2584    4.0907 N.am      2 UNK        -0.4032 
     80 C         -49.2898  -26.1457    4.5877 C.2       1 UNK         0.5000 
     81 O         -48.9888  -27.2980    4.9097 O.2       1 UNK        -0.5238 
     82 H82       -52.0467  -23.5904    1.5409 H         1 UNK         0.0889 
     83 H83       -52.8345  -24.9882    0.8071 H         1 UNK         0.0889 
     84 H84       -51.1655  -24.5938    0.3873 H         1 UNK         0.0889 
     85 H85       -51.4260  -23.9749    3.6379 H         1 UNK         0.3028 
     86 H86       -50.6906  -24.8440    5.4918 H         1 UNK         0.0864 
     87 H87       -51.6209  -27.6545    4.7483 H         1 UNK         0.0720 
     88 H88       -52.7680  -26.3852    5.0480 H         1 UNK         0.0720 
     89 H89       -50.3647  -28.8899    6.5831 H         1 UNK         0.0814 
     90 H90       -52.0621  -29.2679    6.7498 H         1 UNK         0.0814 
     91 H91       -48.9399  -29.5707    8.3410 H         1 UNK         0.1469 
     92 H92       -50.4987  -30.5182   12.2169 H         1 UNK         0.1381 
     93 H93       -53.0727  -28.8517    9.2139 H         1 UNK         0.1206 
     94 H94       -53.5286  -28.7572   11.8761 H         1 UNK         0.0813 
     95 H95       -52.7592  -30.0411   12.7820 H         1 UNK         0.0813 
     96 H96       -55.1202  -30.5557   13.4620 H         1 UNK         0.0638 
     97 H97       -55.8934  -31.9091   12.6927 H         1 UNK         0.0638 
     98 H98       -57.1586  -30.3104   11.1834 H         1 UNK         0.0568 
     99 H99       -59.6836  -29.4490   13.9611 H         1 UNK         0.3450 
    100 H100      -58.7095  -28.3308   13.0394 H         1 UNK         0.3450 
    101 H101      -56.5855  -28.1945   11.0662 H         1 UNK         0.2987 
    102 H102      -54.8672  -26.3990   11.7869 H         1 UNK         0.0766 
    103 H103      -56.6007  -24.5419   11.6647 H         1 UNK         0.0798 
    104 H104      -57.7292  -25.5803   12.5319 H         1 UNK         0.0798 
    105 H105      -57.1399  -26.0456   10.9457 H         1 UNK         0.0798 
    106 H106      -54.0498  -25.4570   13.5968 H         1 UNK         0.3198 
    107 H107      -54.1989  -23.6484   15.3479 H         1 UNK         0.0843 
    108 H108      -55.9710  -24.7949   17.5729 H         1 UNK         0.0831 
    109 H109      -56.0825  -23.1960   16.8600 H         1 UNK         0.0831 
    110 H110      -54.6689  -23.6287   17.8099 H         1 UNK         0.0831 
    111 H111      -52.7498  -25.2806   15.6443 H         1 UNK         0.3133 
    112 H112      -52.4919  -28.1893   17.5404 H         1 UNK         0.0566 
    113 H113      -51.7966  -29.2682   15.4047 H         1 UNK         0.0814 
    114 H114      -53.5486  -29.1510   15.4901 H         1 UNK         0.0814 
    115 H115      -52.6472  -28.0292   14.4816 H         1 UNK         0.0814 
    116 H116      -50.7674  -26.9147   15.6249 H         1 UNK         0.3091 
    117 H117      -49.3405  -24.5574   17.9388 H         1 UNK         0.0702 
    118 H118      -47.2949  -25.6360   17.0033 H         1 UNK         0.0785 
    119 H119      -48.2533  -27.0190   16.4748 H         1 UNK         0.0785 
    120 H120      -48.0737  -26.6740   18.1873 H         1 UNK         0.0785 
    121 H121      -48.8685  -24.9048   15.1689 H         1 UNK         0.2998 
    122 H122      -51.4217  -22.6547   13.9977 H         1 UNK         0.0697 
    123 H123      -48.3607  -22.4938   14.0804 H         1 UNK         0.0825 
    124 H124      -49.4581  -21.2721   14.7126 H         1 UNK         0.0825 
    125 H125      -49.4210  -21.6071   12.9885 H         1 UNK         0.0825 
    126 H126      -49.4606  -24.1439   12.5799 H         1 UNK         0.3029 
    127 H127      -51.4827  -27.0787   12.0301 H         1 UNK         0.0897 
    128 H128      -50.4062  -24.7892   10.3006 H         1 UNK         0.0792 
    129 H129      -52.0026  -25.5211   10.2264 H         1 UNK         0.0792 
    130 H130      -50.5886  -26.4488    9.7457 H         1 UNK         0.0792 
    131 H131      -48.7749  -26.5640   11.3660 H         1 UNK         0.3086 
    132 H132      -47.3263  -27.6505   14.4167 H         1 UNK         0.0583 
    133 H133      -46.2412  -29.4120   13.3523 H         1 UNK         0.1020 
    134 H134      -47.9193  -29.8345   13.2960 H         1 UNK         0.1020 
    135 H135      -47.8213  -31.2384    9.8869 H         1 UNK         0.0694 
    136 H136      -48.2977  -31.3412   11.5556 H         1 UNK         0.0694 
    137 H137      -46.2594  -26.8961   11.8524 H         1 UNK         0.2989 
    138 H138      -45.8062  -23.4540   12.8622 H         1 UNK         0.1055 
    139 H139      -43.8726  -24.9048   13.5342 H         1 UNK         0.0806 
    140 H140      -43.5683  -24.0686   12.0222 H         1 UNK         0.0806 
    141 H141      -43.9918  -25.7799   12.0139 H         1 UNK         0.0806 
    142 H142      -45.4079  -24.5867   10.3088 H         1 UNK         0.3061 
    143 H143      -48.5802  -24.0761    8.8977 H         1 UNK         0.0734 
    144 H144      -47.5429  -22.3012    7.5147 H         1 UNK         0.0832 
    145 H145      -47.8962  -21.6834    9.1193 H         1 UNK         0.0832 
    146 H146      -46.2433  -22.1026    8.6918 H         1 UNK         0.0832 
    147 H147      -46.1059  -24.3713    7.5884 H         1 UNK         0.3156 
    148 H148      -44.9469  -26.5113    7.4020 H         1 UNK         0.0589 
    149 H149      -46.9525  -28.8240    7.4987 H         1 UNK         0.0808 
    150 H150      -45.3121  -28.9042    6.8626 H         1 UNK         0.0808 
    151 H151      -45.5759  -28.6122    8.5731 H         1 UNK         0.0808 
    152 H152      -47.2421  -27.2128    5.6515 H         1 UNK         0.3098 
    153 H153      -46.6265  -24.4781    3.4397 H         1 UNK         0.0720 
    154 H154      -47.1252  -26.3834    1.9421 H         1 UNK         0.0791 
    155 H155      -46.9274  -27.5241    3.2684 H         1 UNK         0.0791 
    156 H156      -45.5562  -26.5842    2.7052 H         1 UNK         0.0791 
    157 H157      -48.7713  -24.3421    3.8622 H         1 UNK         0.3028 
@<TRIPOS>BOND
     1    1    2 1    
     2    1   82 1    
     3    1   83 1    
     4    1   84 1    
     5    2    3 2    
     6    2    4 am   BACKBONE|DICT|INTERRES
     7    4    5 1    
     8    4   85 1    
     9    5    6 1    
    10    5   80 1    
    11    5   86 1    
    12    6    7 1    
    13    6   87 1    
    14    6   88 1    
    15    7    8 1    
    16    8    9 1    
    17    8   89 1    
    18    8   90 1    
    19    9   10 ar   
    20    9   14 ar   
    21   10   11 ar   
    22   10   91 1    
    23   11   12 ar   
    24   11   58 1    
    25   12   13 ar   
    26   12   92 1    
    27   13   14 ar   
    28   13   15 1    
    29   14   93 1    
    30   15   16 1    
    31   15   94 1    
    32   15   95 1    
    33   16   17 1    
    34   17   18 1    
    35   17   96 1    
    36   17   97 1    
    37   18   19 1    
    38   18   22 1    
    39   18   98 1    
    40   19   20 am   BACKBONE|DICT|INTERRES
    41   19   21 2    
    42   20   99 1    
    43   20  100 1    
    44   22   23 am   BACKBONE|DICT|INTERRES
    45   22  101 1    
    46   23   24 2    
    47   23   25 1    
    48   25   26 1    
    49   25   27 1    
    50   25  102 1    
    51   26  103 1    
    52   26  104 1    
    53   26  105 1    
    54   27   28 am   BACKBONE|DICT|INTERRES
    55   27  106 1    
    56   28   29 2    
    57   28   30 1    
    58   30   31 1    
    59   30   32 1    
    60   30  107 1    
    61   31  108 1    
    62   31  109 1    
    63   31  110 1    
    64   32   33 am   BACKBONE|DICT|INTERRES
    65   32  111 1    
    66   33   34 2    
    67   33   35 1    
    68   35   36 1    
    69   35   37 1    
    70   35  112 1    
    71   36  113 1    
    72   36  114 1    
    73   36  115 1    
    74   37   38 am   BACKBONE|DICT|INTERRES
    75   37  116 1    
    76   38   39 2    
    77   38   40 1    
    78   40   41 1    
    79   40   42 1    
    80   40  117 1    
    81   41  118 1    
    82   41  119 1    
    83   41  120 1    
    84   42   43 am   BACKBONE|DICT|INTERRES
    85   42  121 1    
    86   43   44 2    
    87   43   45 1    
    88   45   46 1    
    89   45   47 1    
    90   45  122 1    
    91   46  123 1    
    92   46  124 1    
    93   46  125 1    
    94   47   48 am   BACKBONE|DICT|INTERRES
    95   47  126 1    
    96   48   49 2    
    97   48   50 1    
    98   50   51 1    
    99   50   52 1    
   100   50  127 1    
   101   51  128 1    
   102   51  129 1    
   103   51  130 1    
   104   52   53 am   BACKBONE|DICT|INTERRES
   105   52  131 1    
   106   53   54 2    
   107   53   55 1    
   108   55   56 1    
   109   55   59 1    
   110   55  132 1    
   111   56   57 1    
   112   56  133 1    
   113   56  134 1    
   114   57   58 1    
   115   58  135 1    
   116   58  136 1    
   117   59   60 am   BACKBONE|DICT|INTERRES
   118   59  137 1    
   119   60   61 2    
   120   60   62 1    
   121   62   63 1    
   122   62   64 1    
   123   62  138 1    
   124   63  139 1    
   125   63  140 1    
   126   63  141 1    
   127   64   65 am   BACKBONE|DICT|INTERRES
   128   64  142 1    
   129   65   66 2    
   130   65   67 1    
   131   67   68 1    
   132   67   69 1    
   133   67  143 1    
   134   68  144 1    
   135   68  145 1    
   136   68  146 1    
   137   69   70 am   BACKBONE|DICT|INTERRES
   138   69  147 1    
   139   70   71 2    
   140   70   72 1    
   141   72   73 1    
   142   72   74 1    
   143   72  148 1    
   144   73  149 1    
   145   73  150 1    
   146   73  151 1    
   147   74   75 am   BACKBONE|DICT|INTERRES
   148   74  152 1    
   149   75   76 2    
   150   75   77 1    
   151   77   78 1    
   152   77   79 1    
   153   77  153 1    
   154   78  154 1    
   155   78  155 1    
   156   78  156 1    
   157   79   80 am   BACKBONE|DICT|INTERRES
   158   79  157 1    
   159   80   81 2    
@<TRIPOS>SUBSTRUCTURE
     1 UNK         1 GROUP             0       ****    0 ROOT    
