@<TRIPOS>MOLECULE
3R207
157   159    1
SMALL
USER_CHARGES


@<TRIPOS>ATOM
      1 CA        -46.7702  -28.3056    7.5210 C.3       0 UNK        -0.1975 
      2 C         -47.2227  -28.5021    6.0817 C.2       0 UNK         0.4852 
      3 O         -46.4748  -29.0512    5.2715 O.2       0 UNK        -0.5216 
      4 N         -48.4343  -28.0420    5.7435 N.am      1 UNK        -0.4461 
      5 CA        -49.0864  -28.2118    4.4351 C.3       1 UNK         0.0864 
      6 C6        -50.6375  -28.1854    4.5449 C.3       14 UNK        -0.0898 
      7 S7        -51.2970  -29.2839    5.8462 S.3       14 UNK        -0.2598 
      8 C8        -51.9351  -28.0452    7.0174 C.3       14 UNK         0.0286 
      9 C9        -52.0877  -28.6206    8.4147 C.ar      14 UNK        -0.0844 
     10 C10       -50.9822  -28.6686    9.2678 C.ar      14 UNK        -0.0881 
     11 C11       -51.1071  -29.1450   10.5798 C.ar      14 UNK        -0.0643 
     12 C12       -52.3589  -29.5899   11.0180 C.ar      14 UNK        -0.0930 
     13 C13       -53.4736  -29.5433   10.1751 C.ar      14 UNK        -0.0827 
     14 C14       -53.3316  -29.0633    8.8707 C.ar      14 UNK        -0.1249 
     15 C15       -54.8374  -29.9747   10.6891 C.3       14 UNK         0.0141 
     16 S16       -55.6960  -28.5650   11.4506 S.3       14 UNK        -0.2313 
     17 C17       -57.1996  -29.3466   12.1202 C.3       14 UNK        -0.0915 
     18 CA        -57.1352  -29.6493   13.6410 C.3       13 UNK         0.0968 
     19 C         -56.2506  -30.8909   13.9516 C.2       13 UNK         0.5732 
     20 N         -55.0598  -30.7300   14.5159 N.am      13 UNK        -0.7310 
     21 O         -56.6600  -32.0182   13.6845 O.2       13 UNK        -0.5035 
     22 N         -56.8015  -28.4606   14.4459 N.am      13 UNK        -0.4233 
     23 C         -57.1411  -28.3243   15.7351 C.2       13 UNK         0.4989 
     24 O         -57.9022  -29.1005   16.3159 O.2       13 UNK        -0.4996 
     25 CA        -56.5454  -27.1558   16.5397 C.3       12 UNK         0.0216 
     26 CB        -55.6696  -27.6938   17.6858 C.3       12 UNK        -0.1964 
     27 N         -55.7326  -26.2340   15.7409 N.am      12 UNK        -0.4276 
     28 C         -56.0172  -24.9393   15.5393 C.2       12 UNK         0.5020 
     29 O         -57.0782  -24.4156   15.8831 O.2       12 UNK        -0.5489 
     30 CA        -54.9378  -24.0506   14.8868 C.3       11 UNK         0.0294 
     31 CB        -54.3287  -23.1034   15.9340 C.3       11 UNK        -0.2019 
     32 N         -53.8550  -24.8040   14.2521 N.am      11 UNK        -0.4493 
     33 C         -53.9648  -25.4377   13.0779 C.2       11 UNK         0.4932 
     34 O         -54.9611  -25.3637   12.3600 O.2       11 UNK        -0.5029 
     35 CA        -52.7868  -26.3324   12.6529 C.3       10 UNK         0.0280 
     36 CB        -51.7876  -25.5492   11.7874 C.3       10 UNK        -0.1976 
     37 N         -52.0843  -26.9576   13.7799 N.am      10 UNK        -0.4242 
     38 C         -52.6339  -27.8105   14.6573 C.2       10 UNK         0.5072 
     39 O         -53.8160  -28.1507   14.6307 O.2       10 UNK        -0.5224 
     40 CA        -51.7375  -28.3453   15.7824 C.3       9 UNK         0.0343 
     41 CB        -50.8943  -29.5405   15.3114 C.3       9 UNK        -0.2003 
     42 N         -50.8656  -27.2971   16.3084 N.am      9 UNK        -0.4272 
     43 C         -51.2106  -26.4542   17.2912 C.2       9 UNK         0.4988 
     44 O         -52.2673  -26.5255   17.9187 O.2       9 UNK        -0.5108 
     45 CA        -50.2150  -25.3297   17.6293 C.3       8 UNK         0.0248 
     46 CB        -49.2315  -25.7911   18.7169 C.3       8 UNK        -0.2001 
     47 N         -49.4645  -24.8355   16.4708 N.am      8 UNK        -0.4140 
     48 C         -50.0157  -24.2258   15.4122 C.2       8 UNK         0.5028 
     49 O         -51.2236  -24.0245   15.2862 O.2       8 UNK        -0.5428 
     50 CA        -49.0617  -23.8059   14.2824 C.3       7 UNK         0.0264 
     51 CB        -48.3692  -22.4785   14.6294 C.3       7 UNK        -0.1988 
     52 N         -48.0471  -24.7980   13.9035 N.am      7 UNK        -0.4454 
     53 C         -48.2404  -26.0990   13.6358 C.2       7 UNK         0.5027 
     54 O         -49.2944  -26.6885   13.8751 O.2       7 UNK        -0.5083 
     55 CA        -47.0644  -26.8573   12.9730 C.3       6 UNK         0.0844 
     56 C56       -47.4146  -28.3123   12.5470 C.3       14 UNK        -0.0967 
     57 S57       -48.3823  -28.4225   10.9953 S.3       14 UNK        -0.2604 
     58 C58       -49.9450  -29.1681   11.5747 C.3       14 UNK         0.0134 
     59 N         -46.5201  -26.1002   11.8429 N.am      6 UNK        -0.4116 
     60 C         -45.6790  -25.0618   11.8954 C.2       5 UNK         0.5034 
     61 O         -45.1867  -24.6309   12.9383 O.2       5 UNK        -0.5045 
     62 CA        -45.4022  -24.3478   10.5629 C.3       5 UNK         0.0224 
     63 CB        -44.2603  -25.0382    9.8002 C.3       5 UNK        -0.1978 
     64 N         -46.5888  -24.2804    9.7029 N.am      5 UNK        -0.4737 
     65 C         -47.6955  -23.5713    9.9641 C.2       4 UNK         0.5027 
     66 O         -47.8308  -22.8718   10.9682 O.2       4 UNK        -0.5211 
     67 CA        -48.8205  -23.6443    8.9104 C.3       4 UNK         0.0297 
     68 CB        -50.0341  -22.7697    9.2767 C.3       4 UNK        -0.1993 
     69 N         -48.3405  -23.2715    7.5736 N.am      4 UNK        -0.4486 
     70 C         -47.6468  -24.0799    6.7647 C.2       3 UNK         0.4961 
     71 O         -47.3593  -25.2441    7.0573 O.2       3 UNK        -0.5105 
     72 CA        -47.1498  -23.4929    5.4389 C.3       3 UNK         0.0299 
     73 CB        -45.8890  -22.6358    5.6554 C.3       3 UNK        -0.1972 
     74 N         -46.8526  -24.6199    4.5649 N.am      3 UNK        -0.4305 
     75 C         -46.7220  -24.6116    3.2340 C.2       2 UNK         0.5006 
     76 O         -46.7500  -23.5921    2.5439 O.2       2 UNK        -0.5106 
     77 CA        -46.5535  -25.9864    2.5561 C.3       2 UNK         0.0296 
     78 CB        -45.0642  -26.3367    2.4086 C.3       2 UNK        -0.2002 
     79 N         -47.2353  -27.0608    3.2875 N.am      2 UNK        -0.4032 
     80 C         -48.5653  -27.1741    3.4121 C.2       1 UNK         0.5000 
     81 O         -49.3593  -26.4631    2.7916 O.2       1 UNK        -0.5238 
     82 H82       -47.5200  -27.7810    8.1121 H         1 UNK         0.0889 
     83 H83       -45.8511  -27.7213    7.5489 H         1 UNK         0.0889 
     84 H84       -46.5801  -29.2691    7.9927 H         1 UNK         0.0889 
     85 H85       -48.9789  -27.5504    6.4361 H         1 UNK         0.3028 
     86 H86       -48.8100  -29.1943    4.0461 H         1 UNK         0.0864 
     87 H87       -51.0816  -28.4940    3.5968 H         1 UNK         0.0720 
     88 H88       -50.9957  -27.1693    4.7210 H         1 UNK         0.0720 
     89 H89       -52.8897  -27.6637    6.6520 H         1 UNK         0.0814 
     90 H90       -51.2612  -27.1882    7.0602 H         1 UNK         0.0814 
     91 H91       -50.0313  -28.3161    8.8979 H         1 UNK         0.1469 
     92 H92       -52.4761  -29.9433   12.0337 H         1 UNK         0.1381 
     93 H93       -54.1934  -29.0140    8.2191 H         1 UNK         0.1206 
     94 H94       -54.7236  -30.7784   11.4174 H         1 UNK         0.0813 
     95 H95       -55.4425  -30.3748    9.8741 H         1 UNK         0.0813 
     96 H96       -58.0270  -28.6615   11.9303 H         1 UNK         0.0638 
     97 H97       -57.4330  -30.2475   11.5497 H         1 UNK         0.0638 
     98 H98       -58.1471  -29.9497   13.9202 H         1 UNK         0.0568 
     99 H99       -54.6902  -29.7954   14.6665 H         1 UNK         0.3450 
    100 H100      -54.4986  -31.5388   14.7257 H         1 UNK         0.3450 
    101 H101      -56.1324  -27.8238   14.0365 H         1 UNK         0.2987 
    102 H102      -57.3904  -26.6278   16.9859 H         1 UNK         0.0766 
    103 H103      -55.2725  -26.8824   18.2962 H         1 UNK         0.0798 
    104 H104      -54.8237  -28.2705   17.3097 H         1 UNK         0.0798 
    105 H105      -56.2408  -28.3457   18.3481 H         1 UNK         0.0798 
    106 H106      -54.8611  -26.6104   15.3813 H         1 UNK         0.3198 
    107 H107      -55.4324  -23.4436   14.1253 H         1 UNK         0.0843 
    108 H108      -53.8074  -23.6543   16.7185 H         1 UNK         0.0831 
    109 H109      -55.0993  -22.4989   16.4143 H         1 UNK         0.0831 
    110 H110      -53.6151  -22.4160   15.4792 H         1 UNK         0.0831 
    111 H111      -52.9606  -24.8200   14.7366 H         1 UNK         0.3133 
    112 H112      -53.1950  -27.1372   12.0424 H         1 UNK         0.0566 
    113 H113      -50.9581  -26.1788   11.4642 H         1 UNK         0.0814 
    114 H114      -52.2717  -25.1656   10.8884 H         1 UNK         0.0814 
    115 H115      -51.3761  -24.6968   12.3252 H         1 UNK         0.0814 
    116 H116      -51.0895  -26.7551   13.8629 H         1 UNK         0.3091 
    117 H117      -52.3951  -28.7046   16.5770 H         1 UNK         0.0702 
    118 H118      -51.5085  -30.2781   14.7925 H         1 UNK         0.0785 
    119 H119      -50.0966  -29.2375   14.6355 H         1 UNK         0.0785 
    120 H120      -50.4298  -30.0455   16.1584 H         1 UNK         0.0785 
    121 H121      -50.0098  -27.1217   15.7952 H         1 UNK         0.2998 
    122 H122      -50.7938  -24.4928   18.0261 H         1 UNK         0.0697 
    123 H123      -48.6009  -26.6113   18.3711 H         1 UNK         0.0825 
    124 H124      -49.7654  -26.1418   19.6014 H         1 UNK         0.0825 
    125 H125      -48.5807  -24.9769   19.0363 H         1 UNK         0.0825 
    126 H126      -48.4638  -24.9699   16.4776 H         1 UNK         0.3029 
    127 H127      -49.6709  -23.6318   13.3949 H         1 UNK         0.0897 
    128 H128      -47.8035  -22.0949   13.7796 H         1 UNK         0.0792 
    129 H129      -47.6818  -22.5866   15.4692 H         1 UNK         0.0792 
    130 H130      -49.0997  -21.7145   14.8996 H         1 UNK         0.0792 
    131 H131      -47.1283  -24.4274   13.6874 H         1 UNK         0.3086 
    132 H132      -46.2895  -26.9273   13.7391 H         1 UNK         0.0583 
    133 H133      -46.4867  -28.8616   12.3811 H         1 UNK         0.1020 
    134 H134      -47.9187  -28.8500   13.3520 H         1 UNK         0.1020 
    135 H135      -49.7530  -30.1973   11.8805 H         1 UNK         0.0694 
    136 H136      -50.2664  -28.6283   12.4621 H         1 UNK         0.0694 
    137 H137      -46.9009  -26.3545   10.9429 H         1 UNK         0.2989 
    138 H138      -45.0952  -23.3255   10.7956 H         1 UNK         0.1055 
    139 H139      -43.3570  -25.0868   10.4101 H         1 UNK         0.0806 
    140 H140      -44.0062  -24.4940    8.8903 H         1 UNK         0.0806 
    141 H141      -44.5194  -26.0596    9.5181 H         1 UNK         0.0806 
    142 H142      -46.5714  -24.8070    8.8345 H         1 UNK         0.3061 
    143 H143      -49.1638  -24.6813    8.8862 H         1 UNK         0.0734 
    144 H144      -50.8393  -22.8834    8.5509 H         1 UNK         0.0832 
    145 H145      -50.4378  -23.0506   10.2505 H         1 UNK         0.0832 
    146 H146      -49.7708  -21.7124    9.3262 H         1 UNK         0.0832 
    147 H147      -48.5010  -22.3160    7.2867 H         1 UNK         0.3156 
    148 H148      -47.9454  -22.8916    4.9946 H         1 UNK         0.0589 
    149 H149      -45.0798  -23.2172    6.0993 H         1 UNK         0.0808 
    150 H150      -45.5239  -22.2188    4.7167 H         1 UNK         0.0808 
    151 H151      -46.0923  -21.7970    6.3220 H         1 UNK         0.0808 
    152 H152      -46.8384  -25.5040    5.0590 H         1 UNK         0.3098 
    153 H153      -46.9923  -25.9210    1.5582 H         1 UNK         0.0720 
    154 H154      -44.9290  -27.2736    1.8681 H         1 UNK         0.0791 
    155 H155      -44.5736  -26.4342    3.3780 H         1 UNK         0.0791 
    156 H156      -44.5351  -25.5627    1.8510 H         1 UNK         0.0791 
    157 H157      -46.6620  -27.6999    3.8309 H         1 UNK         0.3028 
@<TRIPOS>BOND
     1    1    2 1    
     2    1   82 1    
     3    1   83 1    
     4    1   84 1    
     5    2    3 2    
     6    2    4 am   BACKBONE|DICT|INTERRES
     7    4    5 1    
     8    4   85 1    
     9    5    6 1    
    10    5   80 1    
    11    5   86 1    
    12    6    7 1    
    13    6   87 1    
    14    6   88 1    
    15    7    8 1    
    16    8    9 1    
    17    8   89 1    
    18    8   90 1    
    19    9   10 ar   
    20    9   14 ar   
    21   10   11 ar   
    22   10   91 1    
    23   11   12 ar   
    24   11   58 1    
    25   12   13 ar   
    26   12   92 1    
    27   13   14 ar   
    28   13   15 1    
    29   14   93 1    
    30   15   16 1    
    31   15   94 1    
    32   15   95 1    
    33   16   17 1    
    34   17   18 1    
    35   17   96 1    
    36   17   97 1    
    37   18   19 1    
    38   18   22 1    
    39   18   98 1    
    40   19   20 am   BACKBONE|DICT|INTERRES
    41   19   21 2    
    42   20   99 1    
    43   20  100 1    
    44   22   23 am   BACKBONE|DICT|INTERRES
    45   22  101 1    
    46   23   24 2    
    47   23   25 1    
    48   25   26 1    
    49   25   27 1    
    50   25  102 1    
    51   26  103 1    
    52   26  104 1    
    53   26  105 1    
    54   27   28 am   BACKBONE|DICT|INTERRES
    55   27  106 1    
    56   28   29 2    
    57   28   30 1    
    58   30   31 1    
    59   30   32 1    
    60   30  107 1    
    61   31  108 1    
    62   31  109 1    
    63   31  110 1    
    64   32   33 am   BACKBONE|DICT|INTERRES
    65   32  111 1    
    66   33   34 2    
    67   33   35 1    
    68   35   36 1    
    69   35   37 1    
    70   35  112 1    
    71   36  113 1    
    72   36  114 1    
    73   36  115 1    
    74   37   38 am   BACKBONE|DICT|INTERRES
    75   37  116 1    
    76   38   39 2    
    77   38   40 1    
    78   40   41 1    
    79   40   42 1    
    80   40  117 1    
    81   41  118 1    
    82   41  119 1    
    83   41  120 1    
    84   42   43 am   BACKBONE|DICT|INTERRES
    85   42  121 1    
    86   43   44 2    
    87   43   45 1    
    88   45   46 1    
    89   45   47 1    
    90   45  122 1    
    91   46  123 1    
    92   46  124 1    
    93   46  125 1    
    94   47   48 am   BACKBONE|DICT|INTERRES
    95   47  126 1    
    96   48   49 2    
    97   48   50 1    
    98   50   51 1    
    99   50   52 1    
   100   50  127 1    
   101   51  128 1    
   102   51  129 1    
   103   51  130 1    
   104   52   53 am   BACKBONE|DICT|INTERRES
   105   52  131 1    
   106   53   54 2    
   107   53   55 1    
   108   55   56 1    
   109   55   59 1    
   110   55  132 1    
   111   56   57 1    
   112   56  133 1    
   113   56  134 1    
   114   57   58 1    
   115   58  135 1    
   116   58  136 1    
   117   59   60 am   BACKBONE|DICT|INTERRES
   118   59  137 1    
   119   60   61 2    
   120   60   62 1    
   121   62   63 1    
   122   62   64 1    
   123   62  138 1    
   124   63  139 1    
   125   63  140 1    
   126   63  141 1    
   127   64   65 am   BACKBONE|DICT|INTERRES
   128   64  142 1    
   129   65   66 2    
   130   65   67 1    
   131   67   68 1    
   132   67   69 1    
   133   67  143 1    
   134   68  144 1    
   135   68  145 1    
   136   68  146 1    
   137   69   70 am   BACKBONE|DICT|INTERRES
   138   69  147 1    
   139   70   71 2    
   140   70   72 1    
   141   72   73 1    
   142   72   74 1    
   143   72  148 1    
   144   73  149 1    
   145   73  150 1    
   146   73  151 1    
   147   74   75 am   BACKBONE|DICT|INTERRES
   148   74  152 1    
   149   75   76 2    
   150   75   77 1    
   151   77   78 1    
   152   77   79 1    
   153   77  153 1    
   154   78  154 1    
   155   78  155 1    
   156   78  156 1    
   157   79   80 am   BACKBONE|DICT|INTERRES
   158   79  157 1    
   159   80   81 2    
@<TRIPOS>SUBSTRUCTURE
     1 UNK         1 GROUP             0       ****    0 ROOT    
