@<TRIPOS>MOLECULE
3R207
157   159    1
SMALL
USER_CHARGES


@<TRIPOS>ATOM
      1 CA        -45.4633  -27.8842    4.2345 C.3       0 UNK        -0.1975 
      2 C         -46.7197  -27.0557    4.4532 C.2       0 UNK         0.4852 
      3 O         -46.7921  -25.9189    3.9838 O.2       0 UNK        -0.5216 
      4 N         -47.7037  -27.6081    5.1755 N.am      1 UNK        -0.4461 
      5 CA        -48.9860  -26.9762    5.5120 C.3       1 UNK         0.0864 
      6 C6        -49.9130  -27.9390    6.2926 C.3       14 UNK        -0.0898 
      7 S7        -50.2319  -29.4894    5.3801 S.3       14 UNK        -0.2598 
      8 C8        -51.9291  -29.9071    5.9194 C.3       14 UNK         0.0286 
      9 C9        -52.1097  -30.1834    7.4152 C.ar      14 UNK        -0.0844 
     10 C10       -51.0336  -30.4219    8.2795 C.ar      14 UNK        -0.0881 
     11 C11       -51.2377  -30.6116    9.6498 C.ar      14 UNK        -0.0643 
     12 C12       -52.5429  -30.6381   10.1486 C.ar      14 UNK        -0.0930 
     13 C13       -53.6324  -30.4450    9.2951 C.ar      14 UNK        -0.0827 
     14 C14       -53.4069  -30.2049    7.9361 C.ar      14 UNK        -0.1249 
     15 C15       -55.0539  -30.4990    9.8347 C.3       14 UNK         0.0141 
     16 S16       -55.4299  -29.0503   10.8677 S.3       14 UNK        -0.2313 
     17 C17       -55.1357  -29.6750   12.5618 C.3       14 UNK        -0.0915 
     18 CA        -56.2803  -29.2476   13.5199 C.3       13 UNK         0.0968 
     19 C         -56.1898  -29.9345   14.9135 C.2       13 UNK         0.5732 
     20 N         -56.3646  -29.2246   16.0237 N.am      13 UNK        -0.7310 
     21 O         -55.9881  -31.1440   14.9934 O.2       13 UNK        -0.5035 
     22 N         -56.3510  -27.7847   13.6123 N.am      13 UNK        -0.4233 
     23 C         -57.4374  -27.0344   13.4025 C.2       13 UNK         0.4989 
     24 O         -58.5433  -27.4936   13.1104 O.2       13 UNK        -0.4996 
     25 CA        -57.2516  -25.5076   13.5168 C.3       12 UNK         0.0216 
     26 CB        -58.5461  -24.7747   13.9308 C.3       12 UNK        -0.1964 
     27 N         -56.1256  -25.1176   14.3746 N.am      12 UNK        -0.4276 
     28 C         -55.9909  -25.3485   15.6876 C.2       12 UNK         0.5020 
     29 O         -56.8175  -25.9419   16.3848 O.2       12 UNK        -0.5489 
     30 CA        -54.6803  -24.8561   16.3195 C.3       11 UNK         0.0294 
     31 CB        -54.9609  -23.8549   17.4521 C.3       11 UNK        -0.2019 
     32 N         -53.8343  -25.9370   16.8300 N.am      11 UNK        -0.4493 
     33 C         -53.4561  -27.0377   16.1657 C.2       11 UNK         0.4932 
     34 O         -53.8503  -27.3500   15.0416 O.2       11 UNK        -0.5029 
     35 CA        -52.3604  -27.8670   16.8441 C.3       10 UNK         0.0280 
     36 CB        -52.3116  -29.3170   16.3268 C.3       10 UNK        -0.1976 
     37 N         -51.1023  -27.1941   16.5380 N.am      10 UNK        -0.4242 
     38 C         -50.5250  -26.2620   17.3073 C.2       10 UNK         0.5072 
     39 O         -50.8572  -26.0294   18.4706 O.2       10 UNK        -0.5224 
     40 CA        -49.4449  -25.3940   16.6379 C.3       9 UNK         0.0343 
     41 CB        -48.1687  -26.2050   16.3604 C.3       9 UNK        -0.2003 
     42 N         -49.9262  -24.7804   15.3953 N.am      9 UNK        -0.4272 
     43 C         -50.9210  -23.8802   15.3164 C.2       9 UNK         0.4988 
     44 O         -51.4887  -23.3986   16.2963 O.2       9 UNK        -0.5108 
     45 CA        -51.3783  -23.4541   13.9125 C.3       8 UNK         0.0248 
     46 CB        -50.4949  -22.3198   13.3666 C.3       8 UNK        -0.2001 
     47 N         -51.3559  -24.5952   12.9957 N.am      8 UNK        -0.4140 
     48 C         -52.4270  -25.3381   12.6793 C.2       8 UNK         0.5028 
     49 O         -53.5807  -25.0275   12.9860 O.2       8 UNK        -0.5428 
     50 CA        -52.1909  -26.6357   11.8753 C.3       7 UNK         0.0264 
     51 CB        -52.7766  -26.5118   10.4593 C.3       7 UNK        -0.1988 
     52 N         -50.7824  -27.0319   11.7654 N.am      7 UNK        -0.4454 
     53 C         -50.0399  -27.5522   12.7544 C.2       7 UNK         0.5027 
     54 O         -50.4725  -27.7906   13.8794 O.2       7 UNK        -0.5083 
     55 CA        -48.5332  -27.7514   12.4747 C.3       6 UNK         0.0844 
     56 C56       -48.1883  -29.1856   12.0073 C.3       14 UNK        -0.0967 
     57 S57       -48.7449  -29.5510   10.3074 S.3       14 UNK        -0.2604 
     58 C58       -50.0555  -30.7910   10.5945 C.3       14 UNK         0.0134 
     59 N         -47.9847  -26.7261   11.5821 N.am      6 UNK        -0.4116 
     60 C         -47.9484  -25.4150   11.8534 C.2       5 UNK         0.5034 
     61 O         -48.3943  -24.9383   12.8985 O.2       5 UNK        -0.5045 
     62 CA        -47.3901  -24.4760   10.7680 C.3       5 UNK         0.0224 
     63 CB        -46.5726  -23.3111   11.3634 C.3       5 UNK        -0.1978 
     64 N         -46.6466  -25.1600    9.7017 N.am      5 UNK        -0.4737 
     65 C         -45.4744  -25.8077    9.7920 C.2       4 UNK         0.5027 
     66 O         -44.8416  -25.9575   10.8364 O.2       4 UNK        -0.5211 
     67 CA        -44.9195  -26.3894    8.4829 C.3       4 UNK         0.0297 
     68 CB        -45.5328  -27.7716    8.1993 C.3       4 UNK        -0.1993 
     69 N         -45.1730  -25.4889    7.3552 N.am      4 UNK        -0.4486 
     70 C         -44.4193  -24.4187    7.0612 C.2       3 UNK         0.4961 
     71 O         -43.3718  -24.1401    7.6454 O.2       3 UNK        -0.5105 
     72 CA        -44.9059  -23.4965    5.9285 C.3       3 UNK         0.0299 
     73 CB        -44.1819  -23.8270    4.6132 C.3       3 UNK        -0.1972 
     74 N         -46.3561  -23.5661    5.7256 N.am      3 UNK        -0.4305 
     75 C         -47.2507  -22.9267    6.4967 C.2       2 UNK         0.5006 
     76 O         -46.9398  -22.1608    7.4091 O.2       2 UNK        -0.5106 
     77 CA        -48.7460  -23.1947    6.2322 C.3       2 UNK         0.0296 
     78 CB        -49.3255  -22.1243    5.2934 C.3       2 UNK        -0.2002 
     79 N         -49.0272  -24.5253    5.6839 N.am      2 UNK        -0.4032 
     80 C         -48.7518  -25.6780    6.3087 C.2       1 UNK         0.5000 
     81 O         -48.2612  -25.7401    7.4388 O.2       1 UNK        -0.5238 
     82 H82       -45.5671  -28.8940    4.6310 H         1 UNK         0.0889 
     83 H83       -44.6126  -27.4118    4.7248 H         1 UNK         0.0889 
     84 H84       -45.2452  -27.9594    3.1696 H         1 UNK         0.0889 
     85 H85       -47.5914  -28.5481    5.5272 H         1 UNK         0.3028 
     86 H86       -49.4796  -26.7229    4.5714 H         1 UNK         0.0864 
     87 H87       -50.8672  -27.4535    6.5068 H         1 UNK         0.0720 
     88 H88       -49.4751  -28.1925    7.2602 H         1 UNK         0.0720 
     89 H89       -52.2537  -30.7897    5.3670 H         1 UNK         0.0814 
     90 H90       -52.5930  -29.0954    5.6178 H         1 UNK         0.0814 
     91 H91       -50.0219  -30.4363    7.9021 H         1 UNK         0.1469 
     92 H92       -52.7153  -30.8026   11.2032 H         1 UNK         0.1381 
     93 H93       -54.2479  -30.0381    7.2765 H         1 UNK         0.1206 
     94 H94       -55.2096  -31.4266   10.3862 H         1 UNK         0.0813 
     95 H95       -55.7690  -30.5212    9.0110 H         1 UNK         0.0813 
     96 H96       -54.1752  -29.2975   12.9162 H         1 UNK         0.0638 
     97 H97       -55.0458  -30.7616   12.5361 H         1 UNK         0.0638 
     98 H98       -57.2109  -29.6253   13.0935 H         1 UNK         0.0568 
     99 H99       -56.5381  -28.2299   15.9774 H         1 UNK         0.3450 
    100 H100      -56.3219  -29.6890   16.9160 H         1 UNK         0.3450 
    101 H101      -55.4895  -27.3404   13.9171 H         1 UNK         0.2987 
    102 H102      -56.9894  -25.1685   12.5136 H         1 UNK         0.0766 
    103 H103      -58.3899  -23.6979   13.9937 H         1 UNK         0.0798 
    104 H104      -58.9147  -25.1179   14.8980 H         1 UNK         0.0798 
    105 H105      -59.3413  -24.9426   13.2035 H         1 UNK         0.0798 
    106 H106      -55.3062  -24.7706   13.8774 H         1 UNK         0.3198 
    107 H107      -54.0992  -24.3360   15.5561 H         1 UNK         0.0843 
    108 H108      -55.4852  -24.3250   18.2851 H         1 UNK         0.0831 
    109 H109      -55.5824  -23.0308   17.0990 H         1 UNK         0.0831 
    110 H110      -54.0371  -23.4205   17.8354 H         1 UNK         0.0831 
    111 H111      -53.4114  -25.7736   17.7331 H         1 UNK         0.3133 
    112 H112      -52.5414  -27.8917   17.9207 H         1 UNK         0.0566 
    113 H113      -51.5167  -29.8829   16.8121 H         1 UNK         0.0814 
    114 H114      -53.2514  -29.8317   16.5303 H         1 UNK         0.0814 
    115 H115      -52.1442  -29.3639   15.2501 H         1 UNK         0.0814 
    116 H116      -50.7859  -27.3028   15.5744 H         1 UNK         0.3091 
    117 H117      -49.1892  -24.5865   17.3270 H         1 UNK         0.0702 
    118 H118      -47.3974  -25.5871   15.8997 H         1 UNK         0.0785 
    119 H119      -48.3593  -27.0505   15.7001 H         1 UNK         0.0785 
    120 H120      -47.7546  -26.6045   17.2871 H         1 UNK         0.0785 
    121 H121      -49.4500  -25.0498   14.5409 H         1 UNK         0.2998 
    122 H122      -52.3953  -23.0657   13.9982 H         1 UNK         0.0697 
    123 H123      -49.4439  -22.6024   13.3153 H         1 UNK         0.0825 
    124 H124      -50.5599  -21.4390   14.0067 H         1 UNK         0.0825 
    125 H125      -50.8102  -22.0179   12.3678 H         1 UNK         0.0825 
    126 H126      -50.4403  -24.9113   12.7026 H         1 UNK         0.3029 
    127 H127      -52.7265  -27.4306   12.3985 H         1 UNK         0.0897 
    128 H128      -53.8377  -26.2612   10.4975 H         1 UNK         0.0792 
    129 H129      -52.6904  -27.4513    9.9117 H         1 UNK         0.0792 
    130 H130      -52.2771  -25.7347    9.8797 H         1 UNK         0.0792 
    131 H131      -50.3415  -26.8883   10.8684 H         1 UNK         0.3086 
    132 H132      -48.0298  -27.6123   13.4331 H         1 UNK         0.0583 
    133 H133      -47.1052  -29.3169   12.0297 H         1 UNK         0.1020 
    134 H134      -48.5756  -29.9240   12.7116 H         1 UNK         0.1020 
    135 H135      -49.6378  -31.7902   10.4650 H         1 UNK         0.0694 
    136 H136      -50.4011  -30.7282   11.6272 H         1 UNK         0.0694 
    137 H137      -47.6211  -27.0464   10.6966 H         1 UNK         0.2989 
    138 H138      -48.2650  -24.0411   10.2821 H         1 UNK         0.1055 
    139 H139      -47.1808  -22.7099   12.0402 H         1 UNK         0.0806 
    140 H140      -46.2077  -22.6452   10.5811 H         1 UNK         0.0806 
    141 H141      -45.7128  -23.6663   11.9319 H         1 UNK         0.0806 
    142 H142      -47.1257  -25.1919    8.8032 H         1 UNK         0.3061 
    143 H143      -43.8413  -26.5179    8.6021 H         1 UNK         0.0734 
    144 H144      -45.1048  -28.2181    7.3023 H         1 UNK         0.0832 
    145 H145      -45.3376  -28.4585    9.0241 H         1 UNK         0.0832 
    146 H146      -46.6142  -27.7252    8.0693 H         1 UNK         0.0832 
    147 H147      -46.0498  -25.6080    6.8677 H         1 UNK         0.3156 
    148 H148      -44.6421  -22.4726    6.2023 H         1 UNK         0.0589 
    149 H149      -44.3607  -24.8537    4.2949 H         1 UNK         0.0808 
    150 H150      -44.5000  -23.1654    3.8073 H         1 UNK         0.0808 
    151 H151      -43.1033  -23.7065    4.7236 H         1 UNK         0.0808 
    152 H152      -46.6830  -24.1981    4.9994 H         1 UNK         0.3098 
    153 H153      -49.2614  -23.1212    7.1923 H         1 UNK         0.0720 
    154 H154      -50.4025  -22.2424    5.1721 H         1 UNK         0.0791 
    155 H155      -48.8681  -22.1641    4.3039 H         1 UNK         0.0791 
    156 H156      -49.1547  -21.1227    5.6912 H         1 UNK         0.0791 
    157 H157      -49.3880  -24.5575    4.7409 H         1 UNK         0.3028 
@<TRIPOS>BOND
     1    1    2 1    
     2    1   82 1    
     3    1   83 1    
     4    1   84 1    
     5    2    3 2    
     6    2    4 am   BACKBONE|DICT|INTERRES
     7    4    5 1    
     8    4   85 1    
     9    5    6 1    
    10    5   80 1    
    11    5   86 1    
    12    6    7 1    
    13    6   87 1    
    14    6   88 1    
    15    7    8 1    
    16    8    9 1    
    17    8   89 1    
    18    8   90 1    
    19    9   10 ar   
    20    9   14 ar   
    21   10   11 ar   
    22   10   91 1    
    23   11   12 ar   
    24   11   58 1    
    25   12   13 ar   
    26   12   92 1    
    27   13   14 ar   
    28   13   15 1    
    29   14   93 1    
    30   15   16 1    
    31   15   94 1    
    32   15   95 1    
    33   16   17 1    
    34   17   18 1    
    35   17   96 1    
    36   17   97 1    
    37   18   19 1    
    38   18   22 1    
    39   18   98 1    
    40   19   20 am   BACKBONE|DICT|INTERRES
    41   19   21 2    
    42   20   99 1    
    43   20  100 1    
    44   22   23 am   BACKBONE|DICT|INTERRES
    45   22  101 1    
    46   23   24 2    
    47   23   25 1    
    48   25   26 1    
    49   25   27 1    
    50   25  102 1    
    51   26  103 1    
    52   26  104 1    
    53   26  105 1    
    54   27   28 am   BACKBONE|DICT|INTERRES
    55   27  106 1    
    56   28   29 2    
    57   28   30 1    
    58   30   31 1    
    59   30   32 1    
    60   30  107 1    
    61   31  108 1    
    62   31  109 1    
    63   31  110 1    
    64   32   33 am   BACKBONE|DICT|INTERRES
    65   32  111 1    
    66   33   34 2    
    67   33   35 1    
    68   35   36 1    
    69   35   37 1    
    70   35  112 1    
    71   36  113 1    
    72   36  114 1    
    73   36  115 1    
    74   37   38 am   BACKBONE|DICT|INTERRES
    75   37  116 1    
    76   38   39 2    
    77   38   40 1    
    78   40   41 1    
    79   40   42 1    
    80   40  117 1    
    81   41  118 1    
    82   41  119 1    
    83   41  120 1    
    84   42   43 am   BACKBONE|DICT|INTERRES
    85   42  121 1    
    86   43   44 2    
    87   43   45 1    
    88   45   46 1    
    89   45   47 1    
    90   45  122 1    
    91   46  123 1    
    92   46  124 1    
    93   46  125 1    
    94   47   48 am   BACKBONE|DICT|INTERRES
    95   47  126 1    
    96   48   49 2    
    97   48   50 1    
    98   50   51 1    
    99   50   52 1    
   100   50  127 1    
   101   51  128 1    
   102   51  129 1    
   103   51  130 1    
   104   52   53 am   BACKBONE|DICT|INTERRES
   105   52  131 1    
   106   53   54 2    
   107   53   55 1    
   108   55   56 1    
   109   55   59 1    
   110   55  132 1    
   111   56   57 1    
   112   56  133 1    
   113   56  134 1    
   114   57   58 1    
   115   58  135 1    
   116   58  136 1    
   117   59   60 am   BACKBONE|DICT|INTERRES
   118   59  137 1    
   119   60   61 2    
   120   60   62 1    
   121   62   63 1    
   122   62   64 1    
   123   62  138 1    
   124   63  139 1    
   125   63  140 1    
   126   63  141 1    
   127   64   65 am   BACKBONE|DICT|INTERRES
   128   64  142 1    
   129   65   66 2    
   130   65   67 1    
   131   67   68 1    
   132   67   69 1    
   133   67  143 1    
   134   68  144 1    
   135   68  145 1    
   136   68  146 1    
   137   69   70 am   BACKBONE|DICT|INTERRES
   138   69  147 1    
   139   70   71 2    
   140   70   72 1    
   141   72   73 1    
   142   72   74 1    
   143   72  148 1    
   144   73  149 1    
   145   73  150 1    
   146   73  151 1    
   147   74   75 am   BACKBONE|DICT|INTERRES
   148   74  152 1    
   149   75   76 2    
   150   75   77 1    
   151   77   78 1    
   152   77   79 1    
   153   77  153 1    
   154   78  154 1    
   155   78  155 1    
   156   78  156 1    
   157   79   80 am   BACKBONE|DICT|INTERRES
   158   79  157 1    
   159   80   81 2    
@<TRIPOS>SUBSTRUCTURE
     1 UNK         1 GROUP             0       ****    0 ROOT    
