@<TRIPOS>MOLECULE
3R207
157   159    1
SMALL
USER_CHARGES


@<TRIPOS>ATOM
      1 CA        -48.8881  -31.5446    4.9764 C.3       0 UNK        -0.1975 
      2 C         -49.2914  -30.1220    5.3330 C.2       0 UNK         0.4852 
      3 O         -48.9347  -29.6422    6.4090 O.2       0 UNK        -0.5216 
      4 N         -50.0178  -29.4463    4.4302 N.am      1 UNK        -0.4461 
      5 CA        -50.5826  -28.0884    4.5328 C.3       1 UNK         0.0864 
      6 C6        -51.5647  -27.8999    5.7157 C.3       14 UNK        -0.0898 
      7 S7        -53.0331  -28.9834    5.6250 S.3       14 UNK        -0.2598 
      8 C8        -52.8287  -30.0557    7.0947 C.3       14 UNK         0.0286 
      9 C9        -52.6128  -29.3265    8.4234 C.ar      14 UNK        -0.0844 
     10 C10       -53.0382  -28.0088    8.6352 C.ar      14 UNK        -0.0881 
     11 C11       -52.7358  -27.3427    9.8245 C.ar      14 UNK        -0.0643 
     12 C12       -52.0526  -28.0206   10.8385 C.ar      14 UNK        -0.0930 
     13 C13       -51.6578  -29.3481   10.6600 C.ar      14 UNK        -0.0827 
     14 C14       -51.9363  -29.9909    9.4506 C.ar      14 UNK        -0.1249 
     15 C15       -50.8816  -30.0786   11.7448 C.3       14 UNK         0.0141 
     16 S16       -51.9094  -31.2961   12.6232 S.3       14 UNK        -0.2313 
     17 C17       -52.7330  -30.2873   13.8992 C.3       14 UNK        -0.0915 
     18 CA        -54.2785  -30.3474   13.7862 C.3       13 UNK         0.0968 
     19 C         -54.9800  -29.9756   15.1269 C.2       13 UNK         0.5732 
     20 N         -55.9479  -29.0673   15.1644 N.am      13 UNK        -0.7310 
     21 O         -54.6543  -30.5458   16.1655 O.2       13 UNK        -0.5035 
     22 N         -54.7517  -29.5662   12.6364 N.am      13 UNK        -0.4233 
     23 C         -55.8048  -29.8844   11.8749 C.2       13 UNK         0.4989 
     24 O         -56.4390  -30.9351   11.9909 O.2       13 UNK        -0.4996 
     25 CA        -56.2301  -28.8458   10.8136 C.3       12 UNK         0.0216 
     26 CB        -57.6923  -29.0284   10.3539 C.3       12 UNK        -0.1964 
     27 N         -55.9927  -27.4522   11.2187 N.am      12 UNK        -0.4276 
     28 C         -56.4520  -26.8378   12.3190 C.2       12 UNK         0.5020 
     29 O         -57.1780  -27.3700   13.1609 O.2       12 UNK        -0.5489 
     30 CA        -55.9806  -25.3896   12.5412 C.3       11 UNK         0.0294 
     31 CB        -57.1826  -24.4322   12.5977 C.3       11 UNK        -0.2019 
     32 N         -55.1838  -25.2360   13.7643 N.am      11 UNK        -0.4493 
     33 C         -54.1073  -25.9571   14.1098 C.2       11 UNK         0.4932 
     34 O         -53.6252  -26.8600   13.4200 O.2       11 UNK        -0.5029 
     35 CA        -53.4682  -25.6132   15.4614 C.3       10 UNK         0.0280 
     36 CB        -54.4058  -25.9664   16.6334 C.3       10 UNK        -0.1976 
     37 N         -52.2159  -26.3519   15.5874 N.am      10 UNK        -0.4242 
     38 C         -51.2093  -26.0720   16.4223 C.2       10 UNK         0.5072 
     39 O         -51.2134  -25.1180   17.2024 O.2       10 UNK        -0.5224 
     40 CA        -50.0064  -27.0304   16.4233 C.3       9 UNK         0.0343 
     41 CB        -50.2498  -28.3567   15.6760 C.3       9 UNK        -0.2003 
     42 N         -48.8480  -26.3606   15.8385 N.am      9 UNK        -0.4272 
     43 C         -47.8143  -25.8693   16.5336 C.2       9 UNK         0.4988 
     44 O         -47.7085  -25.9371   17.7594 O.2       9 UNK        -0.5108 
     45 CA        -46.6884  -25.2061   15.7240 C.3       8 UNK         0.0248 
     46 CB        -45.7926  -26.2730   15.0732 C.3       8 UNK        -0.2001 
     47 N         -47.1823  -24.2811   14.7016 N.am      8 UNK        -0.4140 
     48 C         -47.7703  -23.1042   14.9643 C.2       8 UNK         0.5028 
     49 O         -47.9332  -22.6560   16.0999 O.2       8 UNK        -0.5428 
     50 CA        -48.2533  -22.2780   13.7594 C.3       7 UNK         0.0264 
     51 CB        -47.0882  -21.4979   13.1294 C.3       7 UNK        -0.1988 
     52 N         -48.9067  -23.0950   12.7362 N.am      7 UNK        -0.4454 
     53 C         -50.0849  -23.7154   12.8971 C.2       7 UNK         0.5027 
     54 O         -50.7870  -23.6051   13.9016 O.2       7 UNK        -0.5083 
     55 CA        -50.5541  -24.6263   11.7472 C.3       6 UNK         0.0844 
     56 C56       -51.3376  -23.8105   10.6893 C.3       14 UNK        -0.0967 
     57 S57       -51.8642  -24.7945    9.2466 S.3       14 UNK        -0.2604 
     58 C58       -53.1206  -25.8815    9.9855 C.3       14 UNK         0.0134 
     59 N         -49.4468  -25.3925   11.1713 N.am      6 UNK        -0.4116 
     60 C         -48.7516  -26.3363   11.8194 C.2       5 UNK         0.5034 
     61 O         -48.9877  -26.6972   12.9718 O.2       5 UNK        -0.5045 
     62 CA        -47.5516  -26.9352   11.0725 C.3       5 UNK         0.0224 
     63 CB        -48.0005  -28.0506   10.1146 C.3       5 UNK        -0.1978 
     64 N         -46.8089  -25.9075   10.3379 N.am      5 UNK        -0.4737 
     65 C         -46.0755  -24.9538   10.9331 C.2       4 UNK         0.5027 
     66 O         -45.9238  -24.8763   12.1508 O.2       4 UNK        -0.5211 
     67 CA        -45.4396  -23.8791   10.0348 C.3       4 UNK         0.0297 
     68 CB        -44.0514  -24.3330    9.5576 C.3       4 UNK        -0.1993 
     69 N         -46.2645  -23.5320    8.8773 N.am      4 UNK        -0.4486 
     70 C         -47.4985  -23.0111    8.9383 C.2       3 UNK         0.4961 
     71 O         -48.0564  -22.6940    9.9887 O.2       3 UNK        -0.5105 
     72 CA        -48.2565  -22.8707    7.6054 C.3       3 UNK         0.0299 
     73 CB        -48.0841  -21.4539    7.0366 C.3       3 UNK        -0.1972 
     74 N         -47.8590  -23.8600    6.5934 N.am      3 UNK        -0.4305 
     75 C         -47.9972  -25.1855    6.7365 C.2       2 UNK         0.5006 
     76 O         -48.4553  -25.7187    7.7486 O.2       2 UNK        -0.5106 
     77 CA        -47.4739  -26.0683    5.5954 C.3       2 UNK         0.0296 
     78 CB        -46.1393  -26.7204    5.9932 C.3       2 UNK        -0.2002 
     79 N         -48.4495  -27.1145    5.3044 N.am      2 UNK        -0.4032 
     80 C         -49.5354  -26.9529    4.5409 C.2       1 UNK         0.5000 
     81 O         -49.7420  -25.9437    3.8632 O.2       1 UNK        -0.5238 
     82 H82       -49.2676  -31.8453    4.0000 H         1 UNK         0.0889 
     83 H83       -49.2768  -32.2399    5.7199 H         1 UNK         0.0889 
     84 H84       -47.8021  -31.6336    4.9612 H         1 UNK         0.0889 
     85 H85       -50.2375  -29.9123    3.5607 H         1 UNK         0.3028 
     86 H86       -51.1561  -27.9516    3.6143 H         1 UNK         0.0864 
     87 H87       -51.9377  -26.8738    5.7407 H         1 UNK         0.0720 
     88 H88       -51.0420  -28.0427    6.6624 H         1 UNK         0.0720 
     89 H89       -51.9850  -30.7210    6.9047 H         1 UNK         0.0814 
     90 H90       -53.7095  -30.6921    7.1866 H         1 UNK         0.0814 
     91 H91       -53.5635  -27.4743    7.8568 H         1 UNK         0.1469 
     92 H92       -51.8090  -27.5130   11.7599 H         1 UNK         0.1381 
     93 H93       -51.6057  -31.0102    9.3042 H         1 UNK         0.1206 
     94 H94       -50.0468  -30.6086   11.2844 H         1 UNK         0.0813 
     95 H95       -50.4369  -29.3779   12.4529 H         1 UNK         0.0813 
     96 H96       -52.3910  -29.2543   13.8442 H         1 UNK         0.0638 
     97 H97       -52.3897  -30.6731   14.8604 H         1 UNK         0.0638 
     98 H98       -54.5468  -31.3932   13.6260 H         1 UNK         0.0568 
     99 H99       -56.2673  -28.5861   14.3288 H         1 UNK         0.3450 
    100 H100      -56.3911  -28.8704   16.0464 H         1 UNK         0.3450 
    101 H101      -54.3135  -28.6601   12.5203 H         1 UNK         0.2987 
    102 H102      -55.5879  -29.0271    9.9504 H         1 UNK         0.0766 
    103 H103      -57.8504  -30.0206    9.9293 H         1 UNK         0.0798 
    104 H104      -57.9601  -28.3038    9.5850 H         1 UNK         0.0798 
    105 H105      -58.3922  -28.9129   11.1822 H         1 UNK         0.0798 
    106 H106      -55.3751  -26.9353   10.6111 H         1 UNK         0.3198 
    107 H107      -55.3582  -25.0817   11.7016 H         1 UNK         0.0843 
    108 H108      -57.8315  -24.6491   13.4475 H         1 UNK         0.0831 
    109 H109      -57.7907  -24.5159   11.6958 H         1 UNK         0.0831 
    110 H110      -56.8626  -23.3930   12.6749 H         1 UNK         0.0831 
    111 H111      -55.5096  -24.5358   14.4145 H         1 UNK         0.3133 
    112 H112      -53.2508  -24.5432   15.4685 H         1 UNK         0.0566 
    113 H113      -54.6103  -27.0366   16.6726 H         1 UNK         0.0814 
    114 H114      -55.3642  -25.4529   16.5510 H         1 UNK         0.0814 
    115 H115      -53.9721  -25.6771   17.5906 H         1 UNK         0.0814 
    116 H116      -52.1234  -27.1088   14.9223 H         1 UNK         0.3091 
    117 H117      -49.8127  -27.2822   17.4680 H         1 UNK         0.0702 
    118 H118      -49.3928  -29.0227   15.7780 H         1 UNK         0.0785 
    119 H119      -50.4150  -28.2032   14.6102 H         1 UNK         0.0785 
    120 H120      -51.1126  -28.8849   16.0837 H         1 UNK         0.0785 
    121 H121      -48.8500  -26.2731   14.8250 H         1 UNK         0.2998 
    122 H122      -46.0731  -24.6334   16.4213 H         1 UNK         0.0697 
    123 H123      -44.9299  -25.8204   14.5842 H         1 UNK         0.0825 
    124 H124      -46.3338  -26.8534   14.3250 H         1 UNK         0.0825 
    125 H125      -45.4120  -26.9728   15.8184 H         1 UNK         0.0825 
    126 H126      -47.0077  -24.5383   13.7338 H         1 UNK         0.3029 
    127 H127      -48.9857  -21.5555   14.1262 H         1 UNK         0.0897 
    128 H128      -46.3147  -22.1646   12.7479 H         1 UNK         0.0792 
    129 H129      -46.6190  -20.8401   13.8621 H         1 UNK         0.0792 
    130 H130      -47.4289  -20.8738   12.3028 H         1 UNK         0.0792 
    131 H131      -48.4399  -23.1661   11.8355 H         1 UNK         0.3086 
    132 H132      -51.2409  -25.3464   12.1937 H         1 UNK         0.0583 
    133 H133      -52.2208  -23.3514   11.1383 H         1 UNK         0.1020 
    134 H134      -50.7297  -22.9846   10.3150 H         1 UNK         0.1020 
    135 H135      -53.2523  -25.6446   11.0400 H         1 UNK         0.0694 
    136 H136      -54.0774  -25.6868    9.4996 H         1 UNK         0.0694 
    137 H137      -49.1950  -25.1730   10.2170 H         1 UNK         0.2989 
    138 H138      -46.8803  -27.3733   11.8146 H         1 UNK         0.1055 
    139 H139      -47.1664  -28.4367    9.5286 H         1 UNK         0.0806 
    140 H140      -48.7705  -27.7129    9.4194 H         1 UNK         0.0806 
    141 H141      -48.4179  -28.8887   10.6714 H         1 UNK         0.0806 
    142 H142      -46.9611  -25.8648    9.3374 H         1 UNK         0.3061 
    143 H143      -45.3168  -22.9759   10.6358 H         1 UNK         0.0734 
    144 H144      -44.1096  -25.2217    8.9277 H         1 UNK         0.0832 
    145 H145      -43.5494  -23.5493    8.9901 H         1 UNK         0.0832 
    146 H146      -43.4099  -24.5771   10.4057 H         1 UNK         0.0832 
    147 H147      -45.8883  -23.7505    7.9668 H         1 UNK         0.3156 
    148 H148      -49.3164  -23.0266    7.8187 H         1 UNK         0.0589 
    149 H149      -48.6914  -21.3074    6.1432 H         1 UNK         0.0808 
    150 H150      -47.0455  -21.2448    6.7769 H         1 UNK         0.0808 
    151 H151      -48.3956  -20.7022    7.7636 H         1 UNK         0.0808 
    152 H152      -47.4680  -23.4992    5.7344 H         1 UNK         0.3098 
    153 H153      -47.3142  -25.4603    4.7023 H         1 UNK         0.0720 
    154 H154      -45.3812  -25.9658    6.2064 H         1 UNK         0.0791 
    155 H155      -45.7530  -27.3498    5.1913 H         1 UNK         0.0791 
    156 H156      -46.2429  -27.3420    6.8842 H         1 UNK         0.0791 
    157 H157      -48.4122  -27.9572    5.8749 H         1 UNK         0.3028 
@<TRIPOS>BOND
     1    1    2 1    
     2    1   82 1    
     3    1   83 1    
     4    1   84 1    
     5    2    3 2    
     6    2    4 am   BACKBONE|DICT|INTERRES
     7    4    5 1    
     8    4   85 1    
     9    5    6 1    
    10    5   80 1    
    11    5   86 1    
    12    6    7 1    
    13    6   87 1    
    14    6   88 1    
    15    7    8 1    
    16    8    9 1    
    17    8   89 1    
    18    8   90 1    
    19    9   10 ar   
    20    9   14 ar   
    21   10   11 ar   
    22   10   91 1    
    23   11   12 ar   
    24   11   58 1    
    25   12   13 ar   
    26   12   92 1    
    27   13   14 ar   
    28   13   15 1    
    29   14   93 1    
    30   15   16 1    
    31   15   94 1    
    32   15   95 1    
    33   16   17 1    
    34   17   18 1    
    35   17   96 1    
    36   17   97 1    
    37   18   19 1    
    38   18   22 1    
    39   18   98 1    
    40   19   20 am   BACKBONE|DICT|INTERRES
    41   19   21 2    
    42   20   99 1    
    43   20  100 1    
    44   22   23 am   BACKBONE|DICT|INTERRES
    45   22  101 1    
    46   23   24 2    
    47   23   25 1    
    48   25   26 1    
    49   25   27 1    
    50   25  102 1    
    51   26  103 1    
    52   26  104 1    
    53   26  105 1    
    54   27   28 am   BACKBONE|DICT|INTERRES
    55   27  106 1    
    56   28   29 2    
    57   28   30 1    
    58   30   31 1    
    59   30   32 1    
    60   30  107 1    
    61   31  108 1    
    62   31  109 1    
    63   31  110 1    
    64   32   33 am   BACKBONE|DICT|INTERRES
    65   32  111 1    
    66   33   34 2    
    67   33   35 1    
    68   35   36 1    
    69   35   37 1    
    70   35  112 1    
    71   36  113 1    
    72   36  114 1    
    73   36  115 1    
    74   37   38 am   BACKBONE|DICT|INTERRES
    75   37  116 1    
    76   38   39 2    
    77   38   40 1    
    78   40   41 1    
    79   40   42 1    
    80   40  117 1    
    81   41  118 1    
    82   41  119 1    
    83   41  120 1    
    84   42   43 am   BACKBONE|DICT|INTERRES
    85   42  121 1    
    86   43   44 2    
    87   43   45 1    
    88   45   46 1    
    89   45   47 1    
    90   45  122 1    
    91   46  123 1    
    92   46  124 1    
    93   46  125 1    
    94   47   48 am   BACKBONE|DICT|INTERRES
    95   47  126 1    
    96   48   49 2    
    97   48   50 1    
    98   50   51 1    
    99   50   52 1    
   100   50  127 1    
   101   51  128 1    
   102   51  129 1    
   103   51  130 1    
   104   52   53 am   BACKBONE|DICT|INTERRES
   105   52  131 1    
   106   53   54 2    
   107   53   55 1    
   108   55   56 1    
   109   55   59 1    
   110   55  132 1    
   111   56   57 1    
   112   56  133 1    
   113   56  134 1    
   114   57   58 1    
   115   58  135 1    
   116   58  136 1    
   117   59   60 am   BACKBONE|DICT|INTERRES
   118   59  137 1    
   119   60   61 2    
   120   60   62 1    
   121   62   63 1    
   122   62   64 1    
   123   62  138 1    
   124   63  139 1    
   125   63  140 1    
   126   63  141 1    
   127   64   65 am   BACKBONE|DICT|INTERRES
   128   64  142 1    
   129   65   66 2    
   130   65   67 1    
   131   67   68 1    
   132   67   69 1    
   133   67  143 1    
   134   68  144 1    
   135   68  145 1    
   136   68  146 1    
   137   69   70 am   BACKBONE|DICT|INTERRES
   138   69  147 1    
   139   70   71 2    
   140   70   72 1    
   141   72   73 1    
   142   72   74 1    
   143   72  148 1    
   144   73  149 1    
   145   73  150 1    
   146   73  151 1    
   147   74   75 am   BACKBONE|DICT|INTERRES
   148   74  152 1    
   149   75   76 2    
   150   75   77 1    
   151   77   78 1    
   152   77   79 1    
   153   77  153 1    
   154   78  154 1    
   155   78  155 1    
   156   78  156 1    
   157   79   80 am   BACKBONE|DICT|INTERRES
   158   79  157 1    
   159   80   81 2    
@<TRIPOS>SUBSTRUCTURE
     1 UNK         1 GROUP             0       ****    0 ROOT    
