@<TRIPOS>MOLECULE
3R207
157   159    1
SMALL
USER_CHARGES


@<TRIPOS>ATOM
      1 CA        -49.1360  -30.6123    0.8078 C.3       0 UNK        -0.1975 
      2 C         -48.7329  -30.1887    2.2128 C.2       0 UNK         0.4852 
      3 O         -47.5603  -29.8912    2.4445 O.2       0 UNK        -0.5216 
      4 N         -49.6975  -30.1631    3.1433 N.am      1 UNK        -0.4461 
      5 CA        -49.5479  -29.7642    4.5475 C.3       1 UNK         0.0864 
      6 C6        -48.6763  -30.7473    5.3870 C.3       14 UNK        -0.0898 
      7 S7        -49.3836  -32.4099    5.6712 S.3       14 UNK        -0.2598 
      8 C8        -51.1508  -32.1449    6.0852 C.3       14 UNK         0.0286 
      9 C9        -51.4586  -31.0447    7.1059 C.ar      14 UNK        -0.0844 
     10 C10       -50.5483  -30.6561    8.0975 C.ar      14 UNK        -0.0881 
     11 C11       -50.8382  -29.5928    8.9590 C.ar      14 UNK        -0.0643 
     12 C12       -52.0804  -28.9591    8.8707 C.ar      14 UNK        -0.0930 
     13 C13       -53.0218  -29.3721    7.9256 C.ar      14 UNK        -0.0827 
     14 C14       -52.6995  -30.4023    7.0387 C.ar      14 UNK        -0.1249 
     15 C15       -54.3902  -28.7137    7.8736 C.3       14 UNK         0.0141 
     16 S16       -55.5733  -29.6359    8.9038 S.3       14 UNK        -0.2313 
     17 C17       -56.9654  -28.4583    9.0083 C.3       14 UNK        -0.0915 
     18 CA        -57.1123  -27.7986   10.4072 C.3       13 UNK         0.0968 
     19 C         -57.6828  -28.7797   11.4754 C.2       13 UNK         0.5732 
     20 N         -56.9926  -29.0444   12.5788 N.am      13 UNK        -0.7310 
     21 O         -58.7840  -29.2982   11.3053 O.2       13 UNK        -0.5035 
     22 N         -55.8780  -27.0996   10.7957 N.am      13 UNK        -0.4233 
     23 C         -55.8071  -26.0879   11.6653 C.2       13 UNK         0.4989 
     24 O         -56.7831  -25.5902   12.2318 O.2       13 UNK        -0.4996 
     25 CA        -54.4044  -25.5085   11.9001 C.3       12 UNK         0.0216 
     26 CB        -54.0857  -24.4363   10.8467 C.3       12 UNK        -0.1964 
     27 N         -54.2982  -24.9250   13.2369 N.am      12 UNK        -0.4276 
     28 C         -54.0723  -25.6384   14.3448 C.2       12 UNK         0.5020 
     29 O         -53.8436  -26.8514   14.3507 O.2       12 UNK        -0.5489 
     30 CA        -54.1253  -24.8759   15.6720 C.3       11 UNK         0.0294 
     31 CB        -55.5450  -24.9226   16.2680 C.3       11 UNK        -0.2019 
     32 N         -53.1669  -25.4917   16.5828 N.am      11 UNK        -0.4493 
     33 C         -52.6777  -24.9420   17.6988 C.2       11 UNK         0.4932 
     34 O         -52.9881  -23.8232   18.1087 O.2       11 UNK        -0.5029 
     35 CA        -51.6872  -25.7909   18.5028 C.3       10 UNK         0.0280 
     36 CB        -52.2587  -27.1838   18.8414 C.3       10 UNK        -0.1976 
     37 N         -50.4143  -25.9087   17.7925 N.am      10 UNK        -0.4242 
     38 C         -49.2438  -26.1893   18.3807 C.2       10 UNK         0.5072 
     39 O         -49.1117  -26.3716   19.5925 O.2       10 UNK        -0.5224 
     40 CA        -48.0045  -26.2937   17.4751 C.3       9 UNK         0.0343 
     41 CB        -47.9804  -27.6435   16.7397 C.3       9 UNK        -0.2003 
     42 N         -47.8953  -25.1972   16.5108 N.am      9 UNK        -0.4272 
     43 C         -47.6336  -23.9225   16.8373 C.2       9 UNK         0.4988 
     44 O         -47.4336  -23.5362   17.9896 O.2       9 UNK        -0.5108 
     45 CA        -47.5778  -22.9010   15.6876 C.3       8 UNK         0.0248 
     46 CB        -46.1940  -22.9103   15.0181 C.3       8 UNK        -0.2001 
     47 N         -48.6160  -23.1225   14.6797 N.am      8 UNK        -0.4140 
     48 C         -49.9285  -22.9571   14.8987 C.2       8 UNK         0.5028 
     49 O         -50.3999  -22.5122   15.9449 O.2       8 UNK        -0.5428 
     50 CA        -50.8820  -23.3891   13.7716 C.3       7 UNK         0.0264 
     51 CB        -51.0095  -22.2771   12.7195 C.3       7 UNK        -0.1988 
     52 N         -50.4890  -24.6509   13.1335 N.am      7 UNK        -0.4454 
     53 C         -50.3708  -25.8232   13.7786 C.2       7 UNK         0.5027 
     54 O         -50.6326  -25.9739   14.9716 O.2       7 UNK        -0.5083 
     55 CA        -49.7987  -27.0159   12.9919 C.3       6 UNK         0.0844 
     56 C56       -50.8947  -27.7787   12.2127 C.3       14 UNK        -0.0967 
     57 S57       -50.2943  -29.4198   11.6802 S.3       14 UNK        -0.2604 
     58 C58       -49.7945  -29.1129    9.9582 C.3       14 UNK         0.0134 
     59 N         -48.6874  -26.5933   12.1382 N.am      6 UNK        -0.4116 
     60 C         -47.4842  -26.2208   12.5930 C.2       5 UNK         0.5034 
     61 O         -47.1641  -26.2308   13.7813 O.2       5 UNK        -0.5045 
     62 CA        -46.4908  -25.6993   11.5441 C.3       5 UNK         0.0224 
     63 CB        -45.7847  -26.8660   10.8352 C.3       5 UNK        -0.1978 
     64 N         -47.1409  -24.8344   10.5549 N.am      5 UNK        -0.4737 
     65 C         -47.6364  -23.6207   10.8429 C.2       4 UNK         0.5027 
     66 O         -47.5560  -23.1039   11.9564 O.2       4 UNK        -0.5211 
     67 CA        -48.3795  -22.8676    9.7242 C.3       4 UNK         0.0297 
     68 CB        -47.4005  -21.9800    8.9405 C.3       4 UNK        -0.1993 
     69 N         -49.0957  -23.7403    8.7920 N.am      4 UNK        -0.4486 
     70 C         -50.0454  -24.6262    9.1235 C.2       3 UNK         0.4961 
     71 O         -50.4690  -24.7859   10.2688 O.2       3 UNK        -0.5105 
     72 CA        -50.5698  -25.5336    7.9971 C.3       3 UNK         0.0299 
     73 CB        -51.8472  -24.9456    7.3804 C.3       3 UNK        -0.1972 
     74 N         -49.6027  -25.8232    6.9297 N.am      3 UNK        -0.4305 
     75 C         -48.3785  -26.3437    7.0974 C.2       2 UNK         0.5006 
     76 O         -47.8805  -26.5888    8.1980 O.2       2 UNK        -0.5106 
     77 CA        -47.6026  -26.6809    5.8144 C.3       2 UNK         0.0296 
     78 CB        -46.0790  -26.6630    6.0372 C.3       2 UNK        -0.2002 
     79 N         -48.0054  -28.0091    5.3601 N.am      2 UNK        -0.4032 
     80 C         -49.1254  -28.2823    4.6755 C.2       1 UNK         0.5000 
     81 O         -49.8526  -27.4095    4.1939 O.2       1 UNK        -0.5238 
     82 H82       -48.5679  -31.4912    0.5042 H         1 UNK         0.0889 
     83 H83       -48.9276  -29.8103    0.1001 H         1 UNK         0.0889 
     84 H84       -50.1964  -30.8554    0.7423 H         1 UNK         0.0889 
     85 H85       -50.6415  -30.3939    2.8671 H         1 UNK         0.3028 
     86 H86       -50.5568  -29.7678    4.9542 H         1 UNK         0.0864 
     87 H87       -48.4704  -30.3394    6.3763 H         1 UNK         0.0720 
     88 H88       -47.6981  -30.8823    4.9231 H         1 UNK         0.0720 
     89 H89       -51.5564  -33.0840    6.4633 H         1 UNK         0.0814 
     90 H90       -51.6824  -31.9426    5.1541 H         1 UNK         0.0814 
     91 H91       -49.5976  -31.1624    8.1849 H         1 UNK         0.1469 
     92 H92       -52.3204  -28.1515    9.5461 H         1 UNK         0.1381 
     93 H93       -53.4249  -30.7100    6.2975 H         1 UNK         0.1206 
     94 H94       -54.3213  -27.6795    8.2142 H         1 UNK         0.0813 
     95 H95       -54.7552  -28.6765    6.8459 H         1 UNK         0.0813 
     96 H96       -57.8814  -28.9820    8.7289 H         1 UNK         0.0638 
     97 H97       -56.8363  -27.6829    8.2517 H         1 UNK         0.0638 
     98 H98       -57.8839  -27.0336   10.3017 H         1 UNK         0.0568 
     99 H99       -56.0937  -28.6191   12.7378 H         1 UNK         0.3450 
    100 H100      -57.3801  -29.6764   13.2611 H         1 UNK         0.3450 
    101 H101      -55.0308  -27.4700   10.3940 H         1 UNK         0.2987 
    102 H102      -53.6724  -26.3132   11.8027 H         1 UNK         0.0766 
    103 H103      -54.2401  -24.8200    9.8379 H         1 UNK         0.0798 
    104 H104      -53.0463  -24.1187   10.9115 H         1 UNK         0.0798 
    105 H105      -54.7184  -23.5549   10.9575 H         1 UNK         0.0798 
    106 H106      -54.5489  -23.9506   13.3224 H         1 UNK         0.3198 
    107 H107      -53.8354  -23.8369   15.5031 H         1 UNK         0.0843 
    108 H108      -55.8557  -25.9460   16.4824 H         1 UNK         0.0831 
    109 H109      -56.2741  -24.4988   15.5761 H         1 UNK         0.0831 
    110 H110      -55.6103  -24.3518   17.1944 H         1 UNK         0.0831 
    111 H111      -52.8253  -26.3928   16.2675 H         1 UNK         0.3133 
    112 H112      -51.5117  -25.2609   19.4416 H         1 UNK         0.0566 
    113 H113      -52.3448  -27.8166   17.9575 H         1 UNK         0.0814 
    114 H114      -53.2515  -27.1022   19.2861 H         1 UNK         0.0814 
    115 H115      -51.6277  -27.7059   19.5607 H         1 UNK         0.0814 
    116 H116      -50.4444  -25.7800   16.7807 H         1 UNK         0.3091 
    117 H117      -47.1230  -26.2526   18.1187 H         1 UNK         0.0702 
    118 H118      -47.0735  -27.7561   16.1454 H         1 UNK         0.0785 
    119 H119      -48.8347  -27.7568   16.0727 H         1 UNK         0.0785 
    120 H120      -48.0091  -28.4728   17.4478 H         1 UNK         0.0785 
    121 H121      -47.9815  -25.4421   15.5306 H         1 UNK         0.2998 
    122 H122      -47.7374  -21.9099   16.1176 H         1 UNK         0.0697 
    123 H123      -46.1184  -22.1351   14.2552 H         1 UNK         0.0825 
    124 H124      -45.9807  -23.8677   14.5418 H         1 UNK         0.0825 
    125 H125      -45.4052  -22.7251   15.7484 H         1 UNK         0.0825 
    126 H126      -48.3045  -23.4040   13.7541 H         1 UNK         0.3029 
    127 H127      -51.8633  -23.5455   14.2181 H         1 UNK         0.0897 
    128 H128      -50.0407  -22.0058   12.3027 H         1 UNK         0.0792 
    129 H129      -51.4320  -21.3742   13.1623 H         1 UNK         0.0792 
    130 H130      -51.6596  -22.5685   11.8963 H         1 UNK         0.0792 
    131 H131      -50.3090  -24.6248   12.1319 H         1 UNK         0.3086 
    132 H132      -49.3914  -27.7037   13.7360 H         1 UNK         0.0583 
    133 H133      -51.7664  -27.9488   12.8487 H         1 UNK         0.1020 
    134 H134      -51.2500  -27.1959   11.3623 H         1 UNK         0.1020 
    135 H135      -49.5968  -28.0531    9.8010 H         1 UNK         0.0694 
    136 H136      -48.8431  -29.6186    9.7861 H         1 UNK         0.0694 
    137 H137      -48.8795  -26.4940   11.1524 H         1 UNK         0.2989 
    138 H138      -45.7353  -25.1092   12.0682 H         1 UNK         0.1055 
    139 H139      -45.2467  -27.4877   11.5521 H         1 UNK         0.0806 
    140 H140      -45.0571  -26.5066   10.1073 H         1 UNK         0.0806 
    141 H141      -46.4905  -27.5115   10.3110 H         1 UNK         0.0806 
    142 H142      -47.2878  -25.2250    9.6291 H         1 UNK         0.3061 
    143 H143      -49.1207  -22.2208   10.1954 H         1 UNK         0.0734 
    144 H144      -46.6494  -22.5716    8.4153 H         1 UNK         0.0832 
    145 H145      -47.9205  -21.3651    8.2057 H         1 UNK         0.0832 
    146 H146      -46.8700  -21.3009    9.6098 H         1 UNK         0.0832 
    147 H147      -48.8155  -23.6954    7.8235 H         1 UNK         0.3156 
    148 H148      -50.8284  -26.4864    8.4572 H         1 UNK         0.0589 
    149 H149      -52.3124  -25.6474    6.6876 H         1 UNK         0.0808 
    150 H150      -51.6459  -24.0202    6.8395 H         1 UNK         0.0808 
    151 H151      -52.5846  -24.7175    8.1498 H         1 UNK         0.0808 
    152 H152      -49.9350  -25.7068    5.9811 H         1 UNK         0.3098 
    153 H153      -47.8426  -25.9385    5.0501 H         1 UNK         0.0720 
    154 H154      -45.7640  -27.4033    6.7741 H         1 UNK         0.0791 
    155 H155      -45.7501  -25.6869    6.3963 H         1 UNK         0.0791 
    156 H156      -45.5419  -26.8652    5.1103 H         1 UNK         0.0791 
    157 H157      -47.4640  -28.7818    5.7187 H         1 UNK         0.3028 
@<TRIPOS>BOND
     1    1    2 1    
     2    1   82 1    
     3    1   83 1    
     4    1   84 1    
     5    2    3 2    
     6    2    4 am   BACKBONE|DICT|INTERRES
     7    4    5 1    
     8    4   85 1    
     9    5    6 1    
    10    5   80 1    
    11    5   86 1    
    12    6    7 1    
    13    6   87 1    
    14    6   88 1    
    15    7    8 1    
    16    8    9 1    
    17    8   89 1    
    18    8   90 1    
    19    9   10 ar   
    20    9   14 ar   
    21   10   11 ar   
    22   10   91 1    
    23   11   12 ar   
    24   11   58 1    
    25   12   13 ar   
    26   12   92 1    
    27   13   14 ar   
    28   13   15 1    
    29   14   93 1    
    30   15   16 1    
    31   15   94 1    
    32   15   95 1    
    33   16   17 1    
    34   17   18 1    
    35   17   96 1    
    36   17   97 1    
    37   18   19 1    
    38   18   22 1    
    39   18   98 1    
    40   19   20 am   BACKBONE|DICT|INTERRES
    41   19   21 2    
    42   20   99 1    
    43   20  100 1    
    44   22   23 am   BACKBONE|DICT|INTERRES
    45   22  101 1    
    46   23   24 2    
    47   23   25 1    
    48   25   26 1    
    49   25   27 1    
    50   25  102 1    
    51   26  103 1    
    52   26  104 1    
    53   26  105 1    
    54   27   28 am   BACKBONE|DICT|INTERRES
    55   27  106 1    
    56   28   29 2    
    57   28   30 1    
    58   30   31 1    
    59   30   32 1    
    60   30  107 1    
    61   31  108 1    
    62   31  109 1    
    63   31  110 1    
    64   32   33 am   BACKBONE|DICT|INTERRES
    65   32  111 1    
    66   33   34 2    
    67   33   35 1    
    68   35   36 1    
    69   35   37 1    
    70   35  112 1    
    71   36  113 1    
    72   36  114 1    
    73   36  115 1    
    74   37   38 am   BACKBONE|DICT|INTERRES
    75   37  116 1    
    76   38   39 2    
    77   38   40 1    
    78   40   41 1    
    79   40   42 1    
    80   40  117 1    
    81   41  118 1    
    82   41  119 1    
    83   41  120 1    
    84   42   43 am   BACKBONE|DICT|INTERRES
    85   42  121 1    
    86   43   44 2    
    87   43   45 1    
    88   45   46 1    
    89   45   47 1    
    90   45  122 1    
    91   46  123 1    
    92   46  124 1    
    93   46  125 1    
    94   47   48 am   BACKBONE|DICT|INTERRES
    95   47  126 1    
    96   48   49 2    
    97   48   50 1    
    98   50   51 1    
    99   50   52 1    
   100   50  127 1    
   101   51  128 1    
   102   51  129 1    
   103   51  130 1    
   104   52   53 am   BACKBONE|DICT|INTERRES
   105   52  131 1    
   106   53   54 2    
   107   53   55 1    
   108   55   56 1    
   109   55   59 1    
   110   55  132 1    
   111   56   57 1    
   112   56  133 1    
   113   56  134 1    
   114   57   58 1    
   115   58  135 1    
   116   58  136 1    
   117   59   60 am   BACKBONE|DICT|INTERRES
   118   59  137 1    
   119   60   61 2    
   120   60   62 1    
   121   62   63 1    
   122   62   64 1    
   123   62  138 1    
   124   63  139 1    
   125   63  140 1    
   126   63  141 1    
   127   64   65 am   BACKBONE|DICT|INTERRES
   128   64  142 1    
   129   65   66 2    
   130   65   67 1    
   131   67   68 1    
   132   67   69 1    
   133   67  143 1    
   134   68  144 1    
   135   68  145 1    
   136   68  146 1    
   137   69   70 am   BACKBONE|DICT|INTERRES
   138   69  147 1    
   139   70   71 2    
   140   70   72 1    
   141   72   73 1    
   142   72   74 1    
   143   72  148 1    
   144   73  149 1    
   145   73  150 1    
   146   73  151 1    
   147   74   75 am   BACKBONE|DICT|INTERRES
   148   74  152 1    
   149   75   76 2    
   150   75   77 1    
   151   77   78 1    
   152   77   79 1    
   153   77  153 1    
   154   78  154 1    
   155   78  155 1    
   156   78  156 1    
   157   79   80 am   BACKBONE|DICT|INTERRES
   158   79  157 1    
   159   80   81 2    
@<TRIPOS>SUBSTRUCTURE
     1 UNK         1 GROUP             0       ****    0 ROOT    
