@<TRIPOS>MOLECULE
3R207
157   159    1
SMALL
USER_CHARGES


@<TRIPOS>ATOM
      1 CA        -47.1559  -26.1989    3.9705 C.3       0 UNK        -0.1975 
      2 C         -48.4189  -25.8948    4.7612 C.2       0 UNK         0.4852 
      3 O         -48.9438  -24.7843    4.6688 O.2       0 UNK        -0.5216 
      4 N         -48.9100  -26.8644    5.5463 N.am      1 UNK        -0.4461 
      5 CA        -50.1027  -26.7397    6.3919 C.3       1 UNK         0.0864 
      6 C6        -50.4796  -28.0902    7.0463 C.3       14 UNK        -0.0898 
      7 S7        -52.2641  -28.1946    7.4155 S.3       14 UNK        -0.2598 
      8 C8        -52.5409  -29.9982    7.4700 C.3       14 UNK         0.0286 
      9 C9        -52.4156  -30.5651    8.8796 C.ar      14 UNK        -0.0844 
     10 C10       -51.2002  -30.4987    9.5650 C.ar      14 UNK        -0.0881 
     11 C11       -51.0741  -30.9966   10.8673 C.ar      14 UNK        -0.0643 
     12 C12       -52.1817  -31.6181   11.4587 C.ar      14 UNK        -0.0930 
     13 C13       -53.3978  -31.7292   10.7732 C.ar      14 UNK        -0.0827 
     14 C14       -53.5092  -31.1868    9.4893 C.ar      14 UNK        -0.1249 
     15 C15       -54.5697  -32.4965   11.3804 C.3       14 UNK         0.0141 
     16 S16       -56.0416  -31.4593   11.6777 S.3       14 UNK        -0.2313 
     17 C17       -55.9360  -31.1607   13.4763 C.3       14 UNK        -0.0915 
     18 CA        -56.7137  -29.8965   13.9410 C.3       13 UNK         0.0968 
     19 C         -56.5934  -29.7029   15.4809 C.2       13 UNK         0.5732 
     20 N         -56.0244  -28.6115   15.9838 N.am      13 UNK        -0.7310 
     21 O         -57.0397  -30.5602   16.2398 O.2       13 UNK        -0.5035 
     22 N         -56.3543  -28.6983   13.1680 N.am      13 UNK        -0.4233 
     23 C         -57.1619  -27.6464   12.9697 C.2       13 UNK         0.4989 
     24 O         -58.3297  -27.6107   13.3615 O.2       13 UNK        -0.4996 
     25 CA        -56.5927  -26.4225   12.2239 C.3       12 UNK         0.0216 
     26 CB        -56.9522  -25.1087   12.9425 C.3       12 UNK        -0.1964 
     27 N         -55.1386  -26.4980   12.0814 N.am      12 UNK        -0.4276 
     28 C         -54.4916  -26.9188   10.9856 C.2       12 UNK         0.5020 
     29 O         -55.0547  -27.1842    9.9234 O.2       12 UNK        -0.5489 
     30 CA        -52.9617  -27.0839   11.0891 C.3       11 UNK         0.0294 
     31 CB        -52.2498  -25.8905   10.4295 C.3       11 UNK        -0.2019 
     32 N         -52.4663  -27.2434   12.4621 N.am      11 UNK        -0.4493 
     33 C         -52.7877  -28.2470   13.2885 C.2       11 UNK         0.4932 
     34 O         -53.5180  -29.1741   12.9633 O.2       11 UNK        -0.5029 
     35 CA        -52.2973  -28.1695   14.7445 C.3       10 UNK         0.0280 
     36 CB        -50.9576  -28.8963   14.9210 C.3       10 UNK        -0.1976 
     37 N         -52.1935  -26.8040   15.2645 N.am      10 UNK        -0.4242 
     38 C         -53.2000  -25.9255   15.3459 C.2       10 UNK         0.5072 
     39 O         -54.3405  -26.1743   14.9484 O.2       10 UNK        -0.5224 
     40 CA        -52.9122  -24.5356   15.9485 C.3       9 UNK         0.0343 
     41 CB        -53.4095  -24.4655   17.4050 C.3       9 UNK        -0.2003 
     42 N         -51.5258  -24.0495   15.8409 N.am      9 UNK        -0.4272 
     43 C         -50.4045  -24.5218   16.4042 C.2       9 UNK         0.4988 
     44 O         -50.3599  -25.5505   17.0804 O.2       9 UNK        -0.5108 
     45 CA        -49.1124  -23.7240   16.1273 C.3       8 UNK         0.0248 
     46 CB        -47.9234  -24.2143   16.9747 C.3       8 UNK        -0.2001 
     47 N         -48.7356  -23.7799   14.7140 N.am      8 UNK        -0.4140 
     48 C         -49.3566  -23.1371   13.7153 C.2       8 UNK         0.5028 
     49 O         -50.2720  -22.3307   13.8925 O.2       8 UNK        -0.5428 
     50 CA        -48.9099  -23.4654   12.2775 C.3       7 UNK         0.0264 
     51 CB        -47.8531  -22.4421   11.8343 C.3       7 UNK        -0.1988 
     52 N         -48.3868  -24.8259   12.0670 N.am      7 UNK        -0.4454 
     53 C         -48.9840  -25.9716   12.4438 C.2       7 UNK         0.5027 
     54 O         -50.0678  -25.9944   13.0251 O.2       7 UNK        -0.5083 
     55 CA        -48.2824  -27.3229   12.1596 C.3       6 UNK         0.0844 
     56 C56       -49.1189  -28.1796   11.1750 C.3       14 UNK        -0.0967 
     57 S57       -48.4428  -29.8609   10.9454 S.3       14 UNK        -0.2604 
     58 C58       -49.7621  -30.9162   11.6573 C.3       14 UNK         0.0134 
     59 N         -46.8974  -27.1765   11.7096 N.am      6 UNK        -0.4116 
     60 C         -45.8727  -26.7183   12.4409 C.2       5 UNK         0.5034 
     61 O         -45.9570  -26.4371   13.6368 O.2       5 UNK        -0.5045 
     62 CA        -44.5381  -26.4899   11.7006 C.3       5 UNK         0.0224 
     63 CB        -43.5526  -27.6276   12.0127 C.3       5 UNK        -0.1978 
     64 N         -44.6603  -26.3455   10.2402 N.am      5 UNK        -0.4737 
     65 C         -45.3996  -25.4195    9.6120 C.2       4 UNK         0.5027 
     66 O         -46.0623  -24.5727   10.2127 O.2       4 UNK        -0.5211 
     67 CA        -45.4359  -25.4913    8.0761 C.3       4 UNK         0.0297 
     68 CB        -45.8707  -26.8880    7.5910 C.3       4 UNK        -0.1993 
     69 N         -46.3682  -24.4953    7.5414 N.am      4 UNK        -0.4486 
     70 C         -46.0168  -23.2862    7.0791 C.2       3 UNK         0.4961 
     71 O         -44.8470  -22.9092    6.9945 O.2       3 UNK        -0.5105 
     72 CA        -47.1321  -22.3285    6.6109 C.3       3 UNK         0.0299 
     73 CB        -46.9848  -22.0178    5.1110 C.3       3 UNK        -0.1972 
     74 N         -48.4764  -22.8579    6.8577 N.am      3 UNK        -0.4305 
     75 C         -49.2302  -22.5563    7.9263 C.2       2 UNK         0.5006 
     76 O         -48.9229  -21.6963    8.7507 O.2       2 UNK        -0.5106 
     77 CA        -50.5519  -23.3281    8.1302 C.3       2 UNK         0.0296 
     78 CB        -51.7618  -22.4173    7.8655 C.3       2 UNK        -0.2002 
     79 N         -50.6803  -24.5409    7.3173 N.am      2 UNK        -0.4032 
     80 C         -49.9081  -25.6277    7.4434 C.2       1 UNK         0.5000 
     81 O         -49.0235  -25.7415    8.2949 O.2       1 UNK        -0.5238 
     82 H82       -47.3229  -26.0082    2.9108 H         1 UNK         0.0889 
     83 H83       -46.8441  -27.2372    4.0821 H         1 UNK         0.0889 
     84 H84       -46.3408  -25.5589    4.3076 H         1 UNK         0.0889 
     85 H85       -48.4276  -27.7498    5.5979 H         1 UNK         0.3028 
     86 H86       -50.9143  -26.4478    5.7213 H         1 UNK         0.0864 
     87 H87       -49.8946  -28.2661    7.9488 H         1 UNK         0.0720 
     88 H88       -50.2372  -28.9082    6.3663 H         1 UNK         0.0720 
     89 H89       -53.5386  -30.1943    7.0745 H         1 UNK         0.0814 
     90 H90       -51.8492  -30.5151    6.8040 H         1 UNK         0.0814 
     91 H91       -50.3517  -30.0545    9.0732 H         1 UNK         0.1469 
     92 H92       -52.0926  -32.0279   12.4553 H         1 UNK         0.1381 
     93 H93       -54.4485  -31.2676    8.9595 H         1 UNK         0.1206 
     94 H94       -54.8498  -33.2943   10.6912 H         1 UNK         0.0813 
     95 H95       -54.2744  -32.9942   12.3053 H         1 UNK         0.0813 
     96 H96       -56.3305  -32.0470   13.9763 H         1 UNK         0.0638 
     97 H97       -54.8877  -31.0993   13.7688 H         1 UNK         0.0638 
     98 H98       -57.7701  -30.0981   13.7551 H         1 UNK         0.0568 
     99 H99       -55.9695  -28.5093   16.9841 H         1 UNK         0.3450 
    100 H100      -55.6438  -27.8911   15.3850 H         1 UNK         0.3450 
    101 H101      -55.3965  -28.6809   12.8315 H         1 UNK         0.2987 
    102 H102      -57.0642  -26.4043   11.2394 H         1 UNK         0.0766 
    103 H103      -58.0329  -24.9689   12.9881 H         1 UNK         0.0798 
    104 H104      -56.5388  -24.2454   12.4208 H         1 UNK         0.0798 
    105 H105      -56.5792  -25.0918   13.9670 H         1 UNK         0.0798 
    106 H106      -54.6062  -26.3333   12.9306 H         1 UNK         0.3198 
    107 H107      -52.7018  -27.9906   10.5384 H         1 UNK         0.0843 
    108 H108      -52.3980  -24.9687   10.9929 H         1 UNK         0.0831 
    109 H109      -52.6259  -25.7207    9.4196 H         1 UNK         0.0831 
    110 H110      -51.1781  -26.0641   10.3429 H         1 UNK         0.0831 
    111 H111      -51.7823  -26.5633   12.7903 H         1 UNK         0.3133 
    112 H112      -53.0376  -28.6846   15.3601 H         1 UNK         0.0566 
    113 H113      -50.1756  -28.4554   14.3051 H         1 UNK         0.0814 
    114 H114      -51.0505  -29.9460   14.6413 H         1 UNK         0.0814 
    115 H115      -50.6236  -28.8689   15.9583 H         1 UNK         0.0814 
    116 H116      -51.3029  -26.5228   15.6608 H         1 UNK         0.3091 
    117 H117      -53.5086  -23.8312   15.3666 H         1 UNK         0.0702 
    118 H118      -53.3020  -23.4605   17.8131 H         1 UNK         0.0785 
    119 H119      -52.8656  -25.1523   18.0543 H         1 UNK         0.0785 
    120 H120      -54.4662  -24.7293   17.4687 H         1 UNK         0.0785 
    121 H121      -51.3978  -23.2536   15.2205 H         1 UNK         0.2998 
    122 H122      -49.3070  -22.6836   16.3966 H         1 UNK         0.0697 
    123 H123      -47.0412  -23.5934   16.8176 H         1 UNK         0.0825 
    124 H124      -47.6546  -25.2447   16.7376 H         1 UNK         0.0825 
    125 H125      -48.1598  -24.1753   18.0390 H         1 UNK         0.0825 
    126 H126      -48.0155  -24.4437   14.4662 H         1 UNK         0.3029 
    127 H127      -49.7861  -23.3579   11.6354 H         1 UNK         0.0897 
    128 H128      -48.2213  -21.4214   11.9471 H         1 UNK         0.0792 
    129 H129      -47.5898  -22.5700   10.7859 H         1 UNK         0.0792 
    130 H130      -46.9365  -22.5293   12.4190 H         1 UNK         0.0792 
    131 H131      -47.5186  -24.8819   11.5410 H         1 UNK         0.3086 
    132 H132      -48.2474  -27.8520   13.1135 H         1 UNK         0.0583 
    133 H133      -50.1490  -28.2685   11.5195 H         1 UNK         0.1020 
    134 H134      -49.1722  -27.6935   10.1996 H         1 UNK         0.1020 
    135 H135      -49.3648  -31.9272   11.7556 H         1 UNK         0.0694 
    136 H136      -49.9689  -30.5696   12.6690 H         1 UNK         0.0694 
    137 H137      -46.7241  -27.3893   10.7389 H         1 UNK         0.2989 
    138 H138      -44.1211  -25.5570   12.0866 H         1 UNK         0.1055 
    139 H139      -43.4165  -27.7429   13.0892 H         1 UNK         0.0806 
    140 H140      -42.5692  -27.4314   11.5850 H         1 UNK         0.0806 
    141 H141      -43.9047  -28.5846   11.6251 H         1 UNK         0.0806 
    142 H142      -44.1393  -27.0062    9.6809 H         1 UNK         0.3061 
    143 H143      -44.4255  -25.2986    7.7096 H         1 UNK         0.0734 
    144 H144      -46.8445  -27.1746    7.9889 H         1 UNK         0.0832 
    145 H145      -45.9285  -26.9248    6.5045 H         1 UNK         0.0832 
    146 H146      -45.1584  -27.6577    7.8891 H         1 UNK         0.0832 
    147 H147      -47.3506  -24.6964    7.6957 H         1 UNK         0.3156 
    148 H148      -46.9972  -21.3919    7.1556 H         1 UNK         0.0589 
    149 H149      -47.7637  -21.3365    4.7683 H         1 UNK         0.0808 
    150 H150      -47.0361  -22.9200    4.5013 H         1 UNK         0.0808 
    151 H151      -46.0258  -21.5414    4.9031 H         1 UNK         0.0808 
    152 H152      -48.8118  -23.5469    6.1892 H         1 UNK         0.3098 
    153 H153      -50.5789  -23.6314    9.1789 H         1 UNK         0.0720 
    154 H154      -51.7194  -21.5206    8.4855 H         1 UNK         0.0791 
    155 H155      -52.6987  -22.9240    8.0982 H         1 UNK         0.0791 
    156 H156      -51.8021  -22.0924    6.8250 H         1 UNK         0.0791 
    157 H157      -51.3566  -24.5101    6.5676 H         1 UNK         0.3028 
@<TRIPOS>BOND
     1    1    2 1    
     2    1   82 1    
     3    1   83 1    
     4    1   84 1    
     5    2    3 2    
     6    2    4 am   BACKBONE|DICT|INTERRES
     7    4    5 1    
     8    4   85 1    
     9    5    6 1    
    10    5   80 1    
    11    5   86 1    
    12    6    7 1    
    13    6   87 1    
    14    6   88 1    
    15    7    8 1    
    16    8    9 1    
    17    8   89 1    
    18    8   90 1    
    19    9   10 ar   
    20    9   14 ar   
    21   10   11 ar   
    22   10   91 1    
    23   11   12 ar   
    24   11   58 1    
    25   12   13 ar   
    26   12   92 1    
    27   13   14 ar   
    28   13   15 1    
    29   14   93 1    
    30   15   16 1    
    31   15   94 1    
    32   15   95 1    
    33   16   17 1    
    34   17   18 1    
    35   17   96 1    
    36   17   97 1    
    37   18   19 1    
    38   18   22 1    
    39   18   98 1    
    40   19   20 am   BACKBONE|DICT|INTERRES
    41   19   21 2    
    42   20   99 1    
    43   20  100 1    
    44   22   23 am   BACKBONE|DICT|INTERRES
    45   22  101 1    
    46   23   24 2    
    47   23   25 1    
    48   25   26 1    
    49   25   27 1    
    50   25  102 1    
    51   26  103 1    
    52   26  104 1    
    53   26  105 1    
    54   27   28 am   BACKBONE|DICT|INTERRES
    55   27  106 1    
    56   28   29 2    
    57   28   30 1    
    58   30   31 1    
    59   30   32 1    
    60   30  107 1    
    61   31  108 1    
    62   31  109 1    
    63   31  110 1    
    64   32   33 am   BACKBONE|DICT|INTERRES
    65   32  111 1    
    66   33   34 2    
    67   33   35 1    
    68   35   36 1    
    69   35   37 1    
    70   35  112 1    
    71   36  113 1    
    72   36  114 1    
    73   36  115 1    
    74   37   38 am   BACKBONE|DICT|INTERRES
    75   37  116 1    
    76   38   39 2    
    77   38   40 1    
    78   40   41 1    
    79   40   42 1    
    80   40  117 1    
    81   41  118 1    
    82   41  119 1    
    83   41  120 1    
    84   42   43 am   BACKBONE|DICT|INTERRES
    85   42  121 1    
    86   43   44 2    
    87   43   45 1    
    88   45   46 1    
    89   45   47 1    
    90   45  122 1    
    91   46  123 1    
    92   46  124 1    
    93   46  125 1    
    94   47   48 am   BACKBONE|DICT|INTERRES
    95   47  126 1    
    96   48   49 2    
    97   48   50 1    
    98   50   51 1    
    99   50   52 1    
   100   50  127 1    
   101   51  128 1    
   102   51  129 1    
   103   51  130 1    
   104   52   53 am   BACKBONE|DICT|INTERRES
   105   52  131 1    
   106   53   54 2    
   107   53   55 1    
   108   55   56 1    
   109   55   59 1    
   110   55  132 1    
   111   56   57 1    
   112   56  133 1    
   113   56  134 1    
   114   57   58 1    
   115   58  135 1    
   116   58  136 1    
   117   59   60 am   BACKBONE|DICT|INTERRES
   118   59  137 1    
   119   60   61 2    
   120   60   62 1    
   121   62   63 1    
   122   62   64 1    
   123   62  138 1    
   124   63  139 1    
   125   63  140 1    
   126   63  141 1    
   127   64   65 am   BACKBONE|DICT|INTERRES
   128   64  142 1    
   129   65   66 2    
   130   65   67 1    
   131   67   68 1    
   132   67   69 1    
   133   67  143 1    
   134   68  144 1    
   135   68  145 1    
   136   68  146 1    
   137   69   70 am   BACKBONE|DICT|INTERRES
   138   69  147 1    
   139   70   71 2    
   140   70   72 1    
   141   72   73 1    
   142   72   74 1    
   143   72  148 1    
   144   73  149 1    
   145   73  150 1    
   146   73  151 1    
   147   74   75 am   BACKBONE|DICT|INTERRES
   148   74  152 1    
   149   75   76 2    
   150   75   77 1    
   151   77   78 1    
   152   77   79 1    
   153   77  153 1    
   154   78  154 1    
   155   78  155 1    
   156   78  156 1    
   157   79   80 am   BACKBONE|DICT|INTERRES
   158   79  157 1    
   159   80   81 2    
@<TRIPOS>SUBSTRUCTURE
     1 UNK         1 GROUP             0       ****    0 ROOT    
