@<TRIPOS>MOLECULE
3R207
157   159    1
SMALL
USER_CHARGES


@<TRIPOS>ATOM
      1 CA        -48.5001  -32.7182    6.2992 C.3       0 UNK        -0.1975 
      2 C         -48.8367  -31.6491    5.2701 C.2       0 UNK         0.4852 
      3 O         -48.8963  -31.9473    4.0766 O.2       0 UNK        -0.5216 
      4 N         -49.0578  -30.4136    5.7291 N.am      1 UNK        -0.4461 
      5 CA        -49.3355  -29.2322    4.9142 C.3       1 UNK         0.0864 
      6 C6        -50.7933  -28.7277    5.0833 C.3       14 UNK        -0.0898 
      7 S7        -52.0739  -29.8373    4.3977 S.3       14 UNK        -0.2598 
      8 C8        -52.5239  -30.9401    5.7845 C.3       14 UNK         0.0286 
      9 C9        -52.7527  -30.2057    7.0988 C.ar      14 UNK        -0.0844 
     10 C10       -51.7829  -30.2661    8.1034 C.ar      14 UNK        -0.0881 
     11 C11       -51.9550  -29.5709    9.3018 C.ar      14 UNK        -0.0643 
     12 C12       -53.1243  -28.8355    9.5068 C.ar      14 UNK        -0.0930 
     13 C13       -54.1114  -28.7781    8.5177 C.ar      14 UNK        -0.0827 
     14 C14       -53.9178  -29.4619    7.3119 C.ar      14 UNK        -0.1249 
     15 C15       -55.3678  -27.9466    8.7432 C.3       14 UNK         0.0141 
     16 S16       -56.8827  -28.9572    8.8122 S.3       14 UNK        -0.2313 
     17 C17       -56.6341  -29.9511   10.3216 C.3       14 UNK        -0.0915 
     18 CA        -57.4724  -29.4355   11.5192 C.3       13 UNK         0.0968 
     19 C         -57.4828  -30.4836   12.6661 C.2       13 UNK         0.5732 
     20 N         -58.4425  -31.3984   12.6607 N.am      13 UNK        -0.7310 
     21 O         -56.6103  -30.4987   13.5334 O.2       13 UNK        -0.5035 
     22 N         -56.9865  -28.1299   11.9812 N.am      13 UNK        -0.4233 
     23 C         -57.6080  -27.3367   12.8595 C.2       13 UNK         0.4989 
     24 O         -58.7541  -27.5317   13.2694 O.2       13 UNK        -0.4996 
     25 CA        -56.7818  -26.1479   13.3928 C.3       12 UNK         0.0216 
     26 CB        -57.6120  -25.1902   14.2679 C.3       12 UNK        -0.1964 
     27 N         -55.6227  -26.6101   14.1634 N.am      12 UNK        -0.4276 
     28 C         -54.5136  -27.1525   13.6472 C.2       12 UNK         0.5020 
     29 O         -54.3045  -27.2415   12.4355 O.2       12 UNK        -0.5489 
     30 CA        -53.4777  -27.6742   14.6535 C.3       11 UNK         0.0294 
     31 CB        -52.4173  -28.5759   13.9966 C.3       11 UNK        -0.2019 
     32 N         -52.8053  -26.5608   15.3151 N.am      11 UNK        -0.4493 
     33 C         -53.2717  -25.8897   16.3754 C.2       11 UNK         0.4932 
     34 O         -54.3645  -26.1233   16.8967 O.2       11 UNK        -0.5029 
     35 CA        -52.3610  -24.7775   16.9353 C.3       10 UNK         0.0280 
     36 CB        -52.7392  -24.3478   18.3683 C.3       10 UNK        -0.1976 
     37 N         -50.9349  -25.1167   16.8407 N.am      10 UNK        -0.4242 
     38 C         -50.2991  -26.1520   17.4146 C.2       10 UNK         0.5072 
     39 O         -50.8280  -26.9225   18.2173 O.2       10 UNK        -0.5224 
     40 CA        -48.8330  -26.4075   17.0087 C.3       9 UNK         0.0343 
     41 CB        -48.7345  -27.6868   16.1602 C.3       9 UNK        -0.2003 
     42 N         -48.2185  -25.3031   16.2676 N.am      9 UNK        -0.4272 
     43 C         -47.8320  -24.1400   16.8095 C.2       9 UNK         0.4988 
     44 O         -47.8815  -23.8956   18.0154 O.2       9 UNK        -0.5108 
     45 CA        -47.3412  -23.0517   15.8387 C.3       8 UNK         0.0248 
     46 CB        -45.8449  -23.2322   15.5375 C.3       8 UNK        -0.2001 
     47 N         -48.1007  -23.0081   14.5832 N.am      8 UNK        -0.4140 
     48 C         -49.4126  -22.7374   14.4951 C.2       8 UNK         0.5028 
     49 O         -50.1218  -22.4677   15.4641 O.2       8 UNK        -0.5428 
     50 CA        -50.0611  -22.8393   13.1050 C.3       7 UNK         0.0264 
     51 CB        -49.7223  -21.6116   12.2444 C.3       7 UNK        -0.1988 
     52 N         -49.6819  -24.0632   12.3978 N.am      7 UNK        -0.4454 
     53 C         -49.9686  -25.3066   12.8111 C.2       7 UNK         0.5027 
     54 O         -50.6448  -25.5546   13.8093 O.2       7 UNK        -0.5083 
     55 CA        -49.3499  -26.4715   12.0161 C.3       6 UNK         0.0844 
     56 C56       -50.2226  -26.8728   10.8030 C.3       14 UNK        -0.0967 
     57 S57       -49.5688  -28.3802   10.0030 S.3       14 UNK        -0.2604 
     58 C58       -50.8641  -29.6080   10.3594 C.3       14 UNK         0.0134 
     59 N         -47.9696  -26.1732   11.6292 N.am      6 UNK        -0.4116 
     60 C         -46.9386  -26.0818   12.4775 C.2       5 UNK         0.5034 
     61 O         -47.0303  -26.2389   13.6948 O.2       5 UNK        -0.5045 
     62 CA        -45.5813  -25.7133   11.8577 C.3       5 UNK         0.0224 
     63 CB        -44.9281  -26.9427   11.2057 C.3       5 UNK        -0.1978 
     64 N         -45.6823  -24.6281   10.8760 N.am      5 UNK        -0.4737 
     65 C         -46.0410  -23.3745   11.1835 C.2       4 UNK         0.5027 
     66 O         -46.3286  -23.0048   12.3210 O.2       4 UNK        -0.5211 
     67 CA        -46.1225  -22.3676   10.0255 C.3       4 UNK         0.0297 
     68 CB        -44.7181  -21.8726    9.6438 C.3       4 UNK        -0.1993 
     69 N         -46.8207  -22.8438    8.8240 N.am      4 UNK        -0.4486 
     70 C         -48.0571  -23.3649    8.7927 C.2       3 UNK         0.4961 
     71 O         -48.6997  -23.6924    9.7888 O.2       3 UNK        -0.5105 
     72 CA        -48.6892  -23.5372    7.4106 C.3       3 UNK         0.0299 
     73 CB        -48.9765  -22.1702    6.7564 C.3       3 UNK        -0.1972 
     74 N         -47.8552  -24.3769    6.5509 N.am      3 UNK        -0.4305 
     75 C         -48.3092  -25.0205    5.4686 C.2       2 UNK         0.5006 
     76 O         -49.4636  -24.9130    5.0474 O.2       2 UNK        -0.5106 
     77 CA        -47.3380  -25.9469    4.7090 C.3       2 UNK         0.0296 
     78 CB        -45.9438  -26.1113    5.3613 C.3       2 UNK        -0.2002 
     79 N         -47.9864  -27.2400    4.4539 N.am      2 UNK        -0.4032 
     80 C         -48.3693  -28.1314    5.3805 C.2       1 UNK         0.5000 
     81 O         -48.0416  -28.0813    6.5699 O.2       1 UNK        -0.5238 
     82 H82       -48.4735  -32.3162    7.3121 H         1 UNK         0.0889 
     83 H83       -47.5254  -33.1545    6.0822 H         1 UNK         0.0889 
     84 H84       -49.2443  -33.5137    6.2700 H         1 UNK         0.0889 
     85 H85       -48.8985  -30.1968    6.7047 H         1 UNK         0.3028 
     86 H86       -49.1410  -29.4393    3.8596 H         1 UNK         0.0864 
     87 H87       -51.0071  -28.4969    6.1271 H         1 UNK         0.0720 
     88 H88       -50.9152  -27.7784    4.5575 H         1 UNK         0.0720 
     89 H89       -51.7479  -31.6971    5.9006 H         1 UNK         0.0814 
     90 H90       -53.4301  -31.4847    5.5163 H         1 UNK         0.0814 
     91 H91       -50.8779  -30.8350    7.9451 H         1 UNK         0.1469 
     92 H92       -53.2583  -28.2981   10.4338 H         1 UNK         0.1381 
     93 H93       -54.6707  -29.4093    6.5372 H         1 UNK         0.1206 
     94 H94       -55.2882  -27.3575    9.6582 H         1 UNK         0.0813 
     95 H95       -55.4646  -27.2280    7.9283 H         1 UNK         0.0813 
     96 H96       -55.5748  -29.9920   10.5801 H         1 UNK         0.0638 
     97 H97       -56.9195  -30.9740   10.0688 H         1 UNK         0.0638 
     98 H98       -58.5032  -29.3002   11.1856 H         1 UNK         0.0568 
     99 H99       -59.1555  -31.4033   11.9479 H         1 UNK         0.3450 
    100 H100      -58.4573  -32.0957   13.3884 H         1 UNK         0.3450 
    101 H101      -56.0118  -27.9219   11.7882 H         1 UNK         0.2987 
    102 H102      -56.4248  -25.5842   12.5280 H         1 UNK         0.0766 
    103 H103      -57.0221  -24.3291   14.5826 H         1 UNK         0.0798 
    104 H104      -57.9885  -25.6841   15.1647 H         1 UNK         0.0798 
    105 H105      -58.4738  -24.8077   13.7192 H         1 UNK         0.0798 
    106 H106      -55.6878  -26.5511   15.1732 H         1 UNK         0.3198 
    107 H107      -54.0072  -28.2737   15.3975 H         1 UNK         0.0843 
    108 H108      -52.8849  -29.4171   13.4830 H         1 UNK         0.0831 
    109 H109      -51.7320  -28.9866   14.7382 H         1 UNK         0.0831 
    110 H110      -51.8261  -28.0304   13.2623 H         1 UNK         0.0831 
    111 H111      -51.9407  -26.2374   14.8821 H         1 UNK         0.3133 
    112 H112      -52.5059  -23.9143   16.2844 H         1 UNK         0.0566 
    113 H113      -52.0824  -23.5570   18.7305 H         1 UNK         0.0814 
    114 H114      -53.7591  -23.9629   18.4037 H         1 UNK         0.0814 
    115 H115      -52.6829  -25.1801   19.0704 H         1 UNK         0.0814 
    116 H116      -50.4057  -24.5410   16.1963 H         1 UNK         0.3091 
    117 H117      -48.2635  -26.5627   17.9273 H         1 UNK         0.0702 
    118 H118      -47.6988  -27.9203   15.9125 H         1 UNK         0.0785 
    119 H119      -49.2890  -27.5927   15.2259 H         1 UNK         0.0785 
    120 H120      -49.1410  -28.5460   16.6952 H         1 UNK         0.0785 
    121 H121      -48.0695  -25.4509   15.2743 H         1 UNK         0.2998 
    122 H122      -47.4732  -22.0874   16.3337 H         1 UNK         0.0697 
    123 H123      -45.6506  -24.1618   15.0013 H         1 UNK         0.0825 
    124 H124      -45.2598  -23.2562   16.4577 H         1 UNK         0.0825 
    125 H125      -45.4613  -22.4114   14.9312 H         1 UNK         0.0825 
    126 H126      -47.5728  -23.1714   13.7278 H         1 UNK         0.3029 
    127 H127      -51.1437  -22.8648   13.2475 H         1 UNK         0.0897 
    128 H128      -50.2392  -21.6464   11.2852 H         1 UNK         0.0792 
    129 H129      -50.0243  -20.6899   12.7434 H         1 UNK         0.0792 
    130 H130      -48.6533  -21.5397   12.0435 H         1 UNK         0.0792 
    131 H131      -49.1630  -23.9460   11.5283 H         1 UNK         0.3086 
    132 H132      -49.3175  -27.3272   12.6943 H         1 UNK         0.0583 
    133 H133      -51.2584  -27.0352   11.1060 H         1 UNK         0.1020 
    134 H134      -50.2490  -26.0711   10.0623 H         1 UNK         0.1020 
    135 H135      -50.4092  -30.5995   10.3783 H         1 UNK         0.0694 
    136 H136      -51.2774  -29.4475   11.3553 H         1 UNK         0.0694 
    137 H137      -47.8094  -25.9903   10.6498 H         1 UNK         0.2989 
    138 H138      -44.9347  -25.3727   12.6698 H         1 UNK         0.1055 
    139 H139      -44.8313  -27.7584   11.9238 H         1 UNK         0.0806 
    140 H140      -43.9260  -26.7136   10.8426 H         1 UNK         0.0806 
    141 H141      -45.5131  -27.3175   10.3646 H         1 UNK         0.0806 
    142 H142      -45.4662  -24.8470    9.9144 H         1 UNK         0.3061 
    143 H143      -46.6876  -21.5090   10.3941 H         1 UNK         0.0734 
    144 H144      -44.1828  -21.5035   10.5201 H         1 UNK         0.0832 
    145 H145      -44.1132  -22.6665    9.2040 H         1 UNK         0.0832 
    146 H146      -44.7658  -21.0509    8.9291 H         1 UNK         0.0832 
    147 H147      -46.3922  -22.5969    7.9438 H         1 UNK         0.3156 
    148 H148      -49.6433  -24.0469    7.5652 H         1 UNK         0.0589 
    149 H149      -48.0597  -21.6464    6.4846 H         1 UNK         0.0808 
    150 H150      -49.5760  -22.2791    5.8527 H         1 UNK         0.0808 
    151 H151      -49.5359  -21.5227    7.4333 H         1 UNK         0.0808 
    152 H152      -46.9129  -24.5614    6.8648 H         1 UNK         0.3098 
    153 H153      -47.1866  -25.4855    3.7320 H         1 UNK         0.0720 
    154 H154      -45.3246  -26.7987    4.7849 H         1 UNK         0.0791 
    155 H155      -45.9984  -26.4973    6.3796 H         1 UNK         0.0791 
    156 H156      -45.4107  -25.1604    5.3948 H         1 UNK         0.0791 
    157 H157      -48.3322  -27.3613    3.5119 H         1 UNK         0.3028 
@<TRIPOS>BOND
     1    1    2 1    
     2    1   82 1    
     3    1   83 1    
     4    1   84 1    
     5    2    3 2    
     6    2    4 am   BACKBONE|DICT|INTERRES
     7    4    5 1    
     8    4   85 1    
     9    5    6 1    
    10    5   80 1    
    11    5   86 1    
    12    6    7 1    
    13    6   87 1    
    14    6   88 1    
    15    7    8 1    
    16    8    9 1    
    17    8   89 1    
    18    8   90 1    
    19    9   10 ar   
    20    9   14 ar   
    21   10   11 ar   
    22   10   91 1    
    23   11   12 ar   
    24   11   58 1    
    25   12   13 ar   
    26   12   92 1    
    27   13   14 ar   
    28   13   15 1    
    29   14   93 1    
    30   15   16 1    
    31   15   94 1    
    32   15   95 1    
    33   16   17 1    
    34   17   18 1    
    35   17   96 1    
    36   17   97 1    
    37   18   19 1    
    38   18   22 1    
    39   18   98 1    
    40   19   20 am   BACKBONE|DICT|INTERRES
    41   19   21 2    
    42   20   99 1    
    43   20  100 1    
    44   22   23 am   BACKBONE|DICT|INTERRES
    45   22  101 1    
    46   23   24 2    
    47   23   25 1    
    48   25   26 1    
    49   25   27 1    
    50   25  102 1    
    51   26  103 1    
    52   26  104 1    
    53   26  105 1    
    54   27   28 am   BACKBONE|DICT|INTERRES
    55   27  106 1    
    56   28   29 2    
    57   28   30 1    
    58   30   31 1    
    59   30   32 1    
    60   30  107 1    
    61   31  108 1    
    62   31  109 1    
    63   31  110 1    
    64   32   33 am   BACKBONE|DICT|INTERRES
    65   32  111 1    
    66   33   34 2    
    67   33   35 1    
    68   35   36 1    
    69   35   37 1    
    70   35  112 1    
    71   36  113 1    
    72   36  114 1    
    73   36  115 1    
    74   37   38 am   BACKBONE|DICT|INTERRES
    75   37  116 1    
    76   38   39 2    
    77   38   40 1    
    78   40   41 1    
    79   40   42 1    
    80   40  117 1    
    81   41  118 1    
    82   41  119 1    
    83   41  120 1    
    84   42   43 am   BACKBONE|DICT|INTERRES
    85   42  121 1    
    86   43   44 2    
    87   43   45 1    
    88   45   46 1    
    89   45   47 1    
    90   45  122 1    
    91   46  123 1    
    92   46  124 1    
    93   46  125 1    
    94   47   48 am   BACKBONE|DICT|INTERRES
    95   47  126 1    
    96   48   49 2    
    97   48   50 1    
    98   50   51 1    
    99   50   52 1    
   100   50  127 1    
   101   51  128 1    
   102   51  129 1    
   103   51  130 1    
   104   52   53 am   BACKBONE|DICT|INTERRES
   105   52  131 1    
   106   53   54 2    
   107   53   55 1    
   108   55   56 1    
   109   55   59 1    
   110   55  132 1    
   111   56   57 1    
   112   56  133 1    
   113   56  134 1    
   114   57   58 1    
   115   58  135 1    
   116   58  136 1    
   117   59   60 am   BACKBONE|DICT|INTERRES
   118   59  137 1    
   119   60   61 2    
   120   60   62 1    
   121   62   63 1    
   122   62   64 1    
   123   62  138 1    
   124   63  139 1    
   125   63  140 1    
   126   63  141 1    
   127   64   65 am   BACKBONE|DICT|INTERRES
   128   64  142 1    
   129   65   66 2    
   130   65   67 1    
   131   67   68 1    
   132   67   69 1    
   133   67  143 1    
   134   68  144 1    
   135   68  145 1    
   136   68  146 1    
   137   69   70 am   BACKBONE|DICT|INTERRES
   138   69  147 1    
   139   70   71 2    
   140   70   72 1    
   141   72   73 1    
   142   72   74 1    
   143   72  148 1    
   144   73  149 1    
   145   73  150 1    
   146   73  151 1    
   147   74   75 am   BACKBONE|DICT|INTERRES
   148   74  152 1    
   149   75   76 2    
   150   75   77 1    
   151   77   78 1    
   152   77   79 1    
   153   77  153 1    
   154   78  154 1    
   155   78  155 1    
   156   78  156 1    
   157   79   80 am   BACKBONE|DICT|INTERRES
   158   79  157 1    
   159   80   81 2    
@<TRIPOS>SUBSTRUCTURE
     1 UNK         1 GROUP             0       ****    0 ROOT    
