@<TRIPOS>MOLECULE
3R207
157   159    1
SMALL
USER_CHARGES


@<TRIPOS>ATOM
      1 CA        -49.1437  -28.8843    3.7835 C.3       0 UNK        -0.1975 
      2 C         -49.1873  -27.9137    4.9543 C.2       0 UNK         0.4852 
      3 O         -48.3724  -28.0325    5.8681 O.2       0 UNK        -0.5216 
      4 N         -50.1410  -26.9705    4.9285 N.am      1 UNK        -0.4461 
      5 CA        -50.3645  -25.9190    5.9317 C.3       1 UNK         0.0864 
      6 C6        -50.8060  -26.4607    7.3177 C.3       14 UNK        -0.0898 
      7 S7        -52.4574  -27.2363    7.2241 S.3       14 UNK        -0.2598 
      8 C8        -52.0767  -29.0093    7.3781 C.3       14 UNK         0.0286 
      9 C9        -51.6803  -29.3986    8.7954 C.ar      14 UNK        -0.0844 
     10 C10       -50.3440  -29.6671    9.1024 C.ar      14 UNK        -0.0881 
     11 C11       -49.9753  -30.0595   10.3924 C.ar      14 UNK        -0.0643 
     12 C12       -50.9558  -30.1838   11.3805 C.ar      14 UNK        -0.0930 
     13 C13       -52.2998  -29.9291   11.0854 C.ar      14 UNK        -0.0827 
     14 C14       -52.6533  -29.5279    9.7920 C.ar      14 UNK        -0.1249 
     15 C15       -53.3534  -30.0691   12.1775 C.3       14 UNK         0.0141 
     16 S16       -54.7536  -31.1286   11.7018 S.3       14 UNK        -0.2313 
     17 C17       -55.6762  -31.1946   13.2771 C.3       14 UNK        -0.0915 
     18 CA        -56.8530  -30.1835   13.3247 C.3       13 UNK         0.0968 
     19 C         -57.8093  -30.4527   14.5240 C.2       13 UNK         0.5732 
     20 N         -58.1843  -29.4642   15.3290 N.am      13 UNK        -0.7310 
     21 O         -58.2463  -31.5850   14.7179 O.2       13 UNK        -0.5035 
     22 N         -56.3659  -28.7977   13.2838 N.am      13 UNK        -0.4233 
     23 C         -56.8650  -27.8289   12.5066 C.2       13 UNK         0.4989 
     24 O         -57.7503  -28.0139   11.6693 O.2       13 UNK        -0.4996 
     25 CA        -56.2756  -26.4126   12.6854 C.3       12 UNK         0.0216 
     26 CB        -57.2768  -25.3019   12.3043 C.3       12 UNK        -0.1964 
     27 N         -55.7085  -26.1527   14.0154 N.am      12 UNK        -0.4276 
     28 C         -56.3300  -26.2473   15.1988 C.2       12 UNK         0.5020 
     29 O         -57.5084  -26.5879   15.3254 O.2       12 UNK        -0.5489 
     30 CA        -55.4713  -25.9607   16.4477 C.3       11 UNK         0.0294 
     31 CB        -56.1888  -26.3554   17.7555 C.3       11 UNK        -0.2019 
     32 N         -54.1335  -26.5710   16.4179 N.am      11 UNK        -0.4493 
     33 C         -53.8169  -27.8542   16.1832 C.2       11 UNK         0.4932 
     34 O         -54.6320  -28.7003   15.8108 O.2       11 UNK        -0.5029 
     35 CA        -52.3478  -28.2754   16.4014 C.3       10 UNK         0.0280 
     36 CB        -51.8848  -29.3153   15.3703 C.3       10 UNK        -0.1976 
     37 N         -51.3987  -27.1604   16.3854 N.am      10 UNK        -0.4242 
     38 C         -51.0475  -26.4164   17.4422 C.2       10 UNK         0.5072 
     39 O         -51.5308  -26.5472   18.5667 O.2       10 UNK        -0.5224 
     40 CA        -49.9931  -25.3268   17.1909 C.3       9 UNK         0.0343 
     41 CB        -48.5779  -25.9279   17.1848 C.3       9 UNK        -0.2003 
     42 N         -50.2298  -24.6216   15.9306 N.am      9 UNK        -0.4272 
     43 C         -51.1851  -23.6991   15.7470 C.2       9 UNK         0.4988 
     44 O         -51.9349  -23.2991   16.6379 O.2       9 UNK        -0.5108 
     45 CA        -51.3458  -23.1487   14.3201 C.3       8 UNK         0.0248 
     46 CB        -50.3487  -22.0081   14.0604 C.3       8 UNK        -0.2001 
     47 N         -51.1885  -24.1913   13.3021 N.am      8 UNK        -0.4140 
     48 C         -52.0748  -25.1821   13.1153 C.2       8 UNK         0.5028 
     49 O         -53.1274  -25.2775   13.7438 O.2       8 UNK        -0.5428 
     50 CA        -51.7424  -26.2676   12.0778 C.3       7 UNK         0.0264 
     51 CB        -52.3783  -25.9143   10.7286 C.3       7 UNK        -0.1988 
     52 N         -50.3106  -26.5044   11.8901 N.am      7 UNK        -0.4454 
     53 C         -49.4623  -26.8855   12.8549 C.2       7 UNK         0.5027 
     54 O         -49.8168  -27.1469   14.0050 O.2       7 UNK        -0.5083 
     55 CA        -47.9580  -26.8923   12.5204 C.3       6 UNK         0.0844 
     56 C56       -47.4013  -28.3273   12.3215 C.3       14 UNK        -0.0967 
     57 S57       -47.4450  -28.9368   10.5968 S.3       14 UNK        -0.2604 
     58 C58       -48.5236  -30.3982   10.6936 C.3       14 UNK         0.0134 
     59 N         -47.5799  -25.9845   11.4306 N.am      6 UNK        -0.4116 
     60 C         -47.7593  -24.6579   11.3900 C.2       5 UNK         0.5034 
     61 O         -48.3433  -24.0310   12.2756 O.2       5 UNK        -0.5045 
     62 CA        -47.2524  -23.9028   10.1429 C.3       5 UNK         0.0224 
     63 CB        -46.4866  -22.6201   10.5272 C.3       5 UNK        -0.1978 
     64 N         -46.4720  -24.7047    9.1850 N.am      5 UNK        -0.4737 
     65 C         -45.2890  -25.3103    9.3862 C.2       4 UNK         0.5027 
     66 O         -44.6981  -25.3323   10.4652 O.2       4 UNK        -0.5211 
     67 CA        -44.6557  -26.0037    8.1699 C.3       4 UNK         0.0297 
     68 CB        -45.3868  -27.3133    7.8369 C.3       4 UNK        -0.1993 
     69 N         -44.6469  -25.1345    6.9947 N.am      4 UNK        -0.4486 
     70 C         -43.8887  -24.0407    6.8505 C.2       3 UNK         0.4961 
     71 O         -43.0412  -23.6839    7.6694 O.2       3 UNK        -0.5105 
     72 CA        -44.1162  -23.1811    5.5930 C.3       3 UNK         0.0299 
     73 CB        -43.3195  -23.7255    4.3907 C.3       3 UNK        -0.1972 
     74 N         -45.5322  -22.9602    5.2600 N.am      3 UNK        -0.4305 
     75 C         -46.4443  -23.8481    4.8410 C.2       2 UNK         0.5006 
     76 O         -46.2049  -25.0376    4.6195 O.2       2 UNK        -0.5106 
     77 CA        -47.8637  -23.2984    4.6355 C.3       2 UNK         0.0296 
     78 CB        -48.0097  -22.7102    3.2221 C.3       2 UNK        -0.2002 
     79 N         -48.8984  -24.3140    4.8366 N.am      2 UNK        -0.4032 
     80 C         -49.1751  -24.9356    5.9930 C.2       1 UNK         0.5000 
     81 O         -48.5574  -24.7460    7.0457 O.2       1 UNK        -0.5238 
     82 H82       -49.9273  -28.6817    3.0536 H         1 UNK         0.0889 
     83 H83       -49.2685  -29.9064    4.1400 H         1 UNK         0.0889 
     84 H84       -48.1815  -28.8150    3.2766 H         1 UNK         0.0889 
     85 H85       -50.7813  -26.9534    4.1468 H         1 UNK         0.3028 
     86 H86       -51.1956  -25.3212    5.5527 H         1 UNK         0.0864 
     87 H87       -50.8799  -25.6444    8.0378 H         1 UNK         0.0720 
     88 H88       -50.0722  -27.1554    7.7270 H         1 UNK         0.0720 
     89 H89       -51.2945  -29.2772    6.6668 H         1 UNK         0.0814 
     90 H90       -52.9583  -29.5814    7.0858 H         1 UNK         0.0814 
     91 H91       -49.5858  -29.5780    8.3354 H         1 UNK         0.1469 
     92 H92       -50.6717  -30.4904   12.3778 H         1 UNK         0.1381 
     93 H93       -53.6888  -29.3217    9.5580 H         1 UNK         0.1206 
     94 H94       -53.7173  -29.0803   12.4559 H         1 UNK         0.0813 
     95 H95       -52.9061  -30.5104   13.0664 H         1 UNK         0.0813 
     96 H96       -54.9984  -31.0367   14.1180 H         1 UNK         0.0638 
     97 H97       -56.0451  -32.2169   13.3773 H         1 UNK         0.0638 
     98 H98       -57.4654  -30.3731   12.4417 H         1 UNK         0.0568 
     99 H99       -58.8103  -29.6684   16.0908 H         1 UNK         0.3450 
    100 H100      -57.8612  -28.5117   15.1890 H         1 UNK         0.3450 
    101 H101      -55.6923  -28.5582   14.0030 H         1 UNK         0.2987 
    102 H102      -55.4389  -26.3540   11.9893 H         1 UNK         0.0766 
    103 H103      -56.8296  -24.3133   12.4082 H         1 UNK         0.0798 
    104 H104      -58.1701  -25.3337   12.9290 H         1 UNK         0.0798 
    105 H105      -57.6001  -25.4005   11.2673 H         1 UNK         0.0798 
    106 H106      -54.7261  -25.8637   14.0181 H         1 UNK         0.3198 
    107 H107      -55.3159  -24.8808   16.4653 H         1 UNK         0.0843 
    108 H108      -56.3988  -27.4252   17.7901 H         1 UNK         0.0831 
    109 H109      -57.1410  -25.8325   17.8552 H         1 UNK         0.0831 
    110 H110      -55.5893  -26.1025   18.6300 H         1 UNK         0.0831 
    111 H111      -53.3718  -25.9521   16.6582 H         1 UNK         0.3133 
    112 H112      -52.3101  -28.7526   17.3827 H         1 UNK         0.0566 
    113 H113      -50.8699  -29.6540   15.5789 H         1 UNK         0.0814 
    114 H114      -52.5256  -30.1977   15.3806 H         1 UNK         0.0814 
    115 H115      -51.8930  -28.8982   14.3640 H         1 UNK         0.0814 
    116 H116      -50.9132  -27.0045   15.5041 H         1 UNK         0.3091 
    117 H117      -50.0517  -24.6063   18.0098 H         1 UNK         0.0702 
    118 H118      -47.8195  -25.1538   17.0666 H         1 UNK         0.0785 
    119 H119      -48.4459  -26.6522   16.3799 H         1 UNK         0.0785 
    120 H120      -48.3704  -26.4431   18.1237 H         1 UNK         0.0785 
    121 H121      -49.6807  -24.9125   15.1343 H         1 UNK         0.2998 
    122 H122      -52.3554  -22.7411   14.2321 H         1 UNK         0.0697 
    123 H123      -50.4932  -21.1956   14.7738 H         1 UNK         0.0825 
    124 H124      -50.4750  -21.5893   13.0620 H         1 UNK         0.0825 
    125 H125      -49.3148  -22.3425   14.1544 H         1 UNK         0.0825 
    126 H126      -50.3242  -24.1852   12.7697 H         1 UNK         0.3029 
    127 H127      -52.1831  -27.1997   12.4343 H         1 UNK         0.0897 
    128 H128      -53.4493  -25.7365   10.8277 H         1 UNK         0.0792 
    129 H129      -52.2533  -26.7310   10.0219 H         1 UNK         0.0792 
    130 H130      -51.9373  -25.0172   10.2928 H         1 UNK         0.0792 
    131 H131      -49.9345  -26.3275   10.9707 H         1 UNK         0.3086 
    132 H132      -47.4746  -26.4917   13.4142 H         1 UNK         0.0583 
    133 H133      -46.3521  -28.3344   12.6211 H         1 UNK         0.1020 
    134 H134      -47.8861  -29.0386   12.9935 H         1 UNK         0.1020 
    135 H135      -48.1792  -31.1266    9.9582 H         1 UNK         0.0694 
    136 H136      -48.4198  -30.8832   11.6652 H         1 UNK         0.0694 
    137 H137      -47.1035  -26.4192   10.6536 H         1 UNK         0.2989 
    138 H138      -48.1515  -23.5972    9.6053 H         1 UNK         0.1055 
    139 H139      -47.1105  -21.9528   11.1235 H         1 UNK         0.0806 
    140 H140      -46.1752  -22.0645    9.6426 H         1 UNK         0.0806 
    141 H141      -45.5955  -22.8411   11.1155 H         1 UNK         0.0806 
    142 H142      -46.9063  -24.7938    8.2698 H         1 UNK         0.3061 
    143 H143      -43.6204  -26.2464    8.4192 H         1 UNK         0.0734 
    144 H144      -44.9366  -27.8141    6.9797 H         1 UNK         0.0832 
    145 H145      -45.3386  -28.0075    8.6761 H         1 UNK         0.0832 
    146 H146      -46.4407  -27.1466    7.6086 H         1 UNK         0.0832 
    147 H147      -45.3034  -25.3458    6.2465 H         1 UNK         0.3156 
    148 H148      -43.7174  -22.1908    5.8197 H         1 UNK         0.0589 
    149 H149      -43.6300  -24.7330    4.1128 H         1 UNK         0.0808 
    150 H150      -43.4349  -23.0856    3.5159 H         1 UNK         0.0808 
    151 H151      -42.2543  -23.7702    4.6212 H         1 UNK         0.0808 
    152 H152      -45.8525  -22.0145    5.4199 H         1 UNK         0.3098 
    153 H153      -48.0371  -22.5051    5.3658 H         1 UNK         0.0720 
    154 H154      -48.9952  -22.2679    3.0746 H         1 UNK         0.0791 
    155 H155      -47.8630  -23.4698    2.4527 H         1 UNK         0.0791 
    156 H156      -47.2752  -21.9232    3.0453 H         1 UNK         0.0791 
    157 H157      -49.4288  -24.5757    4.0191 H         1 UNK         0.3028 
@<TRIPOS>BOND
     1    1    2 1    
     2    1   82 1    
     3    1   83 1    
     4    1   84 1    
     5    2    3 2    
     6    2    4 am   BACKBONE|DICT|INTERRES
     7    4    5 1    
     8    4   85 1    
     9    5    6 1    
    10    5   80 1    
    11    5   86 1    
    12    6    7 1    
    13    6   87 1    
    14    6   88 1    
    15    7    8 1    
    16    8    9 1    
    17    8   89 1    
    18    8   90 1    
    19    9   10 ar   
    20    9   14 ar   
    21   10   11 ar   
    22   10   91 1    
    23   11   12 ar   
    24   11   58 1    
    25   12   13 ar   
    26   12   92 1    
    27   13   14 ar   
    28   13   15 1    
    29   14   93 1    
    30   15   16 1    
    31   15   94 1    
    32   15   95 1    
    33   16   17 1    
    34   17   18 1    
    35   17   96 1    
    36   17   97 1    
    37   18   19 1    
    38   18   22 1    
    39   18   98 1    
    40   19   20 am   BACKBONE|DICT|INTERRES
    41   19   21 2    
    42   20   99 1    
    43   20  100 1    
    44   22   23 am   BACKBONE|DICT|INTERRES
    45   22  101 1    
    46   23   24 2    
    47   23   25 1    
    48   25   26 1    
    49   25   27 1    
    50   25  102 1    
    51   26  103 1    
    52   26  104 1    
    53   26  105 1    
    54   27   28 am   BACKBONE|DICT|INTERRES
    55   27  106 1    
    56   28   29 2    
    57   28   30 1    
    58   30   31 1    
    59   30   32 1    
    60   30  107 1    
    61   31  108 1    
    62   31  109 1    
    63   31  110 1    
    64   32   33 am   BACKBONE|DICT|INTERRES
    65   32  111 1    
    66   33   34 2    
    67   33   35 1    
    68   35   36 1    
    69   35   37 1    
    70   35  112 1    
    71   36  113 1    
    72   36  114 1    
    73   36  115 1    
    74   37   38 am   BACKBONE|DICT|INTERRES
    75   37  116 1    
    76   38   39 2    
    77   38   40 1    
    78   40   41 1    
    79   40   42 1    
    80   40  117 1    
    81   41  118 1    
    82   41  119 1    
    83   41  120 1    
    84   42   43 am   BACKBONE|DICT|INTERRES
    85   42  121 1    
    86   43   44 2    
    87   43   45 1    
    88   45   46 1    
    89   45   47 1    
    90   45  122 1    
    91   46  123 1    
    92   46  124 1    
    93   46  125 1    
    94   47   48 am   BACKBONE|DICT|INTERRES
    95   47  126 1    
    96   48   49 2    
    97   48   50 1    
    98   50   51 1    
    99   50   52 1    
   100   50  127 1    
   101   51  128 1    
   102   51  129 1    
   103   51  130 1    
   104   52   53 am   BACKBONE|DICT|INTERRES
   105   52  131 1    
   106   53   54 2    
   107   53   55 1    
   108   55   56 1    
   109   55   59 1    
   110   55  132 1    
   111   56   57 1    
   112   56  133 1    
   113   56  134 1    
   114   57   58 1    
   115   58  135 1    
   116   58  136 1    
   117   59   60 am   BACKBONE|DICT|INTERRES
   118   59  137 1    
   119   60   61 2    
   120   60   62 1    
   121   62   63 1    
   122   62   64 1    
   123   62  138 1    
   124   63  139 1    
   125   63  140 1    
   126   63  141 1    
   127   64   65 am   BACKBONE|DICT|INTERRES
   128   64  142 1    
   129   65   66 2    
   130   65   67 1    
   131   67   68 1    
   132   67   69 1    
   133   67  143 1    
   134   68  144 1    
   135   68  145 1    
   136   68  146 1    
   137   69   70 am   BACKBONE|DICT|INTERRES
   138   69  147 1    
   139   70   71 2    
   140   70   72 1    
   141   72   73 1    
   142   72   74 1    
   143   72  148 1    
   144   73  149 1    
   145   73  150 1    
   146   73  151 1    
   147   74   75 am   BACKBONE|DICT|INTERRES
   148   74  152 1    
   149   75   76 2    
   150   75   77 1    
   151   77   78 1    
   152   77   79 1    
   153   77  153 1    
   154   78  154 1    
   155   78  155 1    
   156   78  156 1    
   157   79   80 am   BACKBONE|DICT|INTERRES
   158   79  157 1    
   159   80   81 2    
@<TRIPOS>SUBSTRUCTURE
     1 UNK         1 GROUP             0       ****    0 ROOT    
