@<TRIPOS>MOLECULE
3R207
157   159    1
SMALL
USER_CHARGES


@<TRIPOS>ATOM
      1 CA        -50.9520  -32.5696    8.2904 C.3       0 UNK        -0.1975 
      2 C         -51.0104  -31.1373    7.7796 C.2       0 UNK         0.4852 
      3 O         -50.8472  -30.2046    8.5655 O.2       0 UNK        -0.5216 
      4 N         -51.2532  -30.9640    6.4732 N.am      1 UNK        -0.4461 
      5 CA        -51.2662  -29.6893    5.7501 C.3       1 UNK         0.0864 
      6 C6        -52.3469  -28.6918    6.2565 C.3       14 UNK        -0.0898 
      7 S7        -52.6206  -27.3255    5.0767 S.3       14 UNK        -0.2598 
      8 C8        -54.3283  -26.8403    5.4666 C.3       14 UNK         0.0286 
      9 C9        -54.4353  -26.2228    6.8526 C.ar      14 UNK        -0.0844 
     10 C10       -54.0476  -24.8965    7.0652 C.ar      14 UNK        -0.0881 
     11 C11       -54.1639  -24.3129    8.3313 C.ar      14 UNK        -0.0643 
     12 C12       -54.6890  -25.0693    9.3859 C.ar      14 UNK        -0.0930 
     13 C13       -55.0645  -26.4007    9.1870 C.ar      14 UNK        -0.0827 
     14 C14       -54.9348  -26.9730    7.9195 C.ar      14 UNK        -0.1249 
     15 C15       -55.6130  -27.2236   10.3385 C.3       14 UNK         0.0141 
     16 S16       -54.2696  -27.8190   11.4060 S.3       14 UNK        -0.2313 
     17 C17       -55.1317  -29.1509   12.3140 C.3       14 UNK        -0.0915 
     18 CA        -54.5744  -30.5593   11.9882 C.3       13 UNK         0.0968 
     19 C         -54.9237  -31.0018   10.5374 C.2       13 UNK         0.5732 
     20 N         -53.9823  -31.0117    9.6022 N.am      13 UNK        -0.7310 
     21 O         -56.0707  -31.3450   10.2617 O.2       13 UNK        -0.5035 
     22 N         -53.1565  -30.6501   12.3596 N.am      13 UNK        -0.4233 
     23 C         -52.4526  -31.7805   12.4873 C.2       13 UNK         0.4989 
     24 O         -52.9101  -32.9044   12.2788 O.2       13 UNK        -0.4996 
     25 CA        -50.9903  -31.6377   12.9435 C.3       12 UNK         0.0216 
     26 CB        -50.0340  -31.7308   11.7451 C.3       12 UNK        -0.1964 
     27 N         -50.7345  -30.3939   13.6809 N.am      12 UNK        -0.4276 
     28 C         -51.0387  -30.2164   14.9738 C.2       12 UNK         0.5020 
     29 O         -51.5911  -31.0675   15.6724 O.2       12 UNK        -0.5489 
     30 CA        -50.6287  -28.8731   15.5965 C.3       11 UNK         0.0294 
     31 CB        -49.0996  -28.6988   15.5764 C.3       11 UNK        -0.2019 
     32 N         -51.2676  -27.7137   14.9696 N.am      11 UNK        -0.4493 
     33 C         -52.5743  -27.4230   15.0250 C.2       11 UNK         0.4932 
     34 O         -53.4228  -28.1612   15.5279 O.2       11 UNK        -0.5029 
     35 CA        -52.9759  -26.0417   14.4653 C.3       10 UNK         0.0280 
     36 CB        -54.5011  -25.7956   14.4816 C.3       10 UNK        -0.1976 
     37 N         -52.2779  -24.9437   15.1503 N.am      10 UNK        -0.4242 
     38 C         -52.3107  -24.6638   16.4645 C.2       10 UNK         0.5072 
     39 O         -52.9675  -25.2983   17.2930 O.2       10 UNK        -0.5224 
     40 CA        -51.4727  -23.4552   16.9265 C.3       9 UNK         0.0343 
     41 CB        -51.4210  -23.3036   18.4621 C.3       9 UNK        -0.2003 
     42 N         -50.1181  -23.4454   16.3673 N.am      9 UNK        -0.4272 
     43 C         -49.1678  -24.3854   16.4739 C.2       9 UNK         0.4988 
     44 O         -49.3147  -25.4284   17.1116 O.2       9 UNK        -0.5108 
     45 CA        -47.8217  -24.1104   15.7607 C.3       8 UNK         0.0248 
     46 CB        -47.0097  -25.3991   15.5323 C.3       8 UNK        -0.2001 
     47 N         -47.9612  -23.4097   14.4778 N.am      8 UNK        -0.4140 
     48 C         -48.2758  -22.1169   14.3178 C.2       8 UNK         0.5028 
     49 O         -48.4303  -21.3350   15.2565 O.2       8 UNK        -0.5428 
     50 CA        -48.5407  -21.6232   12.8871 C.3       7 UNK         0.0264 
     51 CB        -47.2328  -21.1570   12.2294 C.3       7 UNK        -0.1988 
     52 N         -49.2053  -22.6091   12.0278 N.am      7 UNK        -0.4454 
     53 C         -50.4014  -23.1748   12.2635 C.2       7 UNK         0.5027 
     54 O         -51.0798  -22.9636   13.2716 O.2       7 UNK        -0.5083 
     55 CA        -50.9015  -24.1931   11.2145 C.3       6 UNK         0.0844 
     56 C56       -51.3367  -23.5097    9.8933 C.3       14 UNK        -0.0967 
     57 S57       -52.8673  -22.5337   10.0934 S.3       14 UNK        -0.2604 
     58 C58       -53.7470  -22.8576    8.5280 C.3       14 UNK         0.0134 
     59 N         -49.9061  -25.2415   10.9853 N.am      6 UNK        -0.4116 
     60 C         -49.4444  -26.0804   11.9245 C.2       5 UNK         0.5034 
     61 O         -49.8802  -26.1480   13.0739 O.2       5 UNK        -0.5045 
     62 CA        -48.2554  -26.9657   11.5279 C.3       5 UNK         0.0224 
     63 CB        -48.7344  -28.2240   10.7884 C.3       5 UNK        -0.1978 
     64 N         -47.2725  -26.2399   10.7184 N.am      5 UNK        -0.4737 
     65 C         -46.5173  -25.2327   11.1823 C.2       4 UNK         0.5027 
     66 O         -46.5425  -24.8409   12.3474 O.2       4 UNK        -0.5211 
     67 CA        -45.6125  -24.5151   10.1676 C.3       4 UNK         0.0297 
     68 CB        -44.2966  -25.2857    9.9780 C.3       4 UNK        -0.1993 
     69 N         -46.2619  -24.3209    8.8697 N.am      4 UNK        -0.4486 
     70 C         -47.3437  -23.5551    8.6644 C.2       3 UNK         0.4961 
     71 O         -47.8911  -22.8879    9.5402 O.2       3 UNK        -0.5105 
     72 CA        -47.9531  -23.5883    7.2538 C.3       3 UNK         0.0299 
     73 CB        -47.2524  -22.5753    6.3351 C.3       3 UNK        -0.1972 
     74 N         -47.9032  -24.9249    6.6531 N.am      3 UNK        -0.4305 
     75 C         -48.5537  -25.9901    7.1388 C.2       2 UNK         0.5006 
     76 O         -49.2888  -25.9565    8.1301 O.2       2 UNK        -0.5106 
     77 CA        -48.2941  -27.3240    6.4375 C.3       2 UNK         0.0296 
     78 CB        -47.1447  -28.0905    7.1190 C.3       2 UNK        -0.2002 
     79 N         -49.5255  -28.1008    6.4775 N.am      2 UNK        -0.4032 
     80 C         -49.8374  -29.1111    5.6590 C.2       1 UNK         0.5000 
     81 O         -49.0553  -29.5877    4.8326 O.2       1 UNK        -0.5238 
     82 H82       -49.9518  -32.7918    8.6607 H         1 UNK         0.0889 
     83 H83       -51.1932  -33.2916    7.5105 H         1 UNK         0.0889 
     84 H84       -51.6577  -32.7092    9.1088 H         1 UNK         0.0889 
     85 H85       -51.3585  -31.7809    5.8873 H         1 UNK         0.3028 
     86 H86       -51.5398  -29.9547    4.7273 H         1 UNK         0.0864 
     87 H87       -52.1078  -28.2800    7.2384 H         1 UNK         0.0720 
     88 H88       -53.2907  -29.2241    6.3831 H         1 UNK         0.0720 
     89 H89       -54.9858  -27.7062    5.3736 H         1 UNK         0.0814 
     90 H90       -54.6694  -26.1203    4.7213 H         1 UNK         0.0814 
     91 H91       -53.6561  -24.3190    6.2387 H         1 UNK         0.1469 
     92 H92       -54.7944  -24.6286   10.3676 H         1 UNK         0.1381 
     93 H93       -55.2252  -28.0031    7.7632 H         1 UNK         0.1206 
     94 H94       -56.1797  -28.0726    9.9525 H         1 UNK         0.0813 
     95 H95       -56.3097  -26.6275   10.9297 H         1 UNK         0.0813 
     96 H96       -55.0200  -28.9557   13.3811 H         1 UNK         0.0638 
     97 H97       -56.2057  -29.1074   12.1246 H         1 UNK         0.0638 
     98 H98       -55.1012  -31.2615   12.6371 H         1 UNK         0.0568 
     99 H99       -54.2267  -31.3000    8.6696 H         1 UNK         0.3450 
    100 H100      -53.0516  -30.6830    9.8069 H         1 UNK         0.3450 
    101 H101      -52.6986  -29.7706   12.5408 H         1 UNK         0.2987 
    102 H102      -50.7741  -32.4799   13.6047 H         1 UNK         0.0766 
    103 H103      -50.2349  -30.9568   11.0058 H         1 UNK         0.0798 
    104 H104      -50.1376  -32.6937   11.2437 H         1 UNK         0.0798 
    105 H105      -48.9927  -31.6408   12.0551 H         1 UNK         0.0798 
    106 H106      -50.2748  -29.6448   13.1864 H         1 UNK         0.3198 
    107 H107      -50.9449  -28.8923   16.6419 H         1 UNK         0.0843 
    108 H108      -48.7946  -27.8522   16.1899 H         1 UNK         0.0831 
    109 H109      -48.7156  -28.5352   14.5694 H         1 UNK         0.0831 
    110 H110      -48.5984  -29.5798   15.9800 H         1 UNK         0.0831 
    111 H111      -50.6591  -27.0546   14.4867 H         1 UNK         0.3133 
    112 H112      -52.6506  -26.0210   13.4251 H         1 UNK         0.0566 
    113 H113      -54.7522  -24.8467   14.0082 H         1 UNK         0.0814 
    114 H114      -55.0345  -26.5760   13.9410 H         1 UNK         0.0814 
    115 H115      -54.9021  -25.7820   15.4953 H         1 UNK         0.0814 
    116 H116      -51.7091  -24.3457   14.5561 H         1 UNK         0.3091 
    117 H117      -51.9719  -22.5719   16.5255 H         1 UNK         0.0702 
    118 H118      -50.8517  -22.4215   18.7547 H         1 UNK         0.0785 
    119 H119      -50.9636  -24.1716   18.9384 H         1 UNK         0.0785 
    120 H120      -52.4231  -23.1940   18.8786 H         1 UNK         0.0785 
    121 H121      -49.8674  -22.6125   15.8448 H         1 UNK         0.2998 
    122 H122      -47.2433  -23.4714   16.4307 H         1 UNK         0.0697 
    123 H123      -46.0370  -25.1811   15.0912 H         1 UNK         0.0825 
    124 H124      -46.8256  -25.9265   16.4690 H         1 UNK         0.0825 
    125 H125      -47.5322  -26.0843   14.8640 H         1 UNK         0.0825 
    126 H126      -47.7987  -23.9684   13.6451 H         1 UNK         0.3029 
    127 H127      -49.2089  -20.7628   12.9609 H         1 UNK         0.0897 
    128 H128      -47.4162  -20.7144   11.2501 H         1 UNK         0.0792 
    129 H129      -46.7360  -20.4005   12.8385 H         1 UNK         0.0792 
    130 H130      -46.5330  -21.9826   12.0984 H         1 UNK         0.0792 
    131 H131      -48.7242  -22.8332   11.1574 H         1 UNK         0.3086 
    132 H132      -51.7783  -24.6919   11.6322 H         1 UNK         0.0583 
    133 H133      -50.5530  -22.8627    9.4968 H         1 UNK         0.1020 
    134 H134      -51.5043  -24.2722    9.1305 H         1 UNK         0.1020 
    135 H135      -54.6428  -22.2362    8.4986 H         1 UNK         0.0694 
    136 H136      -53.1131  -22.5247    7.7045 H         1 UNK         0.0694 
    137 H137      -49.5173  -25.3065   10.0502 H         1 UNK         0.2989 
    138 H138      -47.7619  -27.2801   12.4504 H         1 UNK         0.1055 
    139 H139      -49.2081  -27.9882    9.8352 H         1 UNK         0.0806 
    140 H140      -49.4724  -28.7604   11.3827 H         1 UNK         0.0806 
    141 H141      -47.9116  -28.9124   10.5956 H         1 UNK         0.0806 
    142 H142      -47.2218  -26.4722    9.7382 H         1 UNK         0.3061 
    143 H143      -45.3747  -23.5296   10.5732 H         1 UNK         0.0734 
    144 H144      -43.6106  -24.7460    9.3249 H         1 UNK         0.0832 
    145 H145      -43.7879  -25.4258   10.9330 H         1 UNK         0.0832 
    146 H146      -44.4617  -26.2751    9.5497 H         1 UNK         0.0832 
    147 H147      -45.8771  -24.8249    8.0846 H         1 UNK         0.3156 
    148 H148      -49.0030  -23.2999    7.3402 H         1 UNK         0.0589 
    149 H149      -46.2001  -22.8204    6.1857 H         1 UNK         0.0808 
    150 H150      -47.7298  -22.5309    5.3561 H         1 UNK         0.0808 
    151 H151      -47.2956  -21.5711    6.7597 H         1 UNK         0.0808 
    152 H152      -47.3212  -25.0360    5.8346 H         1 UNK         0.3098 
    153 H153      -48.0348  -27.1277    5.3948 H         1 UNK         0.0720 
    154 H154      -47.3891  -28.3532    8.1479 H         1 UNK         0.0791 
    155 H155      -46.2298  -27.4971    7.1376 H         1 UNK         0.0791 
    156 H156      -46.9160  -29.0149    6.5887 H         1 UNK         0.0791 
    157 H157      -50.2125  -27.7666    7.1426 H         1 UNK         0.3028 
@<TRIPOS>BOND
     1    1    2 1    
     2    1   82 1    
     3    1   83 1    
     4    1   84 1    
     5    2    3 2    
     6    2    4 am   BACKBONE|DICT|INTERRES
     7    4    5 1    
     8    4   85 1    
     9    5    6 1    
    10    5   80 1    
    11    5   86 1    
    12    6    7 1    
    13    6   87 1    
    14    6   88 1    
    15    7    8 1    
    16    8    9 1    
    17    8   89 1    
    18    8   90 1    
    19    9   10 ar   
    20    9   14 ar   
    21   10   11 ar   
    22   10   91 1    
    23   11   12 ar   
    24   11   58 1    
    25   12   13 ar   
    26   12   92 1    
    27   13   14 ar   
    28   13   15 1    
    29   14   93 1    
    30   15   16 1    
    31   15   94 1    
    32   15   95 1    
    33   16   17 1    
    34   17   18 1    
    35   17   96 1    
    36   17   97 1    
    37   18   19 1    
    38   18   22 1    
    39   18   98 1    
    40   19   20 am   BACKBONE|DICT|INTERRES
    41   19   21 2    
    42   20   99 1    
    43   20  100 1    
    44   22   23 am   BACKBONE|DICT|INTERRES
    45   22  101 1    
    46   23   24 2    
    47   23   25 1    
    48   25   26 1    
    49   25   27 1    
    50   25  102 1    
    51   26  103 1    
    52   26  104 1    
    53   26  105 1    
    54   27   28 am   BACKBONE|DICT|INTERRES
    55   27  106 1    
    56   28   29 2    
    57   28   30 1    
    58   30   31 1    
    59   30   32 1    
    60   30  107 1    
    61   31  108 1    
    62   31  109 1    
    63   31  110 1    
    64   32   33 am   BACKBONE|DICT|INTERRES
    65   32  111 1    
    66   33   34 2    
    67   33   35 1    
    68   35   36 1    
    69   35   37 1    
    70   35  112 1    
    71   36  113 1    
    72   36  114 1    
    73   36  115 1    
    74   37   38 am   BACKBONE|DICT|INTERRES
    75   37  116 1    
    76   38   39 2    
    77   38   40 1    
    78   40   41 1    
    79   40   42 1    
    80   40  117 1    
    81   41  118 1    
    82   41  119 1    
    83   41  120 1    
    84   42   43 am   BACKBONE|DICT|INTERRES
    85   42  121 1    
    86   43   44 2    
    87   43   45 1    
    88   45   46 1    
    89   45   47 1    
    90   45  122 1    
    91   46  123 1    
    92   46  124 1    
    93   46  125 1    
    94   47   48 am   BACKBONE|DICT|INTERRES
    95   47  126 1    
    96   48   49 2    
    97   48   50 1    
    98   50   51 1    
    99   50   52 1    
   100   50  127 1    
   101   51  128 1    
   102   51  129 1    
   103   51  130 1    
   104   52   53 am   BACKBONE|DICT|INTERRES
   105   52  131 1    
   106   53   54 2    
   107   53   55 1    
   108   55   56 1    
   109   55   59 1    
   110   55  132 1    
   111   56   57 1    
   112   56  133 1    
   113   56  134 1    
   114   57   58 1    
   115   58  135 1    
   116   58  136 1    
   117   59   60 am   BACKBONE|DICT|INTERRES
   118   59  137 1    
   119   60   61 2    
   120   60   62 1    
   121   62   63 1    
   122   62   64 1    
   123   62  138 1    
   124   63  139 1    
   125   63  140 1    
   126   63  141 1    
   127   64   65 am   BACKBONE|DICT|INTERRES
   128   64  142 1    
   129   65   66 2    
   130   65   67 1    
   131   67   68 1    
   132   67   69 1    
   133   67  143 1    
   134   68  144 1    
   135   68  145 1    
   136   68  146 1    
   137   69   70 am   BACKBONE|DICT|INTERRES
   138   69  147 1    
   139   70   71 2    
   140   70   72 1    
   141   72   73 1    
   142   72   74 1    
   143   72  148 1    
   144   73  149 1    
   145   73  150 1    
   146   73  151 1    
   147   74   75 am   BACKBONE|DICT|INTERRES
   148   74  152 1    
   149   75   76 2    
   150   75   77 1    
   151   77   78 1    
   152   77   79 1    
   153   77  153 1    
   154   78  154 1    
   155   78  155 1    
   156   78  156 1    
   157   79   80 am   BACKBONE|DICT|INTERRES
   158   79  157 1    
   159   80   81 2    
@<TRIPOS>SUBSTRUCTURE
     1 UNK         1 GROUP             0       ****    0 ROOT    
