@<TRIPOS>MOLECULE
3R207
157   159    1
SMALL
USER_CHARGES


@<TRIPOS>ATOM
      1 CA        -53.8541  -26.9780    8.0897 C.3       0 UNK        -0.1975 
      2 C         -52.5234  -27.2399    7.4017 C.2       0 UNK         0.4852 
      3 O         -52.4945  -27.4634    6.1903 O.2       0 UNK        -0.5216 
      4 N         -51.4198  -27.1878    8.1598 N.am      1 UNK        -0.4461 
      5 CA        -50.0247  -27.3650    7.7372 C.3       1 UNK         0.0864 
      6 C6        -49.7428  -28.7394    7.0695 C.3       14 UNK        -0.0898 
      7 S7        -47.9737  -29.1907    7.1120 S.3       14 UNK        -0.2598 
      8 C8        -47.8929  -30.2815    8.5715 C.3       14 UNK         0.0286 
      9 C9        -48.2906  -29.5530    9.8476 C.ar      14 UNK        -0.0844 
     10 C10       -47.3879  -28.6971   10.4840 C.ar      14 UNK        -0.0881 
     11 C11       -47.7648  -27.9786   11.6246 C.ar      14 UNK        -0.0643 
     12 C12       -49.0522  -28.1522   12.1462 C.ar      14 UNK        -0.0930 
     13 C13       -49.9587  -29.0199   11.5273 C.ar      14 UNK        -0.0827 
     14 C14       -49.5709  -29.7179   10.3812 C.ar      14 UNK        -0.1249 
     15 C15       -51.3629  -29.2067   12.0789 C.3       14 UNK         0.0141 
     16 S16       -52.5009  -27.9936   11.3502 S.3       14 UNK        -0.2313 
     17 C17       -54.0906  -28.8800   11.4061 C.3       14 UNK        -0.0915 
     18 CA        -55.2808  -27.9097   11.6285 C.3       13 UNK         0.0968 
     19 C         -56.6418  -28.5810   11.2747 C.2       13 UNK         0.5732 
     20 N         -57.6311  -28.6298   12.1594 N.am      13 UNK        -0.7310 
     21 O         -56.8107  -29.0610   10.1563 O.2       13 UNK        -0.5035 
     22 N         -55.2281  -27.3038   12.9667 N.am      13 UNK        -0.4233 
     23 C         -55.7782  -26.1313   13.3037 C.2       13 UNK         0.4989 
     24 O         -56.3060  -25.3647   12.4959 O.2       13 UNK        -0.4996 
     25 CA        -55.7463  -25.7775   14.8053 C.3       12 UNK         0.0216 
     26 CB        -56.7349  -24.6524   15.1775 C.3       12 UNK        -0.1964 
     27 N         -55.9407  -26.9453   15.6796 N.am      12 UNK        -0.4276 
     28 C         -56.9836  -27.7943   15.6791 C.2       12 UNK         0.5020 
     29 O         -57.9432  -27.6869   14.9148 O.2       12 UNK        -0.5489 
     30 CA        -56.9475  -29.0019   16.6377 C.3       11 UNK         0.0294 
     31 CB        -56.7899  -30.3074   15.8385 C.3       11 UNK        -0.2019 
     32 N         -55.8817  -28.9344   17.6382 N.am      11 UNK        -0.4493 
     33 C         -55.8885  -28.1474   18.7225 C.2       11 UNK         0.4932 
     34 O         -56.8464  -27.4502   19.0566 O.2       11 UNK        -0.5029 
     35 CA        -54.5948  -28.1079   19.5605 C.3       10 UNK         0.0280 
     36 CB        -54.7179  -29.0388   20.7778 C.3       10 UNK        -0.1976 
     37 N         -53.3707  -28.4421   18.8161 N.am      10 UNK        -0.4242 
     38 C         -52.9181  -27.7870   17.7374 C.2       10 UNK         0.5072 
     39 O         -53.5204  -26.8555   17.1999 O.2       10 UNK        -0.5224 
     40 CA        -51.6188  -28.3144   17.1067 C.3       9 UNK         0.0343 
     41 CB        -51.9410  -29.4086   16.0752 C.3       9 UNK        -0.2003 
     42 N         -50.8615  -27.2479   16.4475 N.am      9 UNK        -0.4272 
     43 C         -50.2734  -26.2241   17.0824 C.2       9 UNK         0.4988 
     44 O         -50.2450  -26.1109   18.3092 O.2       9 UNK        -0.5108 
     45 CA        -49.5684  -25.1558   16.2246 C.3       8 UNK         0.0248 
     46 CB        -48.0422  -25.2538   16.3959 C.3       8 UNK        -0.2001 
     47 N         -49.8802  -25.2082   14.7924 N.am      8 UNK        -0.4140 
     48 C         -51.0270  -24.8025   14.2277 C.2       8 UNK         0.5028 
     49 O         -51.9999  -24.3966   14.8629 O.2       8 UNK        -0.5428 
     50 CA        -51.0453  -24.8038   12.6915 C.3       7 UNK         0.0264 
     51 CB        -52.3071  -24.1574   12.0851 C.3       7 UNK        -0.1988 
     52 N         -49.8370  -24.1404   12.2044 N.am      7 UNK        -0.4454 
     53 C         -49.2260  -24.3886   11.0405 C.2       7 UNK         0.5027 
     54 O         -49.6657  -25.1517   10.1793 O.2       7 UNK        -0.5083 
     55 CA        -47.8927  -23.6546   10.8283 C.3       6 UNK         0.0844 
     56 C56       -46.7474  -24.2240   11.7123 C.3       14 UNK        -0.0967 
     57 S57       -46.0524  -25.8214   11.1563 S.3       14 UNK        -0.2604 
     58 C58       -46.7683  -27.0464   12.3070 C.3       14 UNK         0.0134 
     59 N         -47.5576  -23.5985    9.4053 N.am      6 UNK        -0.4116 
     60 C         -46.8256  -22.6307    8.8389 C.2       5 UNK         0.5034 
     61 O         -46.3360  -21.6888    9.4664 O.2       5 UNK        -0.5045 
     62 CA        -46.6168  -22.7301    7.3172 C.3       5 UNK         0.0224 
     63 CB        -45.7131  -21.6202    6.7375 C.3       5 UNK        -0.1978 
     64 N         -46.1581  -24.0623    6.9200 N.am      5 UNK        -0.4737 
     65 C         -44.9879  -24.6617    7.1799 C.2       4 UNK         0.5027 
     66 O         -44.0377  -24.1192    7.7437 O.2       4 UNK        -0.5211 
     67 CA        -44.8556  -26.1297    6.7335 C.3       4 UNK         0.0297 
     68 CB        -45.0671  -27.0705    7.9274 C.3       4 UNK        -0.1993 
     69 N         -45.8142  -26.4852    5.6836 N.am      4 UNK        -0.4486 
     70 C         -45.6102  -26.2996    4.3726 C.2       3 UNK         0.4961 
     71 O         -44.5618  -25.8663    3.8937 O.2       3 UNK        -0.5105 
     72 CA        -46.7795  -26.6504    3.4348 C.3       3 UNK         0.0299 
     73 CB        -46.7844  -28.1547    3.1174 C.3       3 UNK        -0.1972 
     74 N         -48.0825  -26.2638    3.9819 N.am      3 UNK        -0.4305 
     75 C         -48.4965  -24.9987    4.1512 C.2       2 UNK         0.5006 
     76 O         -47.8502  -24.0125    3.7982 O.2       2 UNK        -0.5106 
     77 CA        -49.8505  -24.7907    4.8556 C.3       2 UNK         0.0296 
     78 CB        -50.9792  -24.6410    3.8234 C.3       2 UNK        -0.2002 
     79 N         -50.2004  -25.8544    5.8018 N.am      2 UNK        -0.4032 
     80 C         -49.4987  -26.1889    6.8928 C.2       1 UNK         0.5000 
     81 O         -48.4619  -25.6170    7.2287 O.2       1 UNK        -0.5238 
     82 H82       -53.7219  -26.4194    9.0159 H         1 UNK         0.0889 
     83 H83       -54.3512  -27.9199    8.3200 H         1 UNK         0.0889 
     84 H84       -54.5082  -26.3964    7.4406 H         1 UNK         0.0889 
     85 H85       -51.5180  -26.9755    9.1450 H         1 UNK         0.3028 
     86 H86       -49.4621  -27.3314    8.6710 H         1 UNK         0.0864 
     87 H87       -50.3127  -29.5233    7.5693 H         1 UNK         0.0720 
     88 H88       -50.0810  -28.7530    6.0321 H         1 UNK         0.0720 
     89 H89       -46.8759  -30.6634    8.6714 H         1 UNK         0.0814 
     90 H90       -48.5302  -31.1520    8.4087 H         1 UNK         0.0814 
     91 H91       -46.3933  -28.5742   10.0792 H         1 UNK         0.1469 
     92 H92       -49.3514  -27.6158   13.0339 H         1 UNK         0.1381 
     93 H93       -50.2758  -30.3771    9.8934 H         1 UNK         0.1206 
     94 H94       -51.3647  -29.1020   13.1633 H         1 UNK         0.0813 
     95 H95       -51.7101  -30.2186   11.8639 H         1 UNK         0.0813 
     96 H96       -54.0685  -29.6402   12.1889 H         1 UNK         0.0638 
     97 H97       -54.1865  -29.4156   10.4599 H         1 UNK         0.0638 
     98 H98       -55.1791  -27.1016   10.9022 H         1 UNK         0.0568 
     99 H99       -57.5525  -28.2113   13.0807 H         1 UNK         0.3450 
    100 H100      -58.4976  -29.0665   11.8896 H         1 UNK         0.3450 
    101 H101      -54.8225  -27.8712   13.6941 H         1 UNK         0.2987 
    102 H102      -54.7382  -25.4106   15.0067 H         1 UNK         0.0766 
    103 H103      -56.6741  -24.4078   16.2379 H         1 UNK         0.0798 
    104 H104      -57.7658  -24.9302   14.9554 H         1 UNK         0.0798 
    105 H105      -56.5161  -23.7392   14.6227 H         1 UNK         0.0798 
    106 H106      -55.1832  -27.1001   16.3426 H         1 UNK         0.3198 
    107 H107      -57.9083  -29.0307   17.1565 H         1 UNK         0.0843 
    108 H108      -55.8460  -30.3383   15.2928 H         1 UNK         0.0831 
    109 H109      -57.5913  -30.4176   15.1061 H         1 UNK         0.0831 
    110 H110      -56.8311  -31.1801   16.4905 H         1 UNK         0.0831 
    111 H111      -55.0554  -29.4860   17.4602 H         1 UNK         0.3133 
    112 H112      -54.4811  -27.0848   19.9250 H         1 UNK         0.0566 
    113 H113      -54.8019  -30.0848   20.4801 H         1 UNK         0.0814 
    114 H114      -53.8572  -28.9446   21.4402 H         1 UNK         0.0814 
    115 H115      -55.6037  -28.7963   21.3670 H         1 UNK         0.0814 
    116 H116      -52.8226  -29.2101   19.1778 H         1 UNK         0.3091 
    117 H117      -50.9913  -28.7407   17.8923 H         1 UNK         0.0702 
    118 H118      -51.0335  -29.8012   15.6159 H         1 UNK         0.0785 
    119 H119      -52.5891  -29.0359   15.2809 H         1 UNK         0.0785 
    120 H120      -52.4522  -30.2511   16.5429 H         1 UNK         0.0785 
    121 H121      -50.8686  -27.2405   15.4404 H         1 UNK         0.2998 
    122 H122      -49.8903  -24.1832   16.6032 H         1 UNK         0.0697 
    123 H123      -47.6536  -26.2044   16.0281 H         1 UNK         0.0825 
    124 H124      -47.7604  -25.1735   17.4469 H         1 UNK         0.0825 
    125 H125      -47.5286  -24.4512   15.8661 H         1 UNK         0.0825 
    126 H126      -49.1350  -25.5179   14.1879 H         1 UNK         0.3029 
    127 H127      -51.0131  -25.8484   12.3841 H         1 UNK         0.0897 
    128 H128      -52.3035  -24.2253   10.9972 H         1 UNK         0.0792 
    129 H129      -52.3907  -23.1050   12.3576 H         1 UNK         0.0792 
    130 H130      -53.2090  -24.6614   12.4339 H         1 UNK         0.0792 
    131 H131      -49.4260  -23.4698   12.8408 H         1 UNK         0.3086 
    132 H132      -48.0776  -22.6284   11.1544 H         1 UNK         0.0583 
    133 H133      -45.9224  -23.5100   11.7051 H         1 UNK         0.1020 
    134 H134      -47.0457  -24.2860   12.7595 H         1 UNK         0.1020 
    135 H135      -45.9559  -27.6513   12.7117 H         1 UNK         0.0694 
    136 H136      -47.2236  -26.5445   13.1607 H         1 UNK         0.0694 
    137 H137      -47.9465  -24.3476    8.8385 H         1 UNK         0.2989 
    138 H138      -47.6050  -22.6079    6.8706 H         1 UNK         0.1055 
    139 H139      -46.1396  -20.6345    6.9270 H         1 UNK         0.0806 
    140 H140      -45.6033  -21.7237    5.6580 H         1 UNK         0.0806 
    141 H141      -44.7167  -21.6303    7.1798 H         1 UNK         0.0806 
    142 H142      -46.8933  -24.6632    6.5617 H         1 UNK         0.3061 
    143 H143      -43.8392  -26.2747    6.3612 H         1 UNK         0.0734 
    144 H144      -44.9278  -28.1139    7.6447 H         1 UNK         0.0832 
    145 H145      -44.3595  -26.8523    8.7283 H         1 UNK         0.0832 
    146 H146      -46.0716  -26.9639    8.3391 H         1 UNK         0.0832 
    147 H147      -46.7105  -26.8356    5.9935 H         1 UNK         0.3156 
    148 H148      -46.6316  -26.1062    2.4996 H         1 UNK         0.0589 
    149 H149      -46.9528  -28.7583    4.0105 H         1 UNK         0.0808 
    150 H150      -47.5582  -28.4051    2.3916 H         1 UNK         0.0808 
    151 H151      -45.8297  -28.4652    2.6905 H         1 UNK         0.0808 
    152 H152      -48.6913  -27.0099    4.2842 H         1 UNK         0.3098 
    153 H153      -49.7802  -23.8606    5.4234 H         1 UNK         0.0720 
    154 H154      -51.9273  -24.4001    4.3047 H         1 UNK         0.0791 
    155 H155      -51.1198  -25.5543    3.2438 H         1 UNK         0.0791 
    156 H156      -50.7610  -23.8369    3.1190 H         1 UNK         0.0791 
    157 H157      -51.0593  -26.3733    5.6321 H         1 UNK         0.3028 
@<TRIPOS>BOND
     1    1    2 1    
     2    1   82 1    
     3    1   83 1    
     4    1   84 1    
     5    2    3 2    
     6    2    4 am   BACKBONE|DICT|INTERRES
     7    4    5 1    
     8    4   85 1    
     9    5    6 1    
    10    5   80 1    
    11    5   86 1    
    12    6    7 1    
    13    6   87 1    
    14    6   88 1    
    15    7    8 1    
    16    8    9 1    
    17    8   89 1    
    18    8   90 1    
    19    9   10 ar   
    20    9   14 ar   
    21   10   11 ar   
    22   10   91 1    
    23   11   12 ar   
    24   11   58 1    
    25   12   13 ar   
    26   12   92 1    
    27   13   14 ar   
    28   13   15 1    
    29   14   93 1    
    30   15   16 1    
    31   15   94 1    
    32   15   95 1    
    33   16   17 1    
    34   17   18 1    
    35   17   96 1    
    36   17   97 1    
    37   18   19 1    
    38   18   22 1    
    39   18   98 1    
    40   19   20 am   BACKBONE|DICT|INTERRES
    41   19   21 2    
    42   20   99 1    
    43   20  100 1    
    44   22   23 am   BACKBONE|DICT|INTERRES
    45   22  101 1    
    46   23   24 2    
    47   23   25 1    
    48   25   26 1    
    49   25   27 1    
    50   25  102 1    
    51   26  103 1    
    52   26  104 1    
    53   26  105 1    
    54   27   28 am   BACKBONE|DICT|INTERRES
    55   27  106 1    
    56   28   29 2    
    57   28   30 1    
    58   30   31 1    
    59   30   32 1    
    60   30  107 1    
    61   31  108 1    
    62   31  109 1    
    63   31  110 1    
    64   32   33 am   BACKBONE|DICT|INTERRES
    65   32  111 1    
    66   33   34 2    
    67   33   35 1    
    68   35   36 1    
    69   35   37 1    
    70   35  112 1    
    71   36  113 1    
    72   36  114 1    
    73   36  115 1    
    74   37   38 am   BACKBONE|DICT|INTERRES
    75   37  116 1    
    76   38   39 2    
    77   38   40 1    
    78   40   41 1    
    79   40   42 1    
    80   40  117 1    
    81   41  118 1    
    82   41  119 1    
    83   41  120 1    
    84   42   43 am   BACKBONE|DICT|INTERRES
    85   42  121 1    
    86   43   44 2    
    87   43   45 1    
    88   45   46 1    
    89   45   47 1    
    90   45  122 1    
    91   46  123 1    
    92   46  124 1    
    93   46  125 1    
    94   47   48 am   BACKBONE|DICT|INTERRES
    95   47  126 1    
    96   48   49 2    
    97   48   50 1    
    98   50   51 1    
    99   50   52 1    
   100   50  127 1    
   101   51  128 1    
   102   51  129 1    
   103   51  130 1    
   104   52   53 am   BACKBONE|DICT|INTERRES
   105   52  131 1    
   106   53   54 2    
   107   53   55 1    
   108   55   56 1    
   109   55   59 1    
   110   55  132 1    
   111   56   57 1    
   112   56  133 1    
   113   56  134 1    
   114   57   58 1    
   115   58  135 1    
   116   58  136 1    
   117   59   60 am   BACKBONE|DICT|INTERRES
   118   59  137 1    
   119   60   61 2    
   120   60   62 1    
   121   62   63 1    
   122   62   64 1    
   123   62  138 1    
   124   63  139 1    
   125   63  140 1    
   126   63  141 1    
   127   64   65 am   BACKBONE|DICT|INTERRES
   128   64  142 1    
   129   65   66 2    
   130   65   67 1    
   131   67   68 1    
   132   67   69 1    
   133   67  143 1    
   134   68  144 1    
   135   68  145 1    
   136   68  146 1    
   137   69   70 am   BACKBONE|DICT|INTERRES
   138   69  147 1    
   139   70   71 2    
   140   70   72 1    
   141   72   73 1    
   142   72   74 1    
   143   72  148 1    
   144   73  149 1    
   145   73  150 1    
   146   73  151 1    
   147   74   75 am   BACKBONE|DICT|INTERRES
   148   74  152 1    
   149   75   76 2    
   150   75   77 1    
   151   77   78 1    
   152   77   79 1    
   153   77  153 1    
   154   78  154 1    
   155   78  155 1    
   156   78  156 1    
   157   79   80 am   BACKBONE|DICT|INTERRES
   158   79  157 1    
   159   80   81 2    
@<TRIPOS>SUBSTRUCTURE
     1 UNK         1 GROUP             0       ****    0 ROOT    
