@<TRIPOS>MOLECULE
3R207
157   159    1
SMALL
USER_CHARGES


@<TRIPOS>ATOM
      1 CA        -47.1862  -29.9003    3.3759 C.3       0 UNK        -0.1975 
      2 C         -47.7567  -28.6880    4.0959 C.2       0 UNK         0.4852 
      3 O         -47.8781  -27.6188    3.4972 O.2       0 UNK        -0.5216 
      4 N         -48.0867  -28.8337    5.3858 N.am      1 UNK        -0.4461 
      5 CA        -48.7114  -27.8226    6.2541 C.3       1 UNK         0.0864 
      6 C6        -49.4021  -28.4928    7.4715 C.3       14 UNK        -0.0898 
      7 S7        -50.7314  -29.6354    6.9697 S.3       14 UNK        -0.2598 
      8 C8        -51.8485  -29.5295    8.4110 C.3       14 UNK         0.0286 
      9 C9        -52.7059  -28.2650    8.5213 C.ar      14 UNK        -0.0844 
     10 C10       -52.5622  -27.1537    7.6789 C.ar      14 UNK        -0.0881 
     11 C11       -53.3605  -26.0194    7.8485 C.ar      14 UNK        -0.0643 
     12 C12       -54.3466  -26.0186    8.8402 C.ar      14 UNK        -0.0930 
     13 C13       -54.5057  -27.1130    9.6936 C.ar      14 UNK        -0.0827 
     14 C14       -53.6737  -28.2248    9.5285 C.ar      14 UNK        -0.1249 
     15 C15       -55.5451  -27.0543   10.8111 C.3       14 UNK         0.0141 
     16 S16       -56.6625  -28.4944   10.8504 S.3       14 UNK        -0.2313 
     17 C17       -55.7748  -29.6353   11.9671 C.3       14 UNK        -0.0915 
     18 CA        -56.5010  -29.8378   13.3213 C.3       13 UNK         0.0968 
     19 C         -55.8698  -31.0073   14.1341 C.2       13 UNK         0.5732 
     20 N         -55.4143  -30.8138   15.3671 N.am      13 UNK        -0.7310 
     21 O         -55.8046  -32.1293   13.6373 O.2       13 UNK        -0.5035 
     22 N         -56.5992  -28.5791   14.0753 N.am      13 UNK        -0.4233 
     23 C         -57.5931  -28.2824   14.9228 C.2       13 UNK         0.4989 
     24 O         -58.5869  -28.9945   15.0805 O.2       13 UNK        -0.4996 
     25 CA        -57.4572  -26.9748   15.7343 C.3       12 UNK         0.0216 
     26 CB        -58.2779  -27.0021   17.0419 C.3       12 UNK        -0.1964 
     27 N         -56.0676  -26.5858   16.0134 N.am      12 UNK        -0.4276 
     28 C         -55.1344  -27.3148   16.6422 C.2       12 UNK         0.5020 
     29 O         -55.3184  -28.4493   17.0890 O.2       12 UNK        -0.5489 
     30 CA        -53.7388  -26.6814   16.7411 C.3       11 UNK         0.0294 
     31 CB        -53.2715  -26.5960   18.2033 C.3       11 UNK        -0.2019 
     32 N         -52.7376  -27.4081   15.9583 N.am      11 UNK        -0.4493 
     33 C         -52.8012  -27.7014   14.6522 C.2       11 UNK         0.4932 
     34 O         -53.7764  -27.4583   13.9391 O.2       11 UNK        -0.5029 
     35 CA        -51.5351  -28.3378   14.0448 C.3       10 UNK         0.0280 
     36 CB        -51.6751  -28.6356   12.5407 C.3       10 UNK        -0.1976 
     37 N         -50.3697  -27.4735   14.2576 N.am      10 UNK        -0.4242 
     38 C         -49.6436  -27.4305   15.3856 C.2       10 UNK         0.5072 
     39 O         -49.8575  -28.1572   16.3571 O.2       10 UNK        -0.5224 
     40 CA        -48.5313  -26.3744   15.4725 C.3       9 UNK         0.0343 
     41 CB        -47.2056  -26.9261   14.9289 C.3       9 UNK        -0.2003 
     42 N         -48.9028  -25.1405   14.7726 N.am      9 UNK        -0.4272 
     43 C         -49.6962  -24.2065   15.3212 C.2       9 UNK         0.4988 
     44 O         -50.1093  -24.2572   16.4807 O.2       9 UNK        -0.5108 
     45 CA        -50.1162  -23.0247   14.4327 C.3       8 UNK         0.0248 
     46 CB        -48.9030  -22.2300   13.9295 C.3       8 UNK        -0.2001 
     47 N         -50.9421  -23.4516   13.3020 N.am      8 UNK        -0.4140 
     48 C         -52.1792  -23.9608   13.4120 C.2       8 UNK         0.5028 
     49 O         -52.7656  -24.0754   14.4882 O.2       8 UNK        -0.5428 
     50 CA        -52.9205  -24.3825   12.1263 C.3       7 UNK         0.0264 
     51 CB        -54.3118  -23.7282   12.0550 C.3       7 UNK        -0.1988 
     52 N         -52.2067  -24.0920   10.8810 N.am      7 UNK        -0.4454 
     53 C         -51.1523  -24.7698   10.4151 C.2       7 UNK         0.5027 
     54 O         -50.6205  -25.6926   11.0349 O.2       7 UNK        -0.5083 
     55 CA        -50.5696  -24.3436    9.0459 C.3       6 UNK         0.0844 
     56 C56       -51.2459  -23.1262    8.3410 C.3       14 UNK        -0.0967 
     57 S57       -53.0189  -23.2463    7.9009 S.3       14 UNK        -0.2604 
     58 C58       -53.1597  -24.8006    6.9544 C.3       14 UNK         0.0134 
     59 N         -49.1224  -24.1594    9.1748 N.am      6 UNK        -0.4116 
     60 C         -48.5000  -23.2318    9.9206 C.2       5 UNK         0.5034 
     61 O         -49.0849  -22.3528   10.5567 O.2       5 UNK        -0.5045 
     62 CA        -46.9632  -23.3407    9.9766 C.3       5 UNK         0.0224 
     63 CB        -46.2902  -22.3698   10.9685 C.3       5 UNK        -0.1978 
     64 N         -46.5234  -24.7184   10.2117 N.am      5 UNK        -0.4737 
     65 C         -46.8852  -25.5341   11.2157 C.2       4 UNK         0.5027 
     66 O         -47.5276  -25.1691   12.2018 O.2       4 UNK        -0.5211 
     67 CA        -46.5138  -27.0223   11.0724 C.3       4 UNK         0.0297 
     68 CB        -47.7918  -27.8801   11.0167 C.3       4 UNK        -0.1993 
     69 N         -45.7319  -27.2784    9.8591 N.am      4 UNK        -0.4486 
     70 C         -44.3950  -27.3565    9.8041 C.2       3 UNK         0.4961 
     71 O         -43.6646  -27.3046   10.7937 O.2       3 UNK        -0.5105 
     72 CA        -43.7553  -27.5042    8.4088 C.3       3 UNK         0.0299 
     73 CB        -43.4759  -28.9847    8.1039 C.3       3 UNK        -0.1972 
     74 N         -44.5598  -26.9343    7.3227 N.am      3 UNK        -0.4305 
     75 C         -44.8337  -25.6302    7.1669 C.2       2 UNK         0.5006 
     76 O         -44.4014  -24.7473    7.9066 O.2       2 UNK        -0.5106 
     77 CA        -45.8099  -25.2509    6.0376 C.3       2 UNK         0.0296 
     78 CB        -45.0455  -24.9806    4.7322 C.3       2 UNK        -0.2002 
     79 N         -46.8541  -26.2528    5.7926 N.am      2 UNK        -0.4032 
     80 C         -47.7277  -26.7125    6.6989 C.2       1 UNK         0.5000 
     81 O         -47.7483  -26.3057    7.8627 O.2       1 UNK        -0.5238 
     82 H82       -47.8140  -30.1586    2.5235 H         1 UNK         0.0889 
     83 H83       -47.1257  -30.7712    4.0284 H         1 UNK         0.0889 
     84 H84       -46.1843  -29.6814    3.0077 H         1 UNK         0.0889 
     85 H85       -47.9570  -29.7375    5.8183 H         1 UNK         0.3028 
     86 H86       -49.4839  -27.3149    5.6725 H         1 UNK         0.0864 
     87 H87       -48.6772  -29.0469    8.0706 H         1 UNK         0.0720 
     88 H88       -49.8311  -27.7411    8.1364 H         1 UNK         0.0720 
     89 H89       -51.2584  -29.6379    9.3225 H         1 UNK         0.0814 
     90 H90       -52.5138  -30.3935    8.3736 H         1 UNK         0.0814 
     91 H91       -51.8238  -27.1535    6.8918 H         1 UNK         0.1469 
     92 H92       -54.9747  -25.1470    8.9612 H         1 UNK         0.1381 
     93 H93       -53.7772  -29.0759   10.1832 H         1 UNK         0.1206 
     94 H94       -55.0414  -26.9417   11.7696 H         1 UNK         0.0813 
     95 H95       -56.1673  -26.1658   10.6969 H         1 UNK         0.0813 
     96 H96       -54.7634  -29.2744   12.1479 H         1 UNK         0.0638 
     97 H97       -55.6711  -30.5831   11.4358 H         1 UNK         0.0638 
     98 H98       -57.5133  -30.1722   13.0868 H         1 UNK         0.0568 
     99 H99       -55.0210  -31.5948   15.8663 H         1 UNK         0.3450 
    100 H100      -55.4718  -29.9085   15.8243 H         1 UNK         0.3450 
    101 H101      -55.7827  -27.9787   14.0335 H         1 UNK         0.2987 
    102 H102      -57.8719  -26.1890   15.1012 H         1 UNK         0.0766 
    103 H103      -58.1871  -26.0630   17.5876 H         1 UNK         0.0798 
    104 H104      -57.9549  -27.8068   17.7035 H         1 UNK         0.0798 
    105 H105      -59.3387  -27.1538   16.8386 H         1 UNK         0.0798 
    106 H106      -55.7879  -25.6868   15.6438 H         1 UNK         0.3198 
    107 H107      -53.7834  -25.6655   16.3451 H         1 UNK         0.0843 
    108 H108      -53.1510  -27.5854   18.6468 H         1 UNK         0.0831 
    109 H109      -53.9938  -26.0511   18.8125 H         1 UNK         0.0831 
    110 H110      -52.3187  -26.0718   18.2845 H         1 UNK         0.0831 
    111 H111      -51.8850  -27.6659   16.4424 H         1 UNK         0.3133 
    112 H112      -51.3711  -29.2905   14.5526 H         1 UNK         0.0566 
    113 H113      -51.9556  -27.7480   11.9733 H         1 UNK         0.0814 
    114 H114      -50.7464  -29.0207   12.1198 H         1 UNK         0.0814 
    115 H115      -52.4423  -29.3893   12.3670 H         1 UNK         0.0814 
    116 H116      -50.1606  -26.8122   13.5216 H         1 UNK         0.3091 
    117 H117      -48.3745  -26.1438   16.5287 H         1 UNK         0.0702 
    118 H118      -46.4237  -26.1666   14.9352 H         1 UNK         0.0785 
    119 H119      -47.3094  -27.2941   13.9109 H         1 UNK         0.0785 
    120 H120      -46.8557  -27.7605   15.5380 H         1 UNK         0.0785 
    121 H121      -48.5594  -25.0282   13.8200 H         1 UNK         0.2998 
    122 H122      -50.7186  -22.3509   15.0458 H         1 UNK         0.0697 
    123 H123      -48.2880  -22.8297   13.2624 H         1 UNK         0.0825 
    124 H124      -48.2720  -21.9068   14.7584 H         1 UNK         0.0825 
    125 H125      -49.2101  -21.3373   13.3844 H         1 UNK         0.0825 
    126 H126      -50.5251  -23.3903   12.3828 H         1 UNK         0.3029 
    127 H127      -53.0583  -25.4640   12.1861 H         1 UNK         0.0897 
    128 H128      -54.9241  -24.0156   12.9108 H         1 UNK         0.0792 
    129 H129      -54.8525  -24.0320   11.1595 H         1 UNK         0.0792 
    130 H130      -54.2440  -22.6397   12.0520 H         1 UNK         0.0792 
    131 H131      -52.5890  -23.3596   10.2977 H         1 UNK         0.3086 
    132 H132      -50.6805  -25.2089    8.3944 H         1 UNK         0.0583 
    133 H133      -51.1266  -22.2248    8.9441 H         1 UNK         0.1020 
    134 H134      -50.7087  -22.9168    7.4145 H         1 UNK         0.1020 
    135 H135      -54.0186  -24.7223    6.2866 H         1 UNK         0.0694 
    136 H136      -52.2824  -24.9136    6.3156 H         1 UNK         0.0694 
    137 H137      -48.5550  -24.8918    8.7535 H         1 UNK         0.2989 
    138 H138      -46.6163  -23.0714    8.9775 H         1 UNK         0.1055 
    139 H139      -46.6455  -21.3482   10.8288 H         1 UNK         0.0806 
    140 H140      -45.2100  -22.3564   10.8239 H         1 UNK         0.0806 
    141 H141      -46.4753  -22.6455   12.0045 H         1 UNK         0.0806 
    142 H142      -45.9686  -25.1205    9.4672 H         1 UNK         0.3061 
    143 H143      -45.9392  -27.3084   11.9552 H         1 UNK         0.0734 
    144 H144      -47.5592  -28.9404   10.9206 H         1 UNK         0.0832 
    145 H145      -48.3920  -27.7598   11.9183 H         1 UNK         0.0832 
    146 H146      -48.4293  -27.5953   10.1797 H         1 UNK         0.0832 
    147 H147      -46.2594  -27.2789    8.9940 H         1 UNK         0.3156 
    148 H148      -42.8009  -26.9738    8.4290 H         1 UNK         0.0589 
    149 H149      -44.3961  -29.5680    8.0499 H         1 UNK         0.0808 
    150 H150      -42.9453  -29.1033    7.1589 H         1 UNK         0.0808 
    151 H151      -42.8529  -29.4316    8.8801 H         1 UNK         0.0808 
    152 H152      -44.9541  -27.5856    6.6598 H         1 UNK         0.3098 
    153 H153      -46.3109  -24.3284    6.3381 H         1 UNK         0.0720 
    154 H154      -45.7123  -24.6158    3.9506 H         1 UNK         0.0791 
    155 H155      -44.5515  -25.8788    4.3592 H         1 UNK         0.0791 
    156 H156      -44.2759  -24.2213    4.8796 H         1 UNK         0.0791 
    157 H157      -46.9443  -26.6134    4.8464 H         1 UNK         0.3028 
@<TRIPOS>BOND
     1    1    2 1    
     2    1   82 1    
     3    1   83 1    
     4    1   84 1    
     5    2    3 2    
     6    2    4 am   BACKBONE|DICT|INTERRES
     7    4    5 1    
     8    4   85 1    
     9    5    6 1    
    10    5   80 1    
    11    5   86 1    
    12    6    7 1    
    13    6   87 1    
    14    6   88 1    
    15    7    8 1    
    16    8    9 1    
    17    8   89 1    
    18    8   90 1    
    19    9   10 ar   
    20    9   14 ar   
    21   10   11 ar   
    22   10   91 1    
    23   11   12 ar   
    24   11   58 1    
    25   12   13 ar   
    26   12   92 1    
    27   13   14 ar   
    28   13   15 1    
    29   14   93 1    
    30   15   16 1    
    31   15   94 1    
    32   15   95 1    
    33   16   17 1    
    34   17   18 1    
    35   17   96 1    
    36   17   97 1    
    37   18   19 1    
    38   18   22 1    
    39   18   98 1    
    40   19   20 am   BACKBONE|DICT|INTERRES
    41   19   21 2    
    42   20   99 1    
    43   20  100 1    
    44   22   23 am   BACKBONE|DICT|INTERRES
    45   22  101 1    
    46   23   24 2    
    47   23   25 1    
    48   25   26 1    
    49   25   27 1    
    50   25  102 1    
    51   26  103 1    
    52   26  104 1    
    53   26  105 1    
    54   27   28 am   BACKBONE|DICT|INTERRES
    55   27  106 1    
    56   28   29 2    
    57   28   30 1    
    58   30   31 1    
    59   30   32 1    
    60   30  107 1    
    61   31  108 1    
    62   31  109 1    
    63   31  110 1    
    64   32   33 am   BACKBONE|DICT|INTERRES
    65   32  111 1    
    66   33   34 2    
    67   33   35 1    
    68   35   36 1    
    69   35   37 1    
    70   35  112 1    
    71   36  113 1    
    72   36  114 1    
    73   36  115 1    
    74   37   38 am   BACKBONE|DICT|INTERRES
    75   37  116 1    
    76   38   39 2    
    77   38   40 1    
    78   40   41 1    
    79   40   42 1    
    80   40  117 1    
    81   41  118 1    
    82   41  119 1    
    83   41  120 1    
    84   42   43 am   BACKBONE|DICT|INTERRES
    85   42  121 1    
    86   43   44 2    
    87   43   45 1    
    88   45   46 1    
    89   45   47 1    
    90   45  122 1    
    91   46  123 1    
    92   46  124 1    
    93   46  125 1    
    94   47   48 am   BACKBONE|DICT|INTERRES
    95   47  126 1    
    96   48   49 2    
    97   48   50 1    
    98   50   51 1    
    99   50   52 1    
   100   50  127 1    
   101   51  128 1    
   102   51  129 1    
   103   51  130 1    
   104   52   53 am   BACKBONE|DICT|INTERRES
   105   52  131 1    
   106   53   54 2    
   107   53   55 1    
   108   55   56 1    
   109   55   59 1    
   110   55  132 1    
   111   56   57 1    
   112   56  133 1    
   113   56  134 1    
   114   57   58 1    
   115   58  135 1    
   116   58  136 1    
   117   59   60 am   BACKBONE|DICT|INTERRES
   118   59  137 1    
   119   60   61 2    
   120   60   62 1    
   121   62   63 1    
   122   62   64 1    
   123   62  138 1    
   124   63  139 1    
   125   63  140 1    
   126   63  141 1    
   127   64   65 am   BACKBONE|DICT|INTERRES
   128   64  142 1    
   129   65   66 2    
   130   65   67 1    
   131   67   68 1    
   132   67   69 1    
   133   67  143 1    
   134   68  144 1    
   135   68  145 1    
   136   68  146 1    
   137   69   70 am   BACKBONE|DICT|INTERRES
   138   69  147 1    
   139   70   71 2    
   140   70   72 1    
   141   72   73 1    
   142   72   74 1    
   143   72  148 1    
   144   73  149 1    
   145   73  150 1    
   146   73  151 1    
   147   74   75 am   BACKBONE|DICT|INTERRES
   148   74  152 1    
   149   75   76 2    
   150   75   77 1    
   151   77   78 1    
   152   77   79 1    
   153   77  153 1    
   154   78  154 1    
   155   78  155 1    
   156   78  156 1    
   157   79   80 am   BACKBONE|DICT|INTERRES
   158   79  157 1    
   159   80   81 2    
@<TRIPOS>SUBSTRUCTURE
     1 UNK         1 GROUP             0       ****    0 ROOT    
