@<TRIPOS>MOLECULE
3R207
157   159    1
SMALL
USER_CHARGES


@<TRIPOS>ATOM
      1 CA        -46.9891  -27.5729    2.2590 C.3       0 UNK        -0.1975 
      2 C         -47.9934  -27.1633    3.3261 C.2       0 UNK         0.4852 
      3 O         -48.8382  -26.3032    3.0727 O.2       0 UNK        -0.5216 
      4 N         -47.9133  -27.7786    4.5132 N.am      1 UNK        -0.4461 
      5 CA        -48.7578  -27.4824    5.6749 C.3       1 UNK         0.0864 
      6 C6        -48.6695  -28.6023    6.7420 C.3       14 UNK        -0.0898 
      7 S7        -49.4158  -30.1413    6.0947 S.3       14 UNK        -0.2598 
      8 C8        -50.1301  -30.9418    7.5746 C.3       14 UNK         0.0286 
      9 C9        -51.4445  -30.3640    8.1078 C.ar      14 UNK        -0.0844 
     10 C10       -51.9120  -29.0837    7.7840 C.ar      14 UNK        -0.0881 
     11 C11       -53.0928  -28.5873    8.3444 C.ar      14 UNK        -0.0643 
     12 C12       -53.8346  -29.3923    9.2129 C.ar      14 UNK        -0.0930 
     13 C13       -53.4002  -30.6839    9.5227 C.ar      14 UNK        -0.0827 
     14 C14       -52.2039  -31.1556    8.9751 C.ar      14 UNK        -0.1249 
     15 C15       -54.2361  -31.5883   10.4179 C.3       14 UNK         0.0141 
     16 S16       -53.4026  -31.9740   11.9890 S.3       14 UNK        -0.2313 
     17 C17       -53.6256  -30.4217   12.9175 C.3       14 UNK        -0.0915 
     18 CA        -54.8651  -30.4604   13.8501 C.3       13 UNK         0.0968 
     19 C         -54.6306  -31.3465   15.1068 C.2       13 UNK         0.5732 
     20 N         -55.0636  -32.5995   15.0795 N.am      13 UNK        -0.7310 
     21 O         -54.0370  -30.9133   16.0925 O.2       13 UNK        -0.5035 
     22 N         -55.2837  -29.1003   14.2106 N.am      13 UNK        -0.4233 
     23 C         -56.4533  -28.7874   14.7846 C.2       13 UNK         0.4989 
     24 O         -57.3547  -29.6020   14.9883 O.2       13 UNK        -0.4996 
     25 CA        -56.6664  -27.3235   15.2074 C.3       12 UNK         0.0216 
     26 CB        -56.5324  -27.1818   16.7327 C.3       12 UNK        -0.1964 
     27 N         -55.7388  -26.3974   14.5494 N.am      12 UNK        -0.4276 
     28 C         -55.9293  -25.8875   13.3222 C.2       12 UNK         0.5020 
     29 O         -56.9147  -26.1560   12.6326 O.2       12 UNK        -0.5489 
     30 CA        -54.8476  -24.9502   12.7417 C.3       11 UNK         0.0294 
     31 CB        -55.4497  -23.7693   11.9523 C.3       11 UNK        -0.2019 
     32 N         -53.8540  -24.4816   13.7134 N.am      11 UNK        -0.4493 
     33 C         -54.0487  -23.7179   14.7992 C.2       11 UNK         0.4932 
     34 O         -55.1305  -23.2076   15.0934 O.2       11 UNK        -0.5029 
     35 CA        -52.8324  -23.5326   15.7335 C.3       10 UNK         0.0280 
     36 CB        -53.2458  -23.1751   17.1766 C.3       10 UNK        -0.1976 
     37 N         -51.9082  -24.6775   15.7395 N.am      10 UNK        -0.4242 
     38 C         -52.2071  -25.9609   16.0074 C.2       10 UNK         0.5072 
     39 O         -53.3432  -26.3396   16.2951 O.2       10 UNK        -0.5224 
     40 CA        -51.0882  -27.0137   15.8858 C.3       9 UNK         0.0343 
     41 CB        -51.5661  -28.2231   15.0657 C.3       9 UNK        -0.2003 
     42 N         -49.8846  -26.4778   15.2516 N.am      9 UNK        -0.4272 
     43 C         -48.7920  -26.0477   15.8959 C.2       9 UNK         0.4988 
     44 O         -48.6405  -26.1191   17.1157 O.2       9 UNK        -0.5108 
     45 CA        -47.6884  -25.3968   15.0387 C.3       8 UNK         0.0248 
     46 CB        -46.6234  -26.4380   14.6628 C.3       8 UNK        -0.2001 
     47 N         -48.1910  -24.7444   13.8226 N.am      8 UNK        -0.4140 
     48 C         -49.0620  -23.7234   13.8163 C.2       8 UNK         0.5028 
     49 O         -49.5006  -23.1952   14.8383 O.2       8 UNK        -0.5428 
     50 CA        -49.5928  -23.2540   12.4538 C.3       7 UNK         0.0264 
     51 CB        -48.6360  -22.2314   11.8267 C.3       7 UNK        -0.1988 
     52 N         -49.8293  -24.3527   11.5145 N.am      7 UNK        -0.4454 
     53 C         -50.7144  -25.3433   11.6996 C.2       7 UNK         0.5027 
     54 O         -51.4248  -25.4458   12.7004 O.2       7 UNK        -0.5083 
     55 CA        -50.7708  -26.4315   10.6110 C.3       6 UNK         0.0844 
     56 C56       -51.3873  -25.9105    9.2866 C.3       14 UNK        -0.0967 
     57 S57       -53.2108  -25.9797    9.3063 S.3       14 UNK        -0.2604 
     58 C58       -53.5782  -27.1880    7.9935 C.3       14 UNK         0.0134 
     59 N         -49.4485  -27.0412   10.4355 N.am      6 UNK        -0.4116 
     60 C         -48.8874  -27.8534   11.3446 C.2       5 UNK         0.5034 
     61 O         -49.4400  -28.1931   12.3906 O.2       5 UNK        -0.5045 
     62 CA        -47.4678  -28.3793   11.0690 C.3       5 UNK         0.0224 
     63 CB        -47.5192  -29.7808   10.4440 C.3       5 UNK        -0.1978 
     64 N         -46.6109  -27.5239   10.2433 N.am      5 UNK        -0.4737 
     65 C         -46.2446  -26.2689   10.5322 C.2       4 UNK         0.5027 
     66 O         -46.7243  -25.6214   11.4641 O.2       4 UNK        -0.5211 
     67 CA        -45.1429  -25.6456    9.6528 C.3       4 UNK         0.0297 
     68 CB        -44.5236  -26.6130    8.6216 C.3       4 UNK        -0.1993 
     69 N         -45.6777  -24.4810    8.9559 N.am      4 UNK        -0.4486 
     70 C         -45.6746  -23.2347    9.4478 C.2       3 UNK         0.4961 
     71 O         -45.0785  -22.9065   10.4747 O.2       3 UNK        -0.5105 
     72 CA        -46.4545  -22.1515    8.6759 C.3       3 UNK         0.0299 
     73 CB        -45.4811  -21.1636    8.0108 C.3       3 UNK        -0.1972 
     74 N         -47.3898  -22.6433    7.6596 N.am      3 UNK        -0.4305 
     75 C         -48.4424  -23.4495    7.8562 C.2       2 UNK         0.5006 
     76 O         -48.7369  -23.9456    8.9440 O.2       2 UNK        -0.5106 
     77 CA        -49.3093  -23.7798    6.6248 C.3       2 UNK         0.0296 
     78 CB        -48.8845  -23.0348    5.3377 C.3       2 UNK        -0.2002 
     79 N         -49.4025  -25.2175    6.3425 N.am      2 UNK        -0.4032 
     80 C         -48.3926  -26.0969    6.2436 C.2       1 UNK         0.5000 
     81 O         -47.2203  -25.8549    6.5450 O.2       1 UNK        -0.5238 
     82 H82       -47.5095  -27.9530    1.3803 H         1 UNK         0.0889 
     83 H83       -46.3109  -28.3489    2.6135 H         1 UNK         0.0889 
     84 H84       -46.3921  -26.7129    1.9567 H         1 UNK         0.0889 
     85 H85       -47.1937  -28.4702    4.6657 H         1 UNK         0.3028 
     86 H86       -49.7908  -27.4375    5.3216 H         1 UNK         0.0864 
     87 H87       -47.6310  -28.7983    7.0150 H         1 UNK         0.0720 
     88 H88       -49.1741  -28.3114    7.6640 H         1 UNK         0.0720 
     89 H89       -49.3936  -30.9511    8.3757 H         1 UNK         0.0814 
     90 H90       -50.2969  -31.9883    7.3148 H         1 UNK         0.0814 
     91 H91       -51.3665  -28.4595    7.0954 H         1 UNK         0.1469 
     92 H92       -54.7550  -29.0139    9.6364 H         1 UNK         0.1381 
     93 H93       -51.8647  -32.1514    9.2275 H         1 UNK         0.1206 
     94 H94       -55.2126  -31.1470   10.6236 H         1 UNK         0.0813 
     95 H95       -54.4307  -32.5222    9.8887 H         1 UNK         0.0813 
     96 H96       -52.7135  -30.2298   13.4832 H         1 UNK         0.0638 
     97 H97       -53.7093  -29.6019   12.2024 H         1 UNK         0.0638 
     98 H98       -55.6941  -30.8909   13.2843 H         1 UNK         0.0568 
     99 H99       -54.9095  -33.1886   15.8824 H         1 UNK         0.3450 
    100 H100      -55.5297  -32.9704   14.2665 H         1 UNK         0.3450 
    101 H101      -54.5893  -28.3759   14.1190 H         1 UNK         0.2987 
    102 H102      -57.6885  -27.0495   14.9366 H         1 UNK         0.0766 
    103 H103      -56.6639  -26.1471   17.0502 H         1 UNK         0.0798 
    104 H104      -55.5587  -27.5213   17.0875 H         1 UNK         0.0798 
    105 H105      -57.2882  -27.7777   17.2460 H         1 UNK         0.0798 
    106 H106      -54.9012  -26.1500   15.0708 H         1 UNK         0.3198 
    107 H107      -54.2885  -25.5629   12.0342 H         1 UNK         0.0843 
    108 H108      -56.0813  -23.1409   12.5805 H         1 UNK         0.0831 
    109 H109      -56.0657  -24.1253   11.1257 H         1 UNK         0.0831 
    110 H110      -54.6689  -23.1421   11.5224 H         1 UNK         0.0831 
    111 H111      -52.9114  -24.8352   13.5472 H         1 UNK         0.3133 
    112 H112      -52.2685  -22.6902   15.3309 H         1 UNK         0.0566 
    113 H113      -52.3737  -23.0280   17.8137 H         1 UNK         0.0814 
    114 H114      -53.8232  -22.2502   17.2030 H         1 UNK         0.0814 
    115 H115      -53.8611  -23.9563   17.6246 H         1 UNK         0.0814 
    116 H116      -50.9527  -24.4494   15.4827 H         1 UNK         0.3091 
    117 H117      -50.8592  -27.3580   16.8961 H         1 UNK         0.0702 
    118 H118      -52.4212  -28.7067   15.5393 H         1 UNK         0.0785 
    119 H119      -51.8647  -27.9305   14.0580 H         1 UNK         0.0785 
    120 H120      -50.7819  -28.9748   14.9741 H         1 UNK         0.0785 
    121 H121      -49.9274  -26.3780   14.2446 H         1 UNK         0.2998 
    122 H122      -47.2124  -24.6264   15.6486 H         1 UNK         0.0697 
    123 H123      -47.0457  -27.2383   14.0557 H         1 UNK         0.0825 
    124 H124      -46.1935  -26.8969   15.5542 H         1 UNK         0.0825 
    125 H125      -45.8040  -25.9863   14.1033 H         1 UNK         0.0825 
    126 H126      -47.8332  -25.0891   12.9333 H         1 UNK         0.3029 
    127 H127      -50.5519  -22.7614   12.6278 H         1 UNK         0.0897 
    128 H128      -47.6626  -22.6760   11.6187 H         1 UNK         0.0792 
    129 H129      -48.4734  -21.3848   12.4951 H         1 UNK         0.0792 
    130 H130      -49.0351  -21.8365   10.8925 H         1 UNK         0.0792 
    131 H131      -49.2926  -24.3285   10.6481 H         1 UNK         0.3086 
    132 H132      -51.4231  -27.2255   10.9841 H         1 UNK         0.0583 
    133 H133      -51.0923  -24.8838    9.0701 H         1 UNK         0.1020 
    134 H134      -51.0221  -26.4977    8.4462 H         1 UNK         0.1020 
    135 H135      -54.6570  -27.2103    7.8316 H         1 UNK         0.0694 
    136 H136      -53.1395  -26.8475    7.0543 H         1 UNK         0.0694 
    137 H137      -48.8964  -26.7433    9.6458 H         1 UNK         0.2989 
    138 H138      -46.9823  -28.4708   12.0423 H         1 UNK         0.1055 
    139 H139      -48.2204  -30.4289   10.9727 H         1 UNK         0.0806 
    140 H140      -46.5435  -30.2658   10.4807 H         1 UNK         0.0806 
    141 H141      -47.8290  -29.7373    9.4019 H         1 UNK         0.0806 
    142 H142      -46.1636  -27.9678    9.4545 H         1 UNK         0.3061 
    143 H143      -44.3423  -25.3363   10.3279 H         1 UNK         0.0734 
    144 H144      -43.7310  -26.1211    8.0573 H         1 UNK         0.0832 
    145 H145      -44.0706  -27.4766    9.1108 H         1 UNK         0.0832 
    146 H146      -45.2547  -26.9792    7.9005 H         1 UNK         0.0832 
    147 H147      -46.2244  -24.6711    8.1232 H         1 UNK         0.3156 
    148 H148      -47.0417  -21.5995    9.4111 H         1 UNK         0.0589 
    149 H149      -44.8789  -21.6483    7.2412 H         1 UNK         0.0808 
    150 H150      -46.0112  -20.3299    7.5499 H         1 UNK         0.0808 
    151 H151      -44.7923  -20.7387    8.7426 H         1 UNK         0.0808 
    152 H152      -47.2252  -22.3219    6.7168 H         1 UNK         0.3098 
    153 H153      -50.3180  -23.4498    6.8775 H         1 UNK         0.0720 
    154 H154      -49.5756  -23.2470    4.5215 H         1 UNK         0.0791 
    155 H155      -47.8896  -23.3304    5.0013 H         1 UNK         0.0791 
    156 H156      -48.8900  -21.9529    5.4783 H         1 UNK         0.0791 
    157 H157      -50.3242  -25.5326    6.0762 H         1 UNK         0.3028 
@<TRIPOS>BOND
     1    1    2 1    
     2    1   82 1    
     3    1   83 1    
     4    1   84 1    
     5    2    3 2    
     6    2    4 am   BACKBONE|DICT|INTERRES
     7    4    5 1    
     8    4   85 1    
     9    5    6 1    
    10    5   80 1    
    11    5   86 1    
    12    6    7 1    
    13    6   87 1    
    14    6   88 1    
    15    7    8 1    
    16    8    9 1    
    17    8   89 1    
    18    8   90 1    
    19    9   10 ar   
    20    9   14 ar   
    21   10   11 ar   
    22   10   91 1    
    23   11   12 ar   
    24   11   58 1    
    25   12   13 ar   
    26   12   92 1    
    27   13   14 ar   
    28   13   15 1    
    29   14   93 1    
    30   15   16 1    
    31   15   94 1    
    32   15   95 1    
    33   16   17 1    
    34   17   18 1    
    35   17   96 1    
    36   17   97 1    
    37   18   19 1    
    38   18   22 1    
    39   18   98 1    
    40   19   20 am   BACKBONE|DICT|INTERRES
    41   19   21 2    
    42   20   99 1    
    43   20  100 1    
    44   22   23 am   BACKBONE|DICT|INTERRES
    45   22  101 1    
    46   23   24 2    
    47   23   25 1    
    48   25   26 1    
    49   25   27 1    
    50   25  102 1    
    51   26  103 1    
    52   26  104 1    
    53   26  105 1    
    54   27   28 am   BACKBONE|DICT|INTERRES
    55   27  106 1    
    56   28   29 2    
    57   28   30 1    
    58   30   31 1    
    59   30   32 1    
    60   30  107 1    
    61   31  108 1    
    62   31  109 1    
    63   31  110 1    
    64   32   33 am   BACKBONE|DICT|INTERRES
    65   32  111 1    
    66   33   34 2    
    67   33   35 1    
    68   35   36 1    
    69   35   37 1    
    70   35  112 1    
    71   36  113 1    
    72   36  114 1    
    73   36  115 1    
    74   37   38 am   BACKBONE|DICT|INTERRES
    75   37  116 1    
    76   38   39 2    
    77   38   40 1    
    78   40   41 1    
    79   40   42 1    
    80   40  117 1    
    81   41  118 1    
    82   41  119 1    
    83   41  120 1    
    84   42   43 am   BACKBONE|DICT|INTERRES
    85   42  121 1    
    86   43   44 2    
    87   43   45 1    
    88   45   46 1    
    89   45   47 1    
    90   45  122 1    
    91   46  123 1    
    92   46  124 1    
    93   46  125 1    
    94   47   48 am   BACKBONE|DICT|INTERRES
    95   47  126 1    
    96   48   49 2    
    97   48   50 1    
    98   50   51 1    
    99   50   52 1    
   100   50  127 1    
   101   51  128 1    
   102   51  129 1    
   103   51  130 1    
   104   52   53 am   BACKBONE|DICT|INTERRES
   105   52  131 1    
   106   53   54 2    
   107   53   55 1    
   108   55   56 1    
   109   55   59 1    
   110   55  132 1    
   111   56   57 1    
   112   56  133 1    
   113   56  134 1    
   114   57   58 1    
   115   58  135 1    
   116   58  136 1    
   117   59   60 am   BACKBONE|DICT|INTERRES
   118   59  137 1    
   119   60   61 2    
   120   60   62 1    
   121   62   63 1    
   122   62   64 1    
   123   62  138 1    
   124   63  139 1    
   125   63  140 1    
   126   63  141 1    
   127   64   65 am   BACKBONE|DICT|INTERRES
   128   64  142 1    
   129   65   66 2    
   130   65   67 1    
   131   67   68 1    
   132   67   69 1    
   133   67  143 1    
   134   68  144 1    
   135   68  145 1    
   136   68  146 1    
   137   69   70 am   BACKBONE|DICT|INTERRES
   138   69  147 1    
   139   70   71 2    
   140   70   72 1    
   141   72   73 1    
   142   72   74 1    
   143   72  148 1    
   144   73  149 1    
   145   73  150 1    
   146   73  151 1    
   147   74   75 am   BACKBONE|DICT|INTERRES
   148   74  152 1    
   149   75   76 2    
   150   75   77 1    
   151   77   78 1    
   152   77   79 1    
   153   77  153 1    
   154   78  154 1    
   155   78  155 1    
   156   78  156 1    
   157   79   80 am   BACKBONE|DICT|INTERRES
   158   79  157 1    
   159   80   81 2    
@<TRIPOS>SUBSTRUCTURE
     1 UNK         1 GROUP             0       ****    0 ROOT    
