@<TRIPOS>MOLECULE
3R207
157   159    1
SMALL
USER_CHARGES


@<TRIPOS>ATOM
      1 CA        -49.7049  -28.4953   10.2374 C.3       0 UNK        -0.1975 
      2 C         -48.9830  -28.0346    8.9804 C.2       0 UNK         0.4852 
      3 O         -48.7493  -26.8358    8.8174 O.2       0 UNK        -0.5216 
      4 N         -48.6150  -28.9837    8.1085 N.am      1 UNK        -0.4461 
      5 CA        -48.0285  -28.7803    6.7740 C.3       1 UNK         0.0864 
      6 C6        -49.0233  -28.1238    5.7762 C.3       14 UNK        -0.0898 
      7 S7        -50.3980  -29.2489    5.3758 S.3       14 UNK        -0.2598 
      8 C8        -51.7639  -28.0790    5.0803 C.3       14 UNK         0.0286 
      9 C9        -52.4968  -27.6576    6.3502 C.ar      14 UNK        -0.0844 
     10 C10       -52.8382  -26.3156    6.5481 C.ar      14 UNK        -0.0881 
     11 C11       -53.5964  -25.9278    7.6586 C.ar      14 UNK        -0.0643 
     12 C12       -54.0027  -26.8936    8.5840 C.ar      14 UNK        -0.0930 
     13 C13       -53.6718  -28.2388    8.3967 C.ar      14 UNK        -0.0827 
     14 C14       -52.9175  -28.6131    7.2818 C.ar      14 UNK        -0.1249 
     15 C15       -54.1804  -29.2947    9.3654 C.3       14 UNK         0.0141 
     16 S16       -53.3191  -29.2067   10.9605 S.3       14 UNK        -0.2313 
     17 C17       -54.1332  -30.5679   11.8607 C.3       14 UNK        -0.0915 
     18 CA        -55.4683  -30.1411   12.5296 C.3       13 UNK         0.0968 
     19 C         -56.2363  -31.3662   13.1106 C.2       13 UNK         0.5732 
     20 N         -56.6408  -31.3800   14.3758 N.am      13 UNK        -0.7310 
     21 O         -56.4851  -32.3290   12.3888 O.2       13 UNK        -0.5035 
     22 N         -55.2752  -29.0392   13.4852 N.am      13 UNK        -0.4233 
     23 C         -56.2074  -28.1310   13.7968 C.2       13 UNK         0.4989 
     24 O         -57.3129  -28.0717   13.2547 O.2       13 UNK        -0.4996 
     25 CA        -55.8389  -27.1323   14.9128 C.3       12 UNK         0.0216 
     26 CB        -57.0628  -26.3663   15.4584 C.3       12 UNK        -0.1964 
     27 N         -55.0862  -27.7360   16.0212 N.am      12 UNK        -0.4276 
     28 C         -55.4531  -28.7769   16.7856 C.2       12 UNK         0.5020 
     29 O         -56.4684  -29.4475   16.5957 O.2       12 UNK        -0.5489 
     30 CA        -54.5293  -29.1389   17.9611 C.3       11 UNK         0.0294 
     31 CB        -53.4018  -30.0747   17.4986 C.3       11 UNK        -0.2019 
     32 N         -53.9493  -27.9662   18.6194 N.am      11 UNK        -0.4493 
     33 C         -54.6276  -27.0601   19.3355 C.2       11 UNK         0.4932 
     34 O         -55.8336  -27.1428   19.5689 O.2       11 UNK        -0.5029 
     35 CA        -53.8474  -25.8447   19.8781 C.3       10 UNK         0.0280 
     36 CB        -53.2557  -26.1404   21.2705 C.3       10 UNK        -0.1976 
     37 N         -52.8349  -25.3026   18.9565 N.am      10 UNK        -0.4242 
     38 C         -51.6977  -25.8718   18.5341 C.2       10 UNK         0.5072 
     39 O         -51.2837  -26.9669   18.9231 O.2       10 UNK        -0.5224 
     40 CA        -50.9133  -25.1060   17.4553 C.3       9 UNK         0.0343 
     41 CB        -49.7049  -24.3850   18.0729 C.3       9 UNK        -0.2003 
     42 N         -50.4511  -25.9895   16.3817 N.am      9 UNK        -0.4272 
     43 C         -51.2281  -26.7753   15.6249 C.2       9 UNK         0.4988 
     44 O         -52.4575  -26.8103   15.7153 O.2       9 UNK        -0.5108 
     45 CA        -50.5058  -27.6569   14.5876 C.3       8 UNK         0.0248 
     46 CB        -51.4540  -28.6656   13.9182 C.3       8 UNK        -0.2001 
     47 N         -49.8654  -26.8537   13.5441 N.am      8 UNK        -0.4140 
     48 C         -48.7291  -26.1602   13.6863 C.2       8 UNK         0.5028 
     49 O         -48.0823  -26.1380   14.7357 O.2       8 UNK        -0.5428 
     50 CA        -48.2041  -25.3664   12.4750 C.3       7 UNK         0.0264 
     51 CB        -46.8395  -25.9133   12.0239 C.3       7 UNK        -0.1988 
     52 N         -49.0835  -25.3146   11.3027 N.am      7 UNK        -0.4454 
     53 C         -50.2481  -24.6575   11.2062 C.2       7 UNK         0.5027 
     54 O         -50.8455  -24.1751   12.1692 O.2       7 UNK        -0.5083 
     55 CA        -50.7718  -24.4594    9.7654 C.3       6 UNK         0.0844 
     56 C56       -52.0955  -23.6472    9.7030 C.3       14 UNK        -0.0967 
     57 S57       -52.6541  -23.3235    7.9947 S.3       14 UNK        -0.2604 
     58 C58       -54.0454  -24.4808    7.8142 C.3       14 UNK         0.0134 
     59 N         -49.6834  -23.9209    8.9350 N.am      6 UNK        -0.4116 
     60 C         -49.1141  -22.7118    9.0602 C.2       5 UNK         0.5034 
     61 O         -49.5241  -21.8317    9.8184 O.2       5 UNK        -0.5045 
     62 CA        -47.8427  -22.4320    8.2428 C.3       5 UNK         0.0224 
     63 CB        -46.6252  -22.3159    9.1759 C.3       5 UNK        -0.1978 
     64 N         -47.5516  -23.4371    7.2176 N.am      5 UNK        -0.4737 
     65 C         -48.1156  -23.4586    6.0009 C.2       4 UNK         0.5027 
     66 O         -49.0346  -22.7079    5.6712 O.2       4 UNK        -0.5211 
     67 CA        -47.5465  -24.4673    4.9779 C.3       4 UNK         0.0297 
     68 CB        -47.7744  -24.0305    3.5160 C.3       4 UNK        -0.1993 
     69 N         -46.1338  -24.7981    5.2084 N.am      4 UNK        -0.4486 
     70 C         -45.0917  -23.9503    5.2625 C.2       3 UNK         0.4961 
     71 O         -45.1661  -22.7581    4.9611 O.2       3 UNK        -0.5105 
     72 CA        -43.7427  -24.5168    5.7636 C.3       3 UNK         0.0299 
     73 CB        -42.9483  -23.4779    6.5838 C.3       3 UNK        -0.1972 
     74 N         -43.8551  -25.7783    6.5120 N.am      3 UNK        -0.4305 
     75 C         -44.5610  -26.0041    7.6312 C.2       2 UNK         0.5006 
     76 O         -45.2122  -25.1469    8.2308 O.2       2 UNK        -0.5106 
     77 CA        -44.6187  -27.4669    8.1039 C.3       2 UNK         0.0296 
     78 CB        -44.2025  -27.5903    9.5787 C.3       2 UNK        -0.2002 
     79 N         -45.9535  -28.0485    7.9211 N.am      2 UNK        -0.4032 
     80 C         -46.6404  -28.0952    6.7679 C.2       1 UNK         0.5000 
     81 O         -46.1958  -27.6540    5.7050 O.2       1 UNK        -0.5238 
     82 H82       -50.0147  -29.5380   10.1692 H         1 UNK         0.0889 
     83 H83       -50.6000  -27.8945   10.3932 H         1 UNK         0.0889 
     84 H84       -49.0580  -28.3879   11.1070 H         1 UNK         0.0889 
     85 H85       -48.8254  -29.9476    8.3284 H         1 UNK         0.3028 
     86 H86       -47.8157  -29.7833    6.4006 H         1 UNK         0.0864 
     87 H87       -49.4132  -27.1874    6.1784 H         1 UNK         0.0720 
     88 H88       -48.5442  -27.8768    4.8273 H         1 UNK         0.0720 
     89 H89       -52.4862  -28.5570    4.4173 H         1 UNK         0.0814 
     90 H90       -51.3824  -27.2117    4.5389 H         1 UNK         0.0814 
     91 H91       -52.5437  -25.5701    5.8219 H         1 UNK         0.1469 
     92 H92       -54.6027  -26.6072    9.4371 H         1 UNK         0.1381 
     93 H93       -52.6803  -29.6561    7.1221 H         1 UNK         0.1206 
     94 H94       -55.2509  -29.1541    9.5205 H         1 UNK         0.0813 
     95 H95       -54.0570  -30.2939    8.9448 H         1 UNK         0.0813 
     96 H96       -53.4367  -30.9401   12.6139 H         1 UNK         0.0638 
     97 H97       -54.2899  -31.3920   11.1622 H         1 UNK         0.0638 
     98 H98       -56.1128  -29.7705   11.7308 H         1 UNK         0.0568 
     99 H99       -57.1397  -32.1864   14.7151 H         1 UNK         0.3450 
    100 H100      -56.4934  -30.5900   14.9957 H         1 UNK         0.3450 
    101 H101      -54.4000  -29.0278   13.9850 H         1 UNK         0.2987 
    102 H102      -55.1696  -26.4028   14.4542 H         1 UNK         0.0766 
    103 H103      -57.5645  -25.8097   14.6659 H         1 UNK         0.0798 
    104 H104      -56.7705  -25.6466   16.2232 H         1 UNK         0.0798 
    105 H105      -57.7969  -27.0422   15.8986 H         1 UNK         0.0798 
    106 H106      -54.1696  -27.3215   16.1879 H         1 UNK         0.3198 
    107 H107      -55.1341  -29.6720   18.6979 H         1 UNK         0.0843 
    108 H108      -52.7064  -29.5673   16.8308 H         1 UNK         0.0831 
    109 H109      -53.8011  -30.9390   16.9656 H         1 UNK         0.0831 
    110 H110      -52.8313  -30.4534   18.3468 H         1 UNK         0.0831 
    111 H111      -52.9478  -27.8203   18.5223 H         1 UNK         0.3133 
    112 H112      -54.5775  -25.0433   20.0031 H         1 UNK         0.0566 
    113 H113      -52.7538  -25.2651   21.6827 H         1 UNK         0.0814 
    114 H114      -52.5366  -26.9596   21.2463 H         1 UNK         0.0814 
    115 H115      -54.0412  -26.4238   21.9722 H         1 UNK         0.0814 
    116 H116      -53.0826  -24.4133   18.5440 H         1 UNK         0.3091 
    117 H117      -51.5692  -24.3605   17.0011 H         1 UNK         0.0702 
    118 H118      -49.1671  -23.8000   17.3264 H         1 UNK         0.0785 
    119 H119      -49.0011  -25.0899   18.5177 H         1 UNK         0.0785 
    120 H120      -50.0191  -23.6970   18.8591 H         1 UNK         0.0785 
    121 H121      -49.4537  -26.0073   16.1931 H         1 UNK         0.2998 
    122 H122      -49.7359  -28.2236   15.1156 H         1 UNK         0.0697 
    123 H123      -52.2774  -28.1570   13.4176 H         1 UNK         0.0825 
    124 H124      -51.8857  -29.3470   14.6504 H         1 UNK         0.0825 
    125 H125      -50.9344  -29.2761   13.1794 H         1 UNK         0.0825 
    126 H126      -50.3656  -26.7607   12.6734 H         1 UNK         0.3029 
    127 H127      -48.0609  -24.3395   12.8181 H         1 UNK         0.0897 
    128 H128      -46.9186  -26.9402   11.6654 H         1 UNK         0.0792 
    129 H129      -46.1207  -25.9086   12.8445 H         1 UNK         0.0792 
    130 H130      -46.4140  -25.3093   11.2218 H         1 UNK         0.0792 
    131 H131      -48.7108  -25.7120   10.4444 H         1 UNK         0.3086 
    132 H132      -50.9896  -25.4546    9.3752 H         1 UNK         0.0583 
    133 H133      -52.8815  -24.1704   10.2503 H         1 UNK         0.1020 
    134 H134      -51.9815  -22.6834   10.2020 H         1 UNK         0.1020 
    135 H135      -54.7252  -24.3650    8.6599 H         1 UNK         0.0694 
    136 H136      -54.6157  -24.1985    6.9282 H         1 UNK         0.0694 
    137 H137      -49.2471  -24.5859    8.3103 H         1 UNK         0.2989 
    138 H138      -47.9850  -21.4663    7.7521 H         1 UNK         0.1055 
    139 H139      -46.4541  -23.2393    9.7303 H         1 UNK         0.0806 
    140 H140      -46.7649  -21.5187    9.9072 H         1 UNK         0.0806 
    141 H141      -45.7168  -22.0876    8.6179 H         1 UNK         0.0806 
    142 H142      -46.7969  -24.0857    7.4243 H         1 UNK         0.3061 
    143 H143      -48.1009  -25.3923    5.1332 H         1 UNK         0.0734 
    144 H144      -47.2984  -23.0733    3.3014 H         1 UNK         0.0832 
    145 H145      -47.3801  -24.7669    2.8159 H         1 UNK         0.0832 
    146 H146      -48.8380  -23.9194    3.3015 H         1 UNK         0.0832 
    147 H147      -45.9607  -25.7735    5.4432 H         1 UNK         0.3156 
    148 H148      -43.1630  -24.7460    4.8684 H         1 UNK         0.0589 
    149 H149      -41.9936  -23.8825    6.9197 H         1 UNK         0.0808 
    150 H150      -42.7293  -22.5901    5.9893 H         1 UNK         0.0808 
    151 H151      -43.5021  -23.1501    7.4643 H         1 UNK         0.0808 
    152 H152      -43.4058  -26.5728    6.0766 H         1 UNK         0.3098 
    153 H153      -43.9210  -28.0590    7.5083 H         1 UNK         0.0720 
    154 H154      -43.2014  -27.1865    9.7353 H         1 UNK         0.0791 
    155 H155      -44.1862  -28.6308    9.9036 H         1 UNK         0.0791 
    156 H156      -44.8782  -27.0430   10.2350 H         1 UNK         0.0791 
    157 H157      -46.4074  -28.4073    8.7473 H         1 UNK         0.3028 
@<TRIPOS>BOND
     1    1    2 1    
     2    1   82 1    
     3    1   83 1    
     4    1   84 1    
     5    2    3 2    
     6    2    4 am   BACKBONE|DICT|INTERRES
     7    4    5 1    
     8    4   85 1    
     9    5    6 1    
    10    5   80 1    
    11    5   86 1    
    12    6    7 1    
    13    6   87 1    
    14    6   88 1    
    15    7    8 1    
    16    8    9 1    
    17    8   89 1    
    18    8   90 1    
    19    9   10 ar   
    20    9   14 ar   
    21   10   11 ar   
    22   10   91 1    
    23   11   12 ar   
    24   11   58 1    
    25   12   13 ar   
    26   12   92 1    
    27   13   14 ar   
    28   13   15 1    
    29   14   93 1    
    30   15   16 1    
    31   15   94 1    
    32   15   95 1    
    33   16   17 1    
    34   17   18 1    
    35   17   96 1    
    36   17   97 1    
    37   18   19 1    
    38   18   22 1    
    39   18   98 1    
    40   19   20 am   BACKBONE|DICT|INTERRES
    41   19   21 2    
    42   20   99 1    
    43   20  100 1    
    44   22   23 am   BACKBONE|DICT|INTERRES
    45   22  101 1    
    46   23   24 2    
    47   23   25 1    
    48   25   26 1    
    49   25   27 1    
    50   25  102 1    
    51   26  103 1    
    52   26  104 1    
    53   26  105 1    
    54   27   28 am   BACKBONE|DICT|INTERRES
    55   27  106 1    
    56   28   29 2    
    57   28   30 1    
    58   30   31 1    
    59   30   32 1    
    60   30  107 1    
    61   31  108 1    
    62   31  109 1    
    63   31  110 1    
    64   32   33 am   BACKBONE|DICT|INTERRES
    65   32  111 1    
    66   33   34 2    
    67   33   35 1    
    68   35   36 1    
    69   35   37 1    
    70   35  112 1    
    71   36  113 1    
    72   36  114 1    
    73   36  115 1    
    74   37   38 am   BACKBONE|DICT|INTERRES
    75   37  116 1    
    76   38   39 2    
    77   38   40 1    
    78   40   41 1    
    79   40   42 1    
    80   40  117 1    
    81   41  118 1    
    82   41  119 1    
    83   41  120 1    
    84   42   43 am   BACKBONE|DICT|INTERRES
    85   42  121 1    
    86   43   44 2    
    87   43   45 1    
    88   45   46 1    
    89   45   47 1    
    90   45  122 1    
    91   46  123 1    
    92   46  124 1    
    93   46  125 1    
    94   47   48 am   BACKBONE|DICT|INTERRES
    95   47  126 1    
    96   48   49 2    
    97   48   50 1    
    98   50   51 1    
    99   50   52 1    
   100   50  127 1    
   101   51  128 1    
   102   51  129 1    
   103   51  130 1    
   104   52   53 am   BACKBONE|DICT|INTERRES
   105   52  131 1    
   106   53   54 2    
   107   53   55 1    
   108   55   56 1    
   109   55   59 1    
   110   55  132 1    
   111   56   57 1    
   112   56  133 1    
   113   56  134 1    
   114   57   58 1    
   115   58  135 1    
   116   58  136 1    
   117   59   60 am   BACKBONE|DICT|INTERRES
   118   59  137 1    
   119   60   61 2    
   120   60   62 1    
   121   62   63 1    
   122   62   64 1    
   123   62  138 1    
   124   63  139 1    
   125   63  140 1    
   126   63  141 1    
   127   64   65 am   BACKBONE|DICT|INTERRES
   128   64  142 1    
   129   65   66 2    
   130   65   67 1    
   131   67   68 1    
   132   67   69 1    
   133   67  143 1    
   134   68  144 1    
   135   68  145 1    
   136   68  146 1    
   137   69   70 am   BACKBONE|DICT|INTERRES
   138   69  147 1    
   139   70   71 2    
   140   70   72 1    
   141   72   73 1    
   142   72   74 1    
   143   72  148 1    
   144   73  149 1    
   145   73  150 1    
   146   73  151 1    
   147   74   75 am   BACKBONE|DICT|INTERRES
   148   74  152 1    
   149   75   76 2    
   150   75   77 1    
   151   77   78 1    
   152   77   79 1    
   153   77  153 1    
   154   78  154 1    
   155   78  155 1    
   156   78  156 1    
   157   79   80 am   BACKBONE|DICT|INTERRES
   158   79  157 1    
   159   80   81 2    
@<TRIPOS>SUBSTRUCTURE
     1 UNK         1 GROUP             0       ****    0 ROOT    
