@<TRIPOS>MOLECULE
3R207
157   159    1
SMALL
USER_CHARGES


@<TRIPOS>ATOM
      1 CA        -46.3780  -28.3912   12.0464 C.3       0 UNK        -0.1975 
      2 C         -46.9511  -28.0149   10.6893 C.2       0 UNK         0.4852 
      3 O         -47.3867  -26.8786   10.4991 O.2       0 UNK        -0.5216 
      4 N         -46.9339  -28.9625    9.7427 N.am      1 UNK        -0.4461 
      5 CA        -47.4067  -28.8674    8.3498 C.3       1 UNK         0.0864 
      6 C6        -48.8735  -28.3853    8.1909 C.3       14 UNK        -0.0898 
      7 S7        -50.0241  -29.4839    9.0907 S.3       14 UNK        -0.2598 
      8 C8        -51.1830  -30.0214    7.7941 C.3       14 UNK         0.0286 
      9 C9        -52.5145  -29.3026    7.9365 C.ar      14 UNK        -0.0844 
     10 C10       -52.6959  -28.0308    7.3866 C.ar      14 UNK        -0.0881 
     11 C11       -53.9027  -27.3463    7.5653 C.ar      14 UNK        -0.0643 
     12 C12       -54.9530  -27.9748    8.2445 C.ar      14 UNK        -0.0930 
     13 C13       -54.7854  -29.2495    8.7955 C.ar      14 UNK        -0.0827 
     14 C14       -53.5606  -29.9044    8.6420 C.ar      14 UNK        -0.1249 
     15 C15       -55.9225  -29.9312    9.5476 C.3       14 UNK         0.0141 
     16 S16       -55.9248  -29.5222   11.3264 S.3       14 UNK        -0.2313 
     17 C17       -56.7753  -27.9070   11.3344 C.3       14 UNK        -0.0915 
     18 CA        -55.7737  -26.7219   11.4300 C.3       13 UNK         0.0968 
     19 C         -56.3699  -25.3565   10.9701 C.2       13 UNK         0.5732 
     20 N         -55.9175  -24.2261   11.5001 N.am      13 UNK        -0.7310 
     21 O         -57.2226  -25.3107   10.0869 O.2       13 UNK        -0.5035 
     22 N         -55.0330  -26.6826   12.6999 N.am      13 UNK        -0.4233 
     23 C         -55.5359  -26.4146   13.9102 C.2       13 UNK         0.4989 
     24 O         -56.7264  -26.1826   14.1314 O.2       13 UNK        -0.4996 
     25 CA        -54.5112  -26.3919   15.0589 C.3       12 UNK         0.0216 
     26 CB        -55.0852  -25.8369   16.3789 C.3       12 UNK        -0.1964 
     27 N         -53.8756  -27.6944   15.2816 N.am      12 UNK        -0.4276 
     28 C         -54.4811  -28.8602   15.5566 C.2       12 UNK         0.5020 
     29 O         -55.7003  -29.0065   15.6551 O.2       12 UNK        -0.5489 
     30 CA        -53.5762  -30.0857   15.7761 C.3       11 UNK         0.0294 
     31 CB        -53.4275  -30.8803   14.4680 C.3       11 UNK        -0.2019 
     32 N         -52.2473  -29.7734   16.3135 N.am      11 UNK        -0.4493 
     33 C         -52.0055  -29.2620   17.5295 C.2       11 UNK         0.4932 
     34 O         -52.8872  -28.9461   18.3288 O.2       11 UNK        -0.5029 
     35 CA        -50.5364  -29.0982   17.9439 C.3       10 UNK         0.0280 
     36 CB        -49.5595  -30.0252   17.1909 C.3       10 UNK        -0.1976 
     37 N         -50.1281  -27.7087   17.7537 N.am      10 UNK        -0.4242 
     38 C         -49.4737  -26.9690   18.6602 C.2       10 UNK         0.5072 
     39 O         -49.1971  -27.3721   19.7917 O.2       10 UNK        -0.5224 
     40 CA        -49.0042  -25.5562   18.2549 C.3       9 UNK         0.0343 
     41 CB        -47.4678  -25.4701   18.2843 C.3       9 UNK        -0.2003 
     42 N         -49.4641  -25.1355   16.9305 N.am      9 UNK        -0.4272 
     43 C         -50.6520  -24.5734   16.6738 C.2       9 UNK         0.4988 
     44 O         -51.4915  -24.3170   17.5368 O.2       9 UNK        -0.5108 
     45 CA        -50.9626  -24.2522   15.1994 C.3       8 UNK         0.0248 
     46 CB        -50.5204  -22.8186   14.8647 C.3       8 UNK        -0.2001 
     47 N         -50.3794  -25.1772   14.2163 N.am      8 UNK        -0.4140 
     48 C         -50.5038  -26.5133   14.2123 C.2       8 UNK         0.5028 
     49 O         -51.0918  -27.1481   15.0902 O.2       8 UNK        -0.5428 
     50 CA        -49.8627  -27.2606   13.0273 C.3       7 UNK         0.0264 
     51 CB        -50.2571  -28.7505   12.9750 C.3       7 UNK        -0.1988 
     52 N         -50.1215  -26.6333   11.7270 N.am      7 UNK        -0.4454 
     53 C         -51.3219  -26.3226   11.2084 C.2       7 UNK         0.5027 
     54 O         -52.3877  -26.4966   11.8023 O.2       7 UNK        -0.5083 
     55 CA        -51.3213  -25.7192    9.7874 C.3       6 UNK         0.0844 
     56 C56       -52.6674  -25.0571    9.3836 C.3       14 UNK        -0.0967 
     57 S57       -52.7515  -24.7749    7.5789 S.3       14 UNK        -0.2604 
     58 C58       -54.0761  -25.9210    7.0466 C.3       14 UNK         0.0134 
     59 N         -50.1775  -24.8374    9.5411 N.am      6 UNK        -0.4116 
     60 C         -49.8447  -23.7229   10.2017 C.2       5 UNK         0.5034 
     61 O         -50.4027  -23.3377   11.2293 O.2       5 UNK        -0.5045 
     62 CA        -48.7061  -22.8737    9.6069 C.3       5 UNK         0.0224 
     63 CB        -47.3282  -23.4107   10.0405 C.3       5 UNK        -0.1978 
     64 N         -48.7722  -22.6791    8.1465 N.am      5 UNK        -0.4737 
     65 C         -48.6463  -23.5882    7.1680 C.2       4 UNK         0.5027 
     66 O         -48.4838  -24.7929    7.3767 O.2       4 UNK        -0.5211 
     67 CA        -48.7054  -23.0858    5.7138 C.3       4 UNK         0.0297 
     68 CB        -48.5941  -21.5548    5.5655 C.3       4 UNK        -0.1993 
     69 N         -47.5937  -23.7146    5.0135 N.am      4 UNK        -0.4486 
     70 C         -47.6822  -24.7144    4.1339 C.2       3 UNK         0.4961 
     71 O         -48.7252  -25.0621    3.5791 O.2       3 UNK        -0.5105 
     72 CA        -46.3820  -25.4937    3.8663 C.3       3 UNK         0.0299 
     73 CB        -45.3826  -24.6706    3.0293 C.3       3 UNK        -0.1972 
     74 N         -45.7685  -26.0259    5.0946 N.am      3 UNK        -0.4305 
     75 C         -45.2183  -25.3698    6.1274 C.2       2 UNK         0.5006 
     76 O         -45.0870  -24.1439    6.1666 O.2       2 UNK        -0.5106 
     77 CA        -44.7600  -26.2292    7.3234 C.3       2 UNK         0.0296 
     78 CB        -44.0664  -25.3960    8.4180 C.3       2 UNK        -0.2002 
     79 N         -45.8494  -26.9932    7.9411 N.am      2 UNK        -0.4032 
     80 C         -46.4312  -28.0911    7.4403 C.2       1 UNK         0.5000 
     81 O         -46.1773  -28.5364    6.3186 O.2       1 UNK        -0.5238 
     82 H82       -45.4874  -29.0100   11.9380 H         1 UNK         0.0889 
     83 H83       -47.1133  -28.9455   12.6285 H         1 UNK         0.0889 
     84 H84       -46.0995  -27.4979   12.6051 H         1 UNK         0.0889 
     85 H85       -46.5440  -29.8636    9.9825 H         1 UNK         0.3028 
     86 H86       -47.3767  -29.8944    7.9811 H         1 UNK         0.0864 
     87 H87       -48.9932  -27.3674    8.5599 H         1 UNK         0.0720 
     88 H88       -49.1471  -28.3477    7.1355 H         1 UNK         0.0720 
     89 H89       -51.3300  -31.0985    7.8873 H         1 UNK         0.0814 
     90 H90       -50.7687  -29.8642    6.7978 H         1 UNK         0.0814 
     91 H91       -51.8829  -27.5547    6.8555 H         1 UNK         0.1469 
     92 H92       -55.8967  -27.4612    8.3684 H         1 UNK         0.1381 
     93 H93       -53.4202  -30.8848    9.0766 H         1 UNK         0.1206 
     94 H94       -55.8278  -31.0134    9.4463 H         1 UNK         0.0813 
     95 H95       -56.8838  -29.6772    9.0990 H         1 UNK         0.0813 
     96 H96       -57.4777  -27.8864   12.1684 H         1 UNK         0.0638 
     97 H97       -57.3869  -27.8400   10.4340 H         1 UNK         0.0638 
     98 H98       -55.0004  -26.9188   10.6940 H         1 UNK         0.0568 
     99 H99       -56.3006  -23.3488   11.1862 H         1 UNK         0.3450 
    100 H100      -55.2080  -24.2420   12.2137 H         1 UNK         0.3450 
    101 H101      -54.0269  -26.7987   12.5956 H         1 UNK         0.2987 
    102 H102      -53.7169  -25.7201   14.7387 H         1 UNK         0.0766 
    103 H103      -55.4971  -24.8372   16.2360 H         1 UNK         0.0798 
    104 H104      -54.3116  -25.7630   17.1438 H         1 UNK         0.0798 
    105 H105      -55.8849  -26.4666   16.7704 H         1 UNK         0.0798 
    106 H106      -52.8576  -27.6894   15.2254 H         1 UNK         0.3198 
    107 H107      -54.0767  -30.7272   16.5047 H         1 UNK         0.0843 
    108 H108      -52.9429  -30.2924   13.6891 H         1 UNK         0.0831 
    109 H109      -54.4041  -31.1772   14.0825 H         1 UNK         0.0831 
    110 H110      -52.8485  -31.7919   14.6158 H         1 UNK         0.0831 
    111 H111      -51.4582  -29.9755   15.7183 H         1 UNK         0.3133 
    112 H112      -50.4945  -29.3666   19.0015 H         1 UNK         0.0566 
    113 H113      -48.5665  -29.9838   17.6389 H         1 UNK         0.0814 
    114 H114      -49.4527  -29.7488   16.1425 H         1 UNK         0.0814 
    115 H115      -49.8849  -31.0656   17.2354 H         1 UNK         0.0814 
    116 H116      -50.3881  -27.2965   16.8604 H         1 UNK         0.3091 
    117 H117      -49.3941  -24.8622   19.0027 H         1 UNK         0.0702 
    118 H118      -47.1221  -24.4626   18.0521 H         1 UNK         0.0785 
    119 H119      -47.0110  -26.1563   17.5699 H         1 UNK         0.0785 
    120 H120      -47.0789  -25.7223   19.2719 H         1 UNK         0.0785 
    121 H121      -48.8399  -25.3094   16.1565 H         1 UNK         0.2998 
    122 H122      -52.0448  -24.2977   15.0839 H         1 UNK         0.0697 
    123 H123      -49.4361  -22.7091   14.9080 H         1 UNK         0.0825 
    124 H124      -50.9493  -22.1019   15.5667 H         1 UNK         0.0825 
    125 H125      -50.8480  -22.5248   13.8671 H         1 UNK         0.0825 
    126 H126      -49.9212  -24.7480   13.4239 H         1 UNK         0.3029 
    127 H127      -48.7868  -27.2042   13.1913 H         1 UNK         0.0897 
    128 H128      -51.3280  -28.8724   12.8151 H         1 UNK         0.0792 
    129 H129      -49.9989  -29.2638   13.9001 H         1 UNK         0.0792 
    130 H130      -49.7409  -29.2674   12.1664 H         1 UNK         0.0792 
    131 H131      -49.2978  -26.4669   11.1551 H         1 UNK         0.3086 
    132 H132      -51.1712  -26.5778    9.1354 H         1 UNK         0.0583 
    133 H133      -53.5121  -25.6765    9.6723 H         1 UNK         0.1020 
    134 H134      -52.8056  -24.1081    9.9042 H         1 UNK         0.1020 
    135 H135      -55.0326  -25.5089    7.3725 H         1 UNK         0.0694 
    136 H136      -54.1057  -25.9429    5.9566 H         1 UNK         0.0694 
    137 H137      -49.6200  -25.0465    8.7140 H         1 UNK         0.2989 
    138 H138      -48.8149  -21.8783   10.0414 H         1 UNK         0.1055 
    139 H139      -47.2676  -23.5041   11.1256 H         1 UNK         0.0806 
    140 H140      -46.5264  -22.7428    9.7261 H         1 UNK         0.0806 
    141 H141      -47.1240  -24.3953    9.6210 H         1 UNK         0.0806 
    142 H142      -48.9317  -21.7236    7.8574 H         1 UNK         0.3061 
    143 H143      -49.6603  -23.4107    5.2955 H         1 UNK         0.0734 
    144 H144      -49.4470  -21.0471    6.0175 H         1 UNK         0.0832 
    145 H145      -47.6843  -21.1642    6.0240 H         1 UNK         0.0832 
    146 H146      -48.5791  -21.2673    4.5140 H         1 UNK         0.0832 
    147 H147      -46.6817  -23.6027    5.4543 H         1 UNK         0.3156 
    148 H148      -46.6555  -26.3691    3.2750 H         1 UNK         0.0589 
    149 H149      -44.4925  -25.2532    2.7917 H         1 UNK         0.0808 
    150 H150      -45.8313  -24.3643    2.0835 H         1 UNK         0.0808 
    151 H151      -45.0612  -23.7633    3.5412 H         1 UNK         0.0808 
    152 H152      -45.8815  -27.0288    5.2301 H         1 UNK         0.3098 
    153 H153      -44.0252  -26.9389    6.9375 H         1 UNK         0.0720 
    154 H154      -43.2140  -24.8490    8.0128 H         1 UNK         0.0791 
    155 H155      -43.6900  -26.0295    9.2214 H         1 UNK         0.0791 
    156 H156      -44.7445  -24.6639    8.8577 H         1 UNK         0.0791 
    157 H157      -46.1818  -26.6737    8.8448 H         1 UNK         0.3028 
@<TRIPOS>BOND
     1    1    2 1    
     2    1   82 1    
     3    1   83 1    
     4    1   84 1    
     5    2    3 2    
     6    2    4 am   BACKBONE|DICT|INTERRES
     7    4    5 1    
     8    4   85 1    
     9    5    6 1    
    10    5   80 1    
    11    5   86 1    
    12    6    7 1    
    13    6   87 1    
    14    6   88 1    
    15    7    8 1    
    16    8    9 1    
    17    8   89 1    
    18    8   90 1    
    19    9   10 ar   
    20    9   14 ar   
    21   10   11 ar   
    22   10   91 1    
    23   11   12 ar   
    24   11   58 1    
    25   12   13 ar   
    26   12   92 1    
    27   13   14 ar   
    28   13   15 1    
    29   14   93 1    
    30   15   16 1    
    31   15   94 1    
    32   15   95 1    
    33   16   17 1    
    34   17   18 1    
    35   17   96 1    
    36   17   97 1    
    37   18   19 1    
    38   18   22 1    
    39   18   98 1    
    40   19   20 am   BACKBONE|DICT|INTERRES
    41   19   21 2    
    42   20   99 1    
    43   20  100 1    
    44   22   23 am   BACKBONE|DICT|INTERRES
    45   22  101 1    
    46   23   24 2    
    47   23   25 1    
    48   25   26 1    
    49   25   27 1    
    50   25  102 1    
    51   26  103 1    
    52   26  104 1    
    53   26  105 1    
    54   27   28 am   BACKBONE|DICT|INTERRES
    55   27  106 1    
    56   28   29 2    
    57   28   30 1    
    58   30   31 1    
    59   30   32 1    
    60   30  107 1    
    61   31  108 1    
    62   31  109 1    
    63   31  110 1    
    64   32   33 am   BACKBONE|DICT|INTERRES
    65   32  111 1    
    66   33   34 2    
    67   33   35 1    
    68   35   36 1    
    69   35   37 1    
    70   35  112 1    
    71   36  113 1    
    72   36  114 1    
    73   36  115 1    
    74   37   38 am   BACKBONE|DICT|INTERRES
    75   37  116 1    
    76   38   39 2    
    77   38   40 1    
    78   40   41 1    
    79   40   42 1    
    80   40  117 1    
    81   41  118 1    
    82   41  119 1    
    83   41  120 1    
    84   42   43 am   BACKBONE|DICT|INTERRES
    85   42  121 1    
    86   43   44 2    
    87   43   45 1    
    88   45   46 1    
    89   45   47 1    
    90   45  122 1    
    91   46  123 1    
    92   46  124 1    
    93   46  125 1    
    94   47   48 am   BACKBONE|DICT|INTERRES
    95   47  126 1    
    96   48   49 2    
    97   48   50 1    
    98   50   51 1    
    99   50   52 1    
   100   50  127 1    
   101   51  128 1    
   102   51  129 1    
   103   51  130 1    
   104   52   53 am   BACKBONE|DICT|INTERRES
   105   52  131 1    
   106   53   54 2    
   107   53   55 1    
   108   55   56 1    
   109   55   59 1    
   110   55  132 1    
   111   56   57 1    
   112   56  133 1    
   113   56  134 1    
   114   57   58 1    
   115   58  135 1    
   116   58  136 1    
   117   59   60 am   BACKBONE|DICT|INTERRES
   118   59  137 1    
   119   60   61 2    
   120   60   62 1    
   121   62   63 1    
   122   62   64 1    
   123   62  138 1    
   124   63  139 1    
   125   63  140 1    
   126   63  141 1    
   127   64   65 am   BACKBONE|DICT|INTERRES
   128   64  142 1    
   129   65   66 2    
   130   65   67 1    
   131   67   68 1    
   132   67   69 1    
   133   67  143 1    
   134   68  144 1    
   135   68  145 1    
   136   68  146 1    
   137   69   70 am   BACKBONE|DICT|INTERRES
   138   69  147 1    
   139   70   71 2    
   140   70   72 1    
   141   72   73 1    
   142   72   74 1    
   143   72  148 1    
   144   73  149 1    
   145   73  150 1    
   146   73  151 1    
   147   74   75 am   BACKBONE|DICT|INTERRES
   148   74  152 1    
   149   75   76 2    
   150   75   77 1    
   151   77   78 1    
   152   77   79 1    
   153   77  153 1    
   154   78  154 1    
   155   78  155 1    
   156   78  156 1    
   157   79   80 am   BACKBONE|DICT|INTERRES
   158   79  157 1    
   159   80   81 2    
@<TRIPOS>SUBSTRUCTURE
     1 UNK         1 GROUP             0       ****    0 ROOT    
