@<TRIPOS>MOLECULE
3R207
157   159    1
SMALL
USER_CHARGES


@<TRIPOS>ATOM
      1 CA        -45.3984  -26.4657    6.0946 C.3       0 UNK        -0.1975 
      2 C         -46.7119  -26.9644    5.5104 C.2       0 UNK         0.4852 
      3 O         -46.8589  -27.0066    4.2886 O.2       0 UNK        -0.5216 
      4 N         -47.6646  -27.3465    6.3704 N.am      1 UNK        -0.4461 
      5 CA        -48.9544  -27.9322    5.9765 C.3       1 UNK         0.0864 
      6 C6        -49.5081  -28.8489    7.0914 C.3       14 UNK        -0.0898 
      7 S7        -48.5232  -30.3714    7.2708 S.3       14 UNK        -0.2598 
      8 C8        -49.8343  -31.6082    7.5429 C.3       14 UNK         0.0286 
      9 C9        -50.5045  -31.4194    8.8964 C.ar      14 UNK        -0.0844 
     10 C10       -49.7994  -31.7187   10.0632 C.ar      14 UNK        -0.0881 
     11 C11       -50.3751  -31.5191   11.3231 C.ar      14 UNK        -0.0643 
     12 C12       -51.6904  -31.0462   11.4014 C.ar      14 UNK        -0.0930 
     13 C13       -52.4202  -30.7730   10.2391 C.ar      14 UNK        -0.0827 
     14 C14       -51.8184  -30.9523    8.9893 C.ar      14 UNK        -0.1249 
     15 C15       -53.8626  -30.2962   10.3252 C.3       14 UNK         0.0141 
     16 S16       -53.9559  -28.4878   10.2044 S.3       14 UNK        -0.2313 
     17 C17       -55.7569  -28.2073   10.0829 C.3       14 UNK        -0.0915 
     18 CA        -56.3805  -27.5631   11.3570 C.3       13 UNK         0.0968 
     19 C         -56.6640  -28.5881   12.4898 C.2       13 UNK         0.5732 
     20 N         -56.4489  -28.2743   13.7592 N.am      13 UNK        -0.7310 
     21 O         -57.1238  -29.6949   12.2184 O.2       13 UNK        -0.5035 
     22 N         -55.6504  -26.3519   11.7693 N.am      13 UNK        -0.4233 
     23 C         -55.7482  -25.1769   11.1354 C.2       13 UNK         0.4989 
     24 O         -56.6217  -24.9216   10.3034 O.2       13 UNK        -0.4996 
     25 CA        -54.6474  -24.1393   11.4245 C.3       12 UNK         0.0216 
     26 CB        -54.9744  -22.7298   10.8831 C.3       12 UNK        -0.1964 
     27 N         -54.2349  -24.0906   12.8296 N.am      12 UNK        -0.4276 
     28 C         -54.9539  -23.6612   13.8756 C.2       12 UNK         0.5020 
     29 O         -56.1244  -23.2817   13.8003 O.2       12 UNK        -0.5489 
     30 CA        -54.2204  -23.6386   15.2311 C.3       11 UNK         0.0294 
     31 CB        -55.1485  -23.2995   16.4176 C.3       11 UNK        -0.2019 
     32 N         -53.4604  -24.8647   15.5001 N.am      11 UNK        -0.4493 
     33 C         -53.9484  -26.1100   15.6116 C.2       11 UNK         0.4932 
     34 O         -55.1366  -26.3836   15.4454 O.2       11 UNK        -0.5029 
     35 CA        -52.9698  -27.2567   15.9477 C.3       10 UNK         0.0280 
     36 CB        -53.0519  -28.3723   14.8914 C.3       10 UNK        -0.1976 
     37 N         -51.5747  -26.8307   16.0768 N.am      10 UNK        -0.4242 
     38 C         -51.0483  -26.1822   17.1247 C.2       10 UNK         0.5072 
     39 O         -51.6675  -25.9264   18.1576 O.2       10 UNK        -0.5224 
     40 CA        -49.5997  -25.6851   16.9664 C.3       9 UNK         0.0343 
     41 CB        -48.5967  -26.7720   17.3859 C.3       9 UNK        -0.2003 
     42 N         -49.3015  -25.2368   15.6014 N.am      9 UNK        -0.4272 
     43 C         -49.8789  -24.1851   14.9998 C.2       9 UNK         0.4988 
     44 O         -50.7014  -23.4490   15.5443 O.2       9 UNK        -0.5108 
     45 CA        -49.5211  -23.9549   13.5234 C.3       8 UNK         0.0248 
     46 CB        -48.1419  -23.2896   13.3951 C.3       8 UNK        -0.2001 
     47 N         -49.5593  -25.2060   12.7612 N.am      8 UNK        -0.4140 
     48 C         -50.6952  -25.8673   12.4840 C.2       8 UNK         0.5028 
     49 O         -51.8139  -25.4361   12.7603 O.2       8 UNK        -0.5428 
     50 CA        -50.5813  -27.2508   11.8201 C.3       7 UNK         0.0264 
     51 CB        -50.7321  -27.1291   10.2998 C.3       7 UNK        -0.1988 
     52 N         -49.3420  -27.9597   12.1468 N.am      7 UNK        -0.4454 
     53 C         -48.9971  -28.3417   13.3869 C.2       7 UNK         0.5027 
     54 O         -49.7409  -28.2137   14.3589 O.2       7 UNK        -0.5083 
     55 CA        -47.5666  -28.8817   13.6146 C.3       6 UNK         0.0844 
     56 C56       -47.5550  -30.3938   13.9427 C.3       14 UNK        -0.0967 
     57 S57       -47.8200  -31.4700   12.4947 S.3       14 UNK        -0.2604 
     58 C58       -49.6071  -31.8458   12.6023 C.3       14 UNK         0.0134 
     59 N         -46.6120  -28.5146   12.5582 N.am      6 UNK        -0.4116 
     60 C         -46.2640  -27.2546   12.2642 C.2       5 UNK         0.5034 
     61 O         -46.7213  -26.2793   12.8669 O.2       5 UNK        -0.5045 
     62 CA        -45.2710  -27.0183   11.1080 C.3       5 UNK         0.0224 
     63 CB        -45.1328  -28.2070   10.1264 C.3       5 UNK        -0.1978 
     64 N         -45.6040  -25.7620   10.4215 N.am      5 UNK        -0.4737 
     65 C         -46.6920  -25.5305    9.6774 C.2       4 UNK         0.5027 
     66 O         -47.4227  -26.4093    9.2079 O.2       4 UNK        -0.5211 
     67 CA        -47.0384  -24.0618    9.4241 C.3       4 UNK         0.0297 
     68 CB        -46.3355  -23.5210    8.1684 C.3       4 UNK        -0.1993 
     69 N         -48.4812  -23.9976    9.2470 N.am      4 UNK        -0.4486 
     70 C         -49.2906  -22.9777    9.5468 C.2       3 UNK         0.4961 
     71 O         -48.9086  -21.9168   10.0425 O.2       3 UNK        -0.5105 
     72 CA        -50.7797  -23.1975    9.2031 C.3       3 UNK         0.0299 
     73 CB        -51.6111  -21.8991    9.2583 C.3       3 UNK        -0.1972 
     74 N         -50.9521  -23.8826    7.9110 N.am      3 UNK        -0.4305 
     75 C         -50.5147  -23.4601    6.7127 C.2       2 UNK         0.5006 
     76 O         -49.9691  -22.3741    6.5124 O.2       2 UNK        -0.5106 
     77 CA        -50.6435  -24.4717    5.5689 C.3       2 UNK         0.0296 
     78 CB        -50.3112  -23.8770    4.1858 C.3       2 UNK        -0.2002 
     79 N         -49.7491  -25.5934    5.8524 N.am      2 UNK        -0.4032 
     80 C         -50.0047  -26.8758    5.5663 C.2       1 UNK         0.5000 
     81 O         -51.0346  -27.2484    5.0007 O.2       1 UNK        -0.5238 
     82 H82       -44.5720  -27.0689    5.7198 H         1 UNK         0.0889 
     83 H83       -45.3869  -26.5232    7.1822 H         1 UNK         0.0889 
     84 H84       -45.2225  -25.4313    5.8017 H         1 UNK         0.0889 
     85 H85       -47.5016  -27.2718    7.3711 H         1 UNK         0.3028 
     86 H86       -48.7962  -28.5487    5.0885 H         1 UNK         0.0864 
     87 H87       -50.5449  -29.1269    6.8921 H         1 UNK         0.0720 
     88 H88       -49.5067  -28.3278    8.0471 H         1 UNK         0.0720 
     89 H89       -49.3945  -32.6054    7.4961 H         1 UNK         0.0814 
     90 H90       -50.5626  -31.5581    6.7319 H         1 UNK         0.0814 
     91 H91       -48.7894  -32.0952    9.9808 H         1 UNK         0.1469 
     92 H92       -52.1525  -30.8998   12.3682 H         1 UNK         0.1381 
     93 H93       -52.3754  -30.7263    8.0902 H         1 UNK         0.1206 
     94 H94       -54.3215  -30.6209   11.2604 H         1 UNK         0.0813 
     95 H95       -54.4454  -30.7468    9.5204 H         1 UNK         0.0813 
     96 H96       -55.9158  -27.5418    9.2334 H         1 UNK         0.0638 
     97 H97       -56.2657  -29.1339    9.8121 H         1 UNK         0.0638 
     98 H98       -57.3870  -27.2443   11.0804 H         1 UNK         0.0568 
     99 H99       -56.0934  -27.3744   14.0606 H         1 UNK         0.3450 
    100 H100      -56.6666  -28.9651   14.4585 H         1 UNK         0.3450 
    101 H101      -54.9144  -26.4875   12.4462 H         1 UNK         0.2987 
    102 H102      -53.7701  -24.4916   10.8796 H         1 UNK         0.0766 
    103 H103      -55.8941  -22.3326   11.3132 H         1 UNK         0.0798 
    104 H104      -54.1717  -22.0251   11.0993 H         1 UNK         0.0798 
    105 H105      -55.1062  -22.7485    9.8006 H         1 UNK         0.0798 
    106 H106      -53.2978  -24.4597   13.0030 H         1 UNK         0.3198 
    107 H107      -53.4824  -22.8382   15.1574 H         1 UNK         0.0843 
    108 H108      -55.6193  -22.3255   16.2786 H         1 UNK         0.0831 
    109 H109      -54.5948  -23.2600   17.3556 H         1 UNK         0.0831 
    110 H110      -55.9481  -24.0325   16.5297 H         1 UNK         0.0831 
    111 H111      -52.4622  -24.7317   15.6118 H         1 UNK         0.3133 
    112 H112      -53.2827  -27.6774   16.9053 H         1 UNK         0.0566 
    113 H113      -52.2977  -29.1419   15.0574 H         1 UNK         0.0814 
    114 H114      -54.0223  -28.8670   14.9233 H         1 UNK         0.0814 
    115 H115      -52.9200  -27.9812   13.8834 H         1 UNK         0.0814 
    116 H116      -50.9549  -27.0807   15.3105 H         1 UNK         0.3091 
    117 H117      -49.4708  -24.8286   17.6315 H         1 UNK         0.0702 
    118 H118      -47.5705  -26.4083   17.3309 H         1 UNK         0.0785 
    119 H119      -48.6727  -27.6610   16.7594 H         1 UNK         0.0785 
    120 H120      -48.7734  -27.0855   18.4157 H         1 UNK         0.0785 
    121 H121      -48.6503  -25.7966   15.0704 H         1 UNK         0.2998 
    122 H122      -50.2629  -23.2753   13.0977 H         1 UNK         0.0697 
    123 H123      -47.3482  -23.9013   13.8245 H         1 UNK         0.0825 
    124 H124      -48.1262  -22.3295   13.9125 H         1 UNK         0.0825 
    125 H125      -47.8899  -23.0963   12.3539 H         1 UNK         0.0825 
    126 H126      -48.6665  -25.6361   12.5442 H         1 UNK         0.3029 
    127 H127      -51.4114  -27.8571   12.1846 H         1 UNK         0.0897 
    128 H128      -50.8411  -28.1151    9.8491 H         1 UNK         0.0792 
    129 H129      -49.8808  -26.6305    9.8428 H         1 UNK         0.0792 
    130 H130      -51.6247  -26.5590   10.0390 H         1 UNK         0.0792 
    131 H131      -48.6860  -28.1078   11.3932 H         1 UNK         0.3086 
    132 H132      -47.2182  -28.3752   14.5176 H         1 UNK         0.0583 
    133 H133      -46.5818  -30.6552   14.3614 H         1 UNK         0.1020 
    134 H134      -48.2707  -30.6316   14.7323 H         1 UNK         0.1020 
    135 H135      -49.7267  -32.9081   12.8184 H         1 UNK         0.0694 
    136 H136      -50.0497  -31.3099   13.4429 H         1 UNK         0.0694 
    137 H137      -46.2285  -29.2767   12.0177 H         1 UNK         0.2989 
    138 H138      -44.2977  -26.8616   11.5757 H         1 UNK         0.1055 
    139 H139      -44.6627  -29.0641   10.6098 H         1 UNK         0.0806 
    140 H140      -44.5042  -27.9419    9.2763 H         1 UNK         0.0806 
    141 H141      -46.0942  -28.5407    9.7336 H         1 UNK         0.0806 
    142 H142      -45.0806  -24.9586   10.7423 H         1 UNK         0.3061 
    143 H143      -46.7449  -23.4725   10.2948 H         1 UNK         0.0734 
    144 H144      -46.5483  -22.4613    8.0264 H         1 UNK         0.0832 
    145 H145      -45.2527  -23.6277    8.2437 H         1 UNK         0.0832 
    146 H146      -46.6587  -24.0447    7.2690 H         1 UNK         0.0832 
    147 H147      -48.8792  -24.8671    8.9189 H         1 UNK         0.3156 
    148 H148      -51.1734  -23.8703    9.9666 H         1 UNK         0.0589 
    149 H149      -51.2231  -21.1398    8.5786 H         1 UNK         0.0808 
    150 H150      -52.6521  -22.0830    8.9944 H         1 UNK         0.0808 
    151 H151      -51.6001  -21.4724   10.2620 H         1 UNK         0.0808 
    152 H152      -51.3907  -24.7922    7.9522 H         1 UNK         0.3098 
    153 H153      -51.6820  -24.8104    5.5570 H         1 UNK         0.0720 
    154 H154      -50.4677  -24.6092    3.3934 H         1 UNK         0.0791 
    155 H155      -49.2752  -23.5405    4.1289 H         1 UNK         0.0791 
    156 H156      -50.9483  -23.0195    3.9656 H         1 UNK         0.0791 
    157 H157      -48.8751  -25.3681    6.3054 H         1 UNK         0.3028 
@<TRIPOS>BOND
     1    1    2 1    
     2    1   82 1    
     3    1   83 1    
     4    1   84 1    
     5    2    3 2    
     6    2    4 am   BACKBONE|DICT|INTERRES
     7    4    5 1    
     8    4   85 1    
     9    5    6 1    
    10    5   80 1    
    11    5   86 1    
    12    6    7 1    
    13    6   87 1    
    14    6   88 1    
    15    7    8 1    
    16    8    9 1    
    17    8   89 1    
    18    8   90 1    
    19    9   10 ar   
    20    9   14 ar   
    21   10   11 ar   
    22   10   91 1    
    23   11   12 ar   
    24   11   58 1    
    25   12   13 ar   
    26   12   92 1    
    27   13   14 ar   
    28   13   15 1    
    29   14   93 1    
    30   15   16 1    
    31   15   94 1    
    32   15   95 1    
    33   16   17 1    
    34   17   18 1    
    35   17   96 1    
    36   17   97 1    
    37   18   19 1    
    38   18   22 1    
    39   18   98 1    
    40   19   20 am   BACKBONE|DICT|INTERRES
    41   19   21 2    
    42   20   99 1    
    43   20  100 1    
    44   22   23 am   BACKBONE|DICT|INTERRES
    45   22  101 1    
    46   23   24 2    
    47   23   25 1    
    48   25   26 1    
    49   25   27 1    
    50   25  102 1    
    51   26  103 1    
    52   26  104 1    
    53   26  105 1    
    54   27   28 am   BACKBONE|DICT|INTERRES
    55   27  106 1    
    56   28   29 2    
    57   28   30 1    
    58   30   31 1    
    59   30   32 1    
    60   30  107 1    
    61   31  108 1    
    62   31  109 1    
    63   31  110 1    
    64   32   33 am   BACKBONE|DICT|INTERRES
    65   32  111 1    
    66   33   34 2    
    67   33   35 1    
    68   35   36 1    
    69   35   37 1    
    70   35  112 1    
    71   36  113 1    
    72   36  114 1    
    73   36  115 1    
    74   37   38 am   BACKBONE|DICT|INTERRES
    75   37  116 1    
    76   38   39 2    
    77   38   40 1    
    78   40   41 1    
    79   40   42 1    
    80   40  117 1    
    81   41  118 1    
    82   41  119 1    
    83   41  120 1    
    84   42   43 am   BACKBONE|DICT|INTERRES
    85   42  121 1    
    86   43   44 2    
    87   43   45 1    
    88   45   46 1    
    89   45   47 1    
    90   45  122 1    
    91   46  123 1    
    92   46  124 1    
    93   46  125 1    
    94   47   48 am   BACKBONE|DICT|INTERRES
    95   47  126 1    
    96   48   49 2    
    97   48   50 1    
    98   50   51 1    
    99   50   52 1    
   100   50  127 1    
   101   51  128 1    
   102   51  129 1    
   103   51  130 1    
   104   52   53 am   BACKBONE|DICT|INTERRES
   105   52  131 1    
   106   53   54 2    
   107   53   55 1    
   108   55   56 1    
   109   55   59 1    
   110   55  132 1    
   111   56   57 1    
   112   56  133 1    
   113   56  134 1    
   114   57   58 1    
   115   58  135 1    
   116   58  136 1    
   117   59   60 am   BACKBONE|DICT|INTERRES
   118   59  137 1    
   119   60   61 2    
   120   60   62 1    
   121   62   63 1    
   122   62   64 1    
   123   62  138 1    
   124   63  139 1    
   125   63  140 1    
   126   63  141 1    
   127   64   65 am   BACKBONE|DICT|INTERRES
   128   64  142 1    
   129   65   66 2    
   130   65   67 1    
   131   67   68 1    
   132   67   69 1    
   133   67  143 1    
   134   68  144 1    
   135   68  145 1    
   136   68  146 1    
   137   69   70 am   BACKBONE|DICT|INTERRES
   138   69  147 1    
   139   70   71 2    
   140   70   72 1    
   141   72   73 1    
   142   72   74 1    
   143   72  148 1    
   144   73  149 1    
   145   73  150 1    
   146   73  151 1    
   147   74   75 am   BACKBONE|DICT|INTERRES
   148   74  152 1    
   149   75   76 2    
   150   75   77 1    
   151   77   78 1    
   152   77   79 1    
   153   77  153 1    
   154   78  154 1    
   155   78  155 1    
   156   78  156 1    
   157   79   80 am   BACKBONE|DICT|INTERRES
   158   79  157 1    
   159   80   81 2    
@<TRIPOS>SUBSTRUCTURE
     1 UNK         1 GROUP             0       ****    0 ROOT    
