@<TRIPOS>MOLECULE
3R207
157   159    1
SMALL
USER_CHARGES


@<TRIPOS>ATOM
      1 CA        -45.3857  -28.2241    3.4682 C.3       0 UNK        -0.1975 
      2 C         -46.7692  -27.5977    3.3917 C.2       0 UNK         0.4852 
      3 O         -46.9321  -26.5440    2.7739 O.2       0 UNK        -0.5216 
      4 N         -47.7700  -28.2266    4.0227 N.am      1 UNK        -0.4461 
      5 CA        -49.1405  -27.7168    4.1339 C.3       1 UNK         0.0864 
      6 C6        -50.1194  -28.7530    4.7464 C.3       14 UNK        -0.0898 
      7 S7        -49.5110  -29.6237    6.2353 S.3       14 UNK        -0.2598 
      8 C8        -50.3226  -28.6891    7.5702 C.3       14 UNK         0.0286 
      9 C9        -50.1880  -29.4057    8.9039 C.ar      14 UNK        -0.0844 
     10 C10       -48.9492  -29.4718    9.5463 C.ar      14 UNK        -0.0881 
     11 C11       -48.8182  -30.1314   10.7724 C.ar      14 UNK        -0.0643 
     12 C12       -49.9472  -30.7134   11.3607 C.ar      14 UNK        -0.0930 
     13 C13       -51.1953  -30.6593   10.7292 C.ar      14 UNK        -0.0827 
     14 C14       -51.3019  -30.0082    9.4938 C.ar      14 UNK        -0.1249 
     15 C15       -52.3879  -31.3780   11.3634 C.3       14 UNK         0.0141 
     16 S16       -54.0146  -30.6227   11.0119 S.3       14 UNK        -0.2313 
     17 C17       -54.0907  -29.2817   12.2452 C.3       14 UNK        -0.0915 
     18 CA        -55.3016  -29.4380   13.2105 C.3       13 UNK         0.0968 
     19 C         -55.0341  -30.3892   14.4160 C.2       13 UNK         0.5732 
     20 N         -55.5633  -30.1217   15.6053 N.am      13 UNK        -0.7310 
     21 O         -54.3510  -31.4004   14.2787 O.2       13 UNK        -0.5035 
     22 N         -55.7957  -28.1239   13.6403 N.am      13 UNK        -0.4233 
     23 C         -57.0159  -27.6289   13.4037 C.2       13 UNK         0.4989 
     24 O         -57.8561  -28.1880   12.6960 O.2       13 UNK        -0.4996 
     25 CA        -57.3595  -26.2804   14.0730 C.3       12 UNK         0.0216 
     26 CB        -58.8804  -26.0605   14.2207 C.3       12 UNK        -0.1964 
     27 N         -56.6847  -26.0600   15.3599 N.am      12 UNK        -0.4276 
     28 C         -56.7454  -26.8308   16.4596 C.2       12 UNK         0.5020 
     29 O         -57.3915  -27.8784   16.5176 O.2       12 UNK        -0.5489 
     30 CA        -55.9174  -26.3944   17.6851 C.3       11 UNK         0.0294 
     31 CB        -55.2217  -27.5963   18.3510 C.3       11 UNK        -0.2019 
     32 N         -54.8957  -25.4149   17.3168 N.am      11 UNK        -0.4493 
     33 C         -54.9577  -24.0946   17.5348 C.2       11 UNK         0.4932 
     34 O         -55.8616  -23.5451   18.1641 O.2       11 UNK        -0.5029 
     35 CA        -53.8378  -23.2327   16.9198 C.3       10 UNK         0.0280 
     36 CB        -52.8041  -22.8501   17.9905 C.3       10 UNK        -0.1976 
     37 N         -53.1611  -23.8851   15.7918 N.am      10 UNK        -0.4242 
     38 C         -53.7376  -24.1185   14.6006 C.2       10 UNK         0.5072 
     39 O         -54.8835  -23.7640   14.3224 O.2       10 UNK        -0.5224 
     40 CA        -52.9462  -24.9462   13.5704 C.3       9 UNK         0.0343 
     41 CB        -52.1551  -24.0195   12.6354 C.3       9 UNK        -0.2003 
     42 N         -52.0440  -25.9293   14.1790 N.am      9 UNK        -0.4272 
     43 C         -52.4470  -26.9327   14.9761 C.2       9 UNK         0.4988 
     44 O         -53.6321  -27.1699   15.2073 O.2       9 UNK        -0.5108 
     45 CA        -51.3767  -27.7841   15.6842 C.3       8 UNK         0.0248 
     46 CB        -51.1757  -29.1170   14.9457 C.3       8 UNK        -0.2001 
     47 N         -50.0792  -27.1239   15.8376 N.am      8 UNK        -0.4140 
     48 C         -49.8471  -25.9516   16.4482 C.2       8 UNK         0.5028 
     49 O         -50.7155  -25.2879   17.0144 O.2       8 UNK        -0.5428 
     50 CA        -48.4137  -25.3969   16.3409 C.3       7 UNK         0.0264 
     51 CB        -47.5910  -25.7846   17.5796 C.3       7 UNK        -0.1988 
     52 N         -47.7151  -25.8429   15.1262 N.am      7 UNK        -0.4454 
     53 C         -48.1184  -25.5623   13.8769 C.2       7 UNK         0.5027 
     54 O         -49.0698  -24.8157   13.6370 O.2       7 UNK        -0.5083 
     55 CA        -47.3524  -26.2746   12.7406 C.3       6 UNK         0.0844 
     56 C56       -47.5628  -27.8135   12.8001 C.3       14 UNK        -0.0967 
     57 S57       -46.5419  -28.6977   11.5762 S.3       14 UNK        -0.2604 
     58 C58       -47.4515  -30.2710   11.4364 C.3       14 UNK         0.0134 
     59 N         -47.6386  -25.6975   11.4221 N.am      6 UNK        -0.4116 
     60 C         -48.7732  -25.7477   10.7121 C.2       5 UNK         0.5034 
     61 O         -49.7915  -26.3425   11.0643 O.2       5 UNK        -0.5045 
     62 CA        -48.7758  -25.0025    9.3638 C.3       5 UNK         0.0224 
     63 CB        -48.8662  -23.4783    9.5693 C.3       5 UNK        -0.1978 
     64 N         -47.6735  -25.3534    8.4554 N.am      5 UNK        -0.4737 
     65 C         -46.3496  -25.2008    8.6137 C.2       4 UNK         0.5027 
     66 O         -45.8193  -24.6907    9.6014 O.2       4 UNK        -0.5211 
     67 CA        -45.4712  -25.6899    7.4555 C.3       4 UNK         0.0297 
     68 CB        -45.5351  -27.2222    7.3164 C.3       4 UNK        -0.1993 
     69 N         -45.8948  -25.0545    6.2088 N.am      4 UNK        -0.4486 
     70 C         -45.4009  -23.8990    5.7405 C.2       3 UNK         0.4961 
     71 O         -44.4549  -23.3012    6.2546 O.2       3 UNK        -0.5105 
     72 CA        -46.0641  -23.2959    4.4876 C.3       3 UNK         0.0299 
     73 CB        -45.2345  -23.6124    3.2327 C.3       3 UNK        -0.1972 
     74 N         -47.4438  -23.7534    4.2982 N.am      3 UNK        -0.4305 
     75 C         -48.4853  -23.3005    5.0156 C.2       2 UNK         0.5006 
     76 O         -48.3986  -22.3840    5.8332 O.2       2 UNK        -0.5106 
     77 CA        -49.8544  -23.9832    4.8147 C.3       2 UNK         0.0296 
     78 CB        -50.7481  -23.1321    3.8978 C.3       2 UNK        -0.2002 
     79 N         -49.7898  -25.3519    4.2894 N.am      2 UNK        -0.4032 
     80 C         -49.1628  -26.3733    4.8884 C.2       1 UNK         0.5000 
     81 O         -48.5696  -26.2698    5.9643 O.2       1 UNK        -0.5238 
     82 H82       -45.0419  -28.4960    2.4707 H         1 UNK         0.0889 
     83 H83       -45.3784  -29.1205    4.0881 H         1 UNK         0.0889 
     84 H84       -44.6771  -27.5128    3.8917 H         1 UNK         0.0889 
     85 H85       -47.5867  -29.0714    4.5455 H         1 UNK         0.3028 
     86 H86       -49.4801  -27.5234    3.1138 H         1 UNK         0.0864 
     87 H87       -50.3169  -29.5239    3.9999 H         1 UNK         0.0720 
     88 H88       -51.0929  -28.3021    4.9486 H         1 UNK         0.0720 
     89 H89       -51.3748  -28.5389    7.3241 H         1 UNK         0.0814 
     90 H90       -49.8796  -27.6972    7.6535 H         1 UNK         0.0814 
     91 H91       -48.0828  -29.0206    9.0821 H         1 UNK         0.1469 
     92 H92       -49.8486  -31.2377   12.3015 H         1 UNK         0.1381 
     93 H93       -52.2519  -29.9759    8.9794 H         1 UNK         0.1206 
     94 H94       -52.2591  -31.4551   12.4442 H         1 UNK         0.0813 
     95 H95       -52.4017  -32.4007   10.9854 H         1 UNK         0.0813 
     96 H96       -53.1496  -29.2001   12.7889 H         1 UNK         0.0638 
     97 H97       -54.1786  -28.3541   11.6773 H         1 UNK         0.0638 
     98 H98       -56.0996  -29.9359   12.6580 H         1 UNK         0.0568 
     99 H99       -56.1703  -29.3224   15.7464 H         1 UNK         0.3450 
    100 H100      -55.3850  -30.7541   16.3681 H         1 UNK         0.3450 
    101 H101      -55.1656  -27.6233   14.2632 H         1 UNK         0.2987 
    102 H102      -56.9801  -25.5108   13.3992 H         1 UNK         0.0766 
    103 H103      -59.3405  -26.8302   14.8413 H         1 UNK         0.0798 
    104 H104      -59.0991  -25.0920   14.6704 H         1 UNK         0.0798 
    105 H105      -59.3781  -26.0837   13.2505 H         1 UNK         0.0798 
    106 H106      -56.0964  -25.2353   15.3931 H         1 UNK         0.3198 
    107 H107      -56.6154  -25.9620   18.4049 H         1 UNK         0.0843 
    108 H108      -55.9500  -28.3285   18.7021 H         1 UNK         0.0831 
    109 H109      -54.6365  -27.2856   19.2165 H         1 UNK         0.0831 
    110 H110      -54.5514  -28.1085   17.6595 H         1 UNK         0.0831 
    111 H111      -54.1350  -25.7778   16.7541 H         1 UNK         0.3133 
    112 H112      -54.2963  -22.3136   16.5490 H         1 UNK         0.0566 
    113 H113      -52.0113  -22.2273   17.5758 H         1 UNK         0.0814 
    114 H114      -53.2717  -22.2849   18.7978 H         1 UNK         0.0814 
    115 H115      -52.3410  -23.7302   18.4380 H         1 UNK         0.0814 
    116 H116      -52.2326  -24.2539   15.9742 H         1 UNK         0.3091 
    117 H117      -53.6710  -25.4981   12.9681 H         1 UNK         0.0702 
    118 H118      -51.6562  -24.5837   11.8480 H         1 UNK         0.0785 
    119 H119      -51.3948  -23.4539   13.1754 H         1 UNK         0.0785 
    120 H120      -52.8141  -23.2995   12.1484 H         1 UNK         0.0785 
    121 H121      -51.0527  -25.7817   14.0289 H         1 UNK         0.2998 
    122 H122      -51.7496  -27.9994   16.6876 H         1 UNK         0.0697 
    123 H123      -50.8383  -28.9658   13.9191 H         1 UNK         0.0825 
    124 H124      -52.1073  -29.6818   14.9055 H         1 UNK         0.0825 
    125 H125      -50.4454  -29.7489   15.4514 H         1 UNK         0.0825 
    126 H126      -49.2909  -27.5891   15.4151 H         1 UNK         0.3029 
    127 H127      -48.4890  -24.3078   16.3038 H         1 UNK         0.0897 
    128 H128      -46.6006  -25.3293   17.5575 H         1 UNK         0.0792 
    129 H129      -48.0807  -25.4445   18.4935 H         1 UNK         0.0792 
    130 H130      -47.4639  -26.8649   17.6612 H         1 UNK         0.0792 
    131 H131      -46.9032  -26.4293   15.2609 H         1 UNK         0.3086 
    132 H132      -46.2946  -26.0733   12.9166 H         1 UNK         0.0583 
    133 H133      -47.3001  -28.2119   13.7812 H         1 UNK         0.1020 
    134 H134      -48.6140  -28.0625   12.6442 H         1 UNK         0.1020 
    135 H135      -46.8522  -30.9665   10.8475 H         1 UNK         0.0694 
    136 H136      -47.5440  -30.7110   12.4306 H         1 UNK         0.0694 
    137 H137      -46.8658  -25.2008   10.9842 H         1 UNK         0.2989 
    138 H138      -49.6853  -25.3126    8.8462 H         1 UNK         0.1055 
    139 H139      -48.9838  -22.9587    8.6181 H         1 UNK         0.0806 
    140 H140      -47.9797  -23.0776   10.0614 H         1 UNK         0.0806 
    141 H141      -49.7256  -23.2202   10.1899 H         1 UNK         0.0806 
    142 H142      -47.9797  -25.7820    7.5817 H         1 UNK         0.3061 
    143 H143      -44.4365  -25.4198    7.6779 H         1 UNK         0.0734 
    144 H144      -45.2491  -27.7081    8.2505 H         1 UNK         0.0832 
    145 H145      -46.5343  -27.5763    7.0614 H         1 UNK         0.0832 
    146 H146      -44.8503  -27.5758    6.5460 H         1 UNK         0.0832 
    147 H147      -46.7251  -25.4397    5.7728 H         1 UNK         0.3156 
    148 H148      -46.0761  -22.2108    4.6117 H         1 UNK         0.0589 
    149 H149      -45.1158  -24.6854    3.0827 H         1 UNK         0.0808 
    150 H150      -45.6917  -23.1946    2.3356 H         1 UNK         0.0808 
    151 H151      -44.2334  -23.1869    3.3138 H         1 UNK         0.0808 
    152 H152      -47.5833  -24.5169    3.6469 H         1 UNK         0.3098 
    153 H153      -50.3278  -24.0367    5.7975 H         1 UNK         0.0720 
    154 H154      -51.7554  -23.5437    3.8299 H         1 UNK         0.0791 
    155 H155      -50.3420  -23.0646    2.8877 H         1 UNK         0.0791 
    156 H156      -50.8426  -22.1142    4.2794 H         1 UNK         0.0791 
    157 H157      -50.2339  -25.5096    3.3959 H         1 UNK         0.3028 
@<TRIPOS>BOND
     1    1    2 1    
     2    1   82 1    
     3    1   83 1    
     4    1   84 1    
     5    2    3 2    
     6    2    4 am   BACKBONE|DICT|INTERRES
     7    4    5 1    
     8    4   85 1    
     9    5    6 1    
    10    5   80 1    
    11    5   86 1    
    12    6    7 1    
    13    6   87 1    
    14    6   88 1    
    15    7    8 1    
    16    8    9 1    
    17    8   89 1    
    18    8   90 1    
    19    9   10 ar   
    20    9   14 ar   
    21   10   11 ar   
    22   10   91 1    
    23   11   12 ar   
    24   11   58 1    
    25   12   13 ar   
    26   12   92 1    
    27   13   14 ar   
    28   13   15 1    
    29   14   93 1    
    30   15   16 1    
    31   15   94 1    
    32   15   95 1    
    33   16   17 1    
    34   17   18 1    
    35   17   96 1    
    36   17   97 1    
    37   18   19 1    
    38   18   22 1    
    39   18   98 1    
    40   19   20 am   BACKBONE|DICT|INTERRES
    41   19   21 2    
    42   20   99 1    
    43   20  100 1    
    44   22   23 am   BACKBONE|DICT|INTERRES
    45   22  101 1    
    46   23   24 2    
    47   23   25 1    
    48   25   26 1    
    49   25   27 1    
    50   25  102 1    
    51   26  103 1    
    52   26  104 1    
    53   26  105 1    
    54   27   28 am   BACKBONE|DICT|INTERRES
    55   27  106 1    
    56   28   29 2    
    57   28   30 1    
    58   30   31 1    
    59   30   32 1    
    60   30  107 1    
    61   31  108 1    
    62   31  109 1    
    63   31  110 1    
    64   32   33 am   BACKBONE|DICT|INTERRES
    65   32  111 1    
    66   33   34 2    
    67   33   35 1    
    68   35   36 1    
    69   35   37 1    
    70   35  112 1    
    71   36  113 1    
    72   36  114 1    
    73   36  115 1    
    74   37   38 am   BACKBONE|DICT|INTERRES
    75   37  116 1    
    76   38   39 2    
    77   38   40 1    
    78   40   41 1    
    79   40   42 1    
    80   40  117 1    
    81   41  118 1    
    82   41  119 1    
    83   41  120 1    
    84   42   43 am   BACKBONE|DICT|INTERRES
    85   42  121 1    
    86   43   44 2    
    87   43   45 1    
    88   45   46 1    
    89   45   47 1    
    90   45  122 1    
    91   46  123 1    
    92   46  124 1    
    93   46  125 1    
    94   47   48 am   BACKBONE|DICT|INTERRES
    95   47  126 1    
    96   48   49 2    
    97   48   50 1    
    98   50   51 1    
    99   50   52 1    
   100   50  127 1    
   101   51  128 1    
   102   51  129 1    
   103   51  130 1    
   104   52   53 am   BACKBONE|DICT|INTERRES
   105   52  131 1    
   106   53   54 2    
   107   53   55 1    
   108   55   56 1    
   109   55   59 1    
   110   55  132 1    
   111   56   57 1    
   112   56  133 1    
   113   56  134 1    
   114   57   58 1    
   115   58  135 1    
   116   58  136 1    
   117   59   60 am   BACKBONE|DICT|INTERRES
   118   59  137 1    
   119   60   61 2    
   120   60   62 1    
   121   62   63 1    
   122   62   64 1    
   123   62  138 1    
   124   63  139 1    
   125   63  140 1    
   126   63  141 1    
   127   64   65 am   BACKBONE|DICT|INTERRES
   128   64  142 1    
   129   65   66 2    
   130   65   67 1    
   131   67   68 1    
   132   67   69 1    
   133   67  143 1    
   134   68  144 1    
   135   68  145 1    
   136   68  146 1    
   137   69   70 am   BACKBONE|DICT|INTERRES
   138   69  147 1    
   139   70   71 2    
   140   70   72 1    
   141   72   73 1    
   142   72   74 1    
   143   72  148 1    
   144   73  149 1    
   145   73  150 1    
   146   73  151 1    
   147   74   75 am   BACKBONE|DICT|INTERRES
   148   74  152 1    
   149   75   76 2    
   150   75   77 1    
   151   77   78 1    
   152   77   79 1    
   153   77  153 1    
   154   78  154 1    
   155   78  155 1    
   156   78  156 1    
   157   79   80 am   BACKBONE|DICT|INTERRES
   158   79  157 1    
   159   80   81 2    
@<TRIPOS>SUBSTRUCTURE
     1 UNK         1 GROUP             0       ****    0 ROOT    
