@<TRIPOS>MOLECULE
3R207
157   159    1
SMALL
USER_CHARGES


@<TRIPOS>ATOM
      1 CA        -48.5296  -26.5706    4.1505 C.3       0 UNK        -0.1975 
      2 C         -49.2800  -25.9847    5.3355 C.2       0 UNK         0.4852 
      3 O         -48.7793  -26.0401    6.4603 O.2       0 UNK        -0.5216 
      4 N         -50.4613  -25.3982    5.0893 N.am      1 UNK        -0.4461 
      5 CA        -51.4459  -24.8537    6.0477 C.3       1 UNK         0.0864 
      6 C6        -52.0363  -25.9308    6.9955 C.3       14 UNK        -0.0898 
      7 S7        -52.8625  -27.2769    6.0798 S.3       14 UNK        -0.2598 
      8 C8        -51.7860  -28.6981    6.4505 C.3       14 UNK         0.0286 
      9 C9        -52.2542  -29.4490    7.6889 C.ar      14 UNK        -0.0844 
     10 C10       -51.8352  -29.0551    8.9630 C.ar      14 UNK        -0.0881 
     11 C11       -52.2483  -29.7628   10.0958 C.ar      14 UNK        -0.0643 
     12 C12       -53.0784  -30.8782    9.9489 C.ar      14 UNK        -0.0930 
     13 C13       -53.5057  -31.2801    8.6808 C.ar      14 UNK        -0.0827 
     14 C14       -53.0945  -30.5585    7.5560 C.ar      14 UNK        -0.1249 
     15 C15       -54.3899  -32.5063    8.5149 C.3       14 UNK         0.0141 
     16 S16       -56.1553  -32.0874    8.6496 S.3       14 UNK        -0.2313 
     17 C17       -56.5146  -32.4939   10.3923 C.3       14 UNK        -0.0915 
     18 CA        -57.4843  -31.4667   11.0460 C.3       13 UNK         0.0968 
     19 C         -58.1433  -31.9890   12.3620 C.2       13 UNK         0.5732 
     20 N         -58.5604  -31.1201   13.2757 N.am      13 UNK        -0.7310 
     21 O         -58.3150  -33.1917   12.5494 O.2       13 UNK        -0.5035 
     22 N         -56.9009  -30.1145   11.1400 N.am      13 UNK        -0.4233 
     23 C         -55.9001  -29.7395   11.9489 C.2       13 UNK         0.4989 
     24 O         -55.3223  -30.5012   12.7274 O.2       13 UNK        -0.4996 
     25 CA        -55.4733  -28.2634   11.9025 C.3       12 UNK         0.0216 
     26 CB        -56.5369  -27.3089   11.3146 C.3       12 UNK        -0.1964 
     27 N         -55.1059  -27.8407   13.2543 N.am      12 UNK        -0.4276 
     28 C         -54.2229  -26.8826   13.5492 C.2       12 UNK         0.5020 
     29 O         -53.6225  -26.2286   12.6936 O.2       12 UNK        -0.5489 
     30 CA        -53.9791  -26.6172   15.0467 C.3       11 UNK         0.0294 
     31 CB        -53.3048  -27.8199   15.7300 C.3       11 UNK        -0.2019 
     32 N         -53.1228  -25.4414   15.2111 N.am      11 UNK        -0.4493 
     33 C         -53.5590  -24.2096   15.5001 C.2       11 UNK         0.4932 
     34 O         -54.7239  -23.9617   15.8184 O.2       11 UNK        -0.5029 
     35 CA        -52.5472  -23.0516   15.3745 C.3       10 UNK         0.0280 
     36 CB        -52.9304  -21.8177   16.2208 C.3       10 UNK        -0.1976 
     37 N         -51.1475  -23.4363   15.5955 N.am      10 UNK        -0.4242 
     38 C         -50.5744  -23.8376   16.7418 C.2       10 UNK         0.5072 
     39 O         -51.1883  -23.9531   17.8038 O.2       10 UNK        -0.5224 
     40 CA        -49.0632  -24.1636   16.7252 C.3       9 UNK         0.0343 
     41 CB        -48.7957  -25.5755   17.2760 C.3       9 UNK        -0.2003 
     42 N         -48.4481  -24.0494   15.3996 N.am      9 UNK        -0.4272 
     43 C         -48.0121  -22.9131   14.8365 C.2       9 UNK         0.4988 
     44 O         -47.9924  -21.8265   15.4149 O.2       9 UNK        -0.5108 
     45 CA        -47.5722  -22.9909   13.3598 C.3       8 UNK         0.0248 
     46 CB        -46.0702  -23.2938   13.2479 C.3       8 UNK        -0.2001 
     47 N         -48.3300  -23.9808   12.5873 N.am      8 UNK        -0.4140 
     48 C         -49.6551  -23.9385   12.3886 C.2       8 UNK         0.5028 
     49 O         -50.3704  -23.0066   12.7544 O.2       8 UNK        -0.5428 
     50 CA        -50.3054  -25.1787   11.7620 C.3       7 UNK         0.0264 
     51 CB        -50.2412  -25.1348   10.2314 C.3       7 UNK        -0.1988 
     52 N         -49.7094  -26.4217   12.2565 N.am      7 UNK        -0.4454 
     53 C         -49.8867  -26.8946   13.4988 C.2       7 UNK         0.5027 
     54 O         -50.5777  -26.3286   14.3436 O.2       7 UNK        -0.5083 
     55 CA        -49.1333  -28.1843   13.8877 C.3       6 UNK         0.0844 
     56 C56       -49.9498  -29.4646   13.5874 C.3       14 UNK        -0.0967 
     57 S57       -50.0972  -29.8756   11.8138 S.3       14 UNK        -0.2604 
     58 C58       -51.7971  -29.3237   11.4779 C.3       14 UNK         0.0134 
     59 N         -47.7892  -28.2331   13.3132 N.am      6 UNK        -0.4116 
     60 C         -46.7844  -27.4231   13.6701 C.2       5 UNK         0.5034 
     61 O         -46.8618  -26.5906   14.5731 O.2       5 UNK        -0.5045 
     62 CA        -45.4921  -27.5271   12.8429 C.3       5 UNK         0.0224 
     63 CB        -44.5731  -28.6203   13.4106 C.3       5 UNK        -0.1978 
     64 N         -45.7238  -27.7702   11.4122 N.am      5 UNK        -0.4737 
     65 C         -46.4086  -26.9471   10.6070 C.2       4 UNK         0.5027 
     66 O         -46.9819  -25.9310   11.0022 O.2       4 UNK        -0.5211 
     67 CA        -46.5151  -27.3512    9.1275 C.3       4 UNK         0.0297 
     68 CB        -47.8292  -28.1099    8.8761 C.3       4 UNK        -0.1993 
     69 N         -46.4560  -26.1861    8.2413 N.am      4 UNK        -0.4486 
     70 C         -45.3971  -25.3700    8.1226 C.2       3 UNK         0.4961 
     71 O         -44.3168  -25.5635    8.6826 O.2       3 UNK        -0.5105 
     72 CA        -45.5482  -24.1374    7.2138 C.3       3 UNK         0.0299 
     73 CB        -45.0825  -24.4683    5.7866 C.3       3 UNK        -0.1972 
     74 N         -46.9121  -23.6072    7.1639 N.am      3 UNK        -0.4305 
     75 C         -47.5224  -22.9463    8.1607 C.2       2 UNK         0.5006 
     76 O         -46.9924  -22.6805    9.2386 O.2       2 UNK        -0.5106 
     77 CA        -48.9716  -22.5077    7.9057 C.3       2 UNK         0.0296 
     78 CB        -48.9986  -21.1529    7.1698 C.3       2 UNK        -0.2002 
     79 N         -49.6749  -23.5446    7.1504 N.am      2 UNK        -0.4032 
     80 C         -50.9734  -23.6148    6.8478 C.2       1 UNK         0.5000 
     81 O         -51.7966  -22.7550    7.1656 O.2       1 UNK        -0.5238 
     82 H82       -49.1449  -26.5950    3.2514 H         1 UNK         0.0889 
     83 H83       -48.2187  -27.5907    4.3744 H         1 UNK         0.0889 
     84 H84       -47.6388  -25.9807    3.9392 H         1 UNK         0.0889 
     85 H85       -50.7717  -25.3593    4.1281 H         1 UNK         0.3028 
     86 H86       -52.2669  -24.4906    5.4269 H         1 UNK         0.0864 
     87 H87       -51.2533  -26.3431    7.6295 H         1 UNK         0.0720 
     88 H88       -52.7754  -25.4920    7.6687 H         1 UNK         0.0720 
     89 H89       -50.7504  -28.3757    6.5689 H         1 UNK         0.0814 
     90 H90       -51.7907  -29.3680    5.5893 H         1 UNK         0.0814 
     91 H91       -51.1798  -28.2046    9.0763 H         1 UNK         0.1469 
     92 H92       -53.3926  -31.4331   10.8224 H         1 UNK         0.1381 
     93 H93       -53.4226  -30.8673    6.5727 H         1 UNK         0.1206 
     94 H94       -54.2164  -32.9541    7.5351 H         1 UNK         0.0813 
     95 H95       -54.1219  -33.2739    9.2423 H         1 UNK         0.0813 
     96 H96       -55.5903  -32.5653   10.9663 H         1 UNK         0.0638 
     97 H97       -56.9474  -33.4956   10.3904 H         1 UNK         0.0638 
     98 H98       -58.3324  -31.3622   10.3684 H         1 UNK         0.0568 
     99 H99       -58.4508  -30.1299   13.1308 H         1 UNK         0.3450 
    100 H100      -58.9955  -31.4631   14.1175 H         1 UNK         0.3450 
    101 H101      -57.3223  -29.4190   10.5425 H         1 UNK         0.2987 
    102 H102      -54.5868  -28.2228   11.2664 H         1 UNK         0.0766 
    103 H103      -56.1918  -26.2750   11.3375 H         1 UNK         0.0798 
    104 H104      -57.4745  -27.3544   11.8701 H         1 UNK         0.0798 
    105 H105      -56.7501  -27.5401   10.2704 H         1 UNK         0.0798 
    106 H106      -55.5065  -28.3938   14.0006 H         1 UNK         0.3198 
    107 H107      -54.9487  -26.4500   15.5205 H         1 UNK         0.0843 
    108 H108      -52.3461  -28.0576   15.2734 H         1 UNK         0.0831 
    109 H109      -53.9255  -28.7146   15.6714 H         1 UNK         0.0831 
    110 H110      -53.1267  -27.6213   16.7870 H         1 UNK         0.0831 
    111 H111      -52.1605  -25.5648   14.8996 H         1 UNK         0.3133 
    112 H112      -52.5969  -22.7446   14.3292 H         1 UNK         0.0566 
    113 H113      -52.2089  -21.0105   16.0950 H         1 UNK         0.0814 
    114 H114      -53.9046  -21.4271   15.9245 H         1 UNK         0.0814 
    115 H115      -52.9879  -22.0558   17.2832 H         1 UNK         0.0814 
    116 H116      -50.5690  -23.3902   14.7634 H         1 UNK         0.3091 
    117 H117      -48.5788  -23.4493   17.3941 H         1 UNK         0.0702 
    118 H118      -47.7302  -25.8066   17.2769 H         1 UNK         0.0785 
    119 H119      -49.3034  -26.3409   16.6896 H         1 UNK         0.0785 
    120 H120      -49.1472  -25.6688   18.3043 H         1 UNK         0.0785 
    121 H121      -48.3777  -24.9063   14.8652 H         1 UNK         0.2998 
    122 H122      -47.7571  -22.0142   12.9079 H         1 UNK         0.0697 
    123 H123      -45.8175  -24.2562   13.6927 H         1 UNK         0.0825 
    124 H124      -45.4799  -22.5326   13.7596 H         1 UNK         0.0825 
    125 H125      -45.7473  -23.3115   12.2062 H         1 UNK         0.0825 
    126 H126      -47.8055  -24.7509   12.1747 H         1 UNK         0.3029 
    127 H127      -51.3581  -25.1733   12.0496 H         1 UNK         0.0897 
    128 H128      -50.7223  -26.0113    9.8040 H         1 UNK         0.0792 
    129 H129      -49.2170  -25.0910    9.8605 H         1 UNK         0.0792 
    130 H130      -50.7685  -24.2587    9.8533 H         1 UNK         0.0792 
    131 H131      -49.0651  -26.8962   11.6408 H         1 UNK         0.3086 
    132 H132      -49.0087  -28.1453   14.9722 H         1 UNK         0.0583 
    133 H133      -50.9394  -29.4094   14.0418 H         1 UNK         0.1020 
    134 H134      -49.4665  -30.3130   14.0745 H         1 UNK         0.1020 
    135 H135      -52.4708  -29.7252   12.2369 H         1 UNK         0.0694 
    136 H136      -51.8564  -28.2372   11.5567 H         1 UNK         0.0694 
    137 H137      -47.6450  -28.8869   12.5576 H         1 UNK         0.2989 
    138 H138      -44.9772  -26.5679   12.9317 H         1 UNK         0.1055 
    139 H139      -44.3733  -28.4503   14.4697 H         1 UNK         0.0806 
    140 H140      -43.6096  -28.6334   12.9007 H         1 UNK         0.0806 
    141 H141      -45.0166  -29.6125   13.3180 H         1 UNK         0.0806 
    142 H142      -45.2897  -28.5915   11.0146 H         1 UNK         0.3061 
    143 H143      -45.6774  -28.0055    8.8778 H         1 UNK         0.0734 
    144 H144      -47.8993  -28.4487    7.8422 H         1 UNK         0.0832 
    145 H145      -47.9047  -28.9935    9.5113 H         1 UNK         0.0832 
    146 H146      -48.7002  -27.4863    9.0781 H         1 UNK         0.0832 
    147 H147      -47.2953  -25.9835    7.7069 H         1 UNK         0.3156 
    148 H148      -44.8979  -23.3545    7.6100 H         1 UNK         0.0589 
    149 H149      -45.6935  -25.2496    5.3333 H         1 UNK         0.0808 
    150 H150      -45.1205  -23.5910    5.1406 H         1 UNK         0.0808 
    151 H151      -44.0508  -24.8231    5.7871 H         1 UNK         0.0808 
    152 H152      -47.4075  -23.7368    6.2949 H         1 UNK         0.3098 
    153 H153      -49.4629  -22.3955    8.8741 H         1 UNK         0.0720 
    154 H154      -50.0113  -20.7587    7.0881 H         1 UNK         0.0791 
    155 H155      -48.5883  -21.2322    6.1626 H         1 UNK         0.0791 
    156 H156      -48.4099  -20.4068    7.7054 H         1 UNK         0.0791 
    157 H157      -49.1382  -24.3818    6.9274 H         1 UNK         0.3028 
@<TRIPOS>BOND
     1    1    2 1    
     2    1   82 1    
     3    1   83 1    
     4    1   84 1    
     5    2    3 2    
     6    2    4 am   BACKBONE|DICT|INTERRES
     7    4    5 1    
     8    4   85 1    
     9    5    6 1    
    10    5   80 1    
    11    5   86 1    
    12    6    7 1    
    13    6   87 1    
    14    6   88 1    
    15    7    8 1    
    16    8    9 1    
    17    8   89 1    
    18    8   90 1    
    19    9   10 ar   
    20    9   14 ar   
    21   10   11 ar   
    22   10   91 1    
    23   11   12 ar   
    24   11   58 1    
    25   12   13 ar   
    26   12   92 1    
    27   13   14 ar   
    28   13   15 1    
    29   14   93 1    
    30   15   16 1    
    31   15   94 1    
    32   15   95 1    
    33   16   17 1    
    34   17   18 1    
    35   17   96 1    
    36   17   97 1    
    37   18   19 1    
    38   18   22 1    
    39   18   98 1    
    40   19   20 am   BACKBONE|DICT|INTERRES
    41   19   21 2    
    42   20   99 1    
    43   20  100 1    
    44   22   23 am   BACKBONE|DICT|INTERRES
    45   22  101 1    
    46   23   24 2    
    47   23   25 1    
    48   25   26 1    
    49   25   27 1    
    50   25  102 1    
    51   26  103 1    
    52   26  104 1    
    53   26  105 1    
    54   27   28 am   BACKBONE|DICT|INTERRES
    55   27  106 1    
    56   28   29 2    
    57   28   30 1    
    58   30   31 1    
    59   30   32 1    
    60   30  107 1    
    61   31  108 1    
    62   31  109 1    
    63   31  110 1    
    64   32   33 am   BACKBONE|DICT|INTERRES
    65   32  111 1    
    66   33   34 2    
    67   33   35 1    
    68   35   36 1    
    69   35   37 1    
    70   35  112 1    
    71   36  113 1    
    72   36  114 1    
    73   36  115 1    
    74   37   38 am   BACKBONE|DICT|INTERRES
    75   37  116 1    
    76   38   39 2    
    77   38   40 1    
    78   40   41 1    
    79   40   42 1    
    80   40  117 1    
    81   41  118 1    
    82   41  119 1    
    83   41  120 1    
    84   42   43 am   BACKBONE|DICT|INTERRES
    85   42  121 1    
    86   43   44 2    
    87   43   45 1    
    88   45   46 1    
    89   45   47 1    
    90   45  122 1    
    91   46  123 1    
    92   46  124 1    
    93   46  125 1    
    94   47   48 am   BACKBONE|DICT|INTERRES
    95   47  126 1    
    96   48   49 2    
    97   48   50 1    
    98   50   51 1    
    99   50   52 1    
   100   50  127 1    
   101   51  128 1    
   102   51  129 1    
   103   51  130 1    
   104   52   53 am   BACKBONE|DICT|INTERRES
   105   52  131 1    
   106   53   54 2    
   107   53   55 1    
   108   55   56 1    
   109   55   59 1    
   110   55  132 1    
   111   56   57 1    
   112   56  133 1    
   113   56  134 1    
   114   57   58 1    
   115   58  135 1    
   116   58  136 1    
   117   59   60 am   BACKBONE|DICT|INTERRES
   118   59  137 1    
   119   60   61 2    
   120   60   62 1    
   121   62   63 1    
   122   62   64 1    
   123   62  138 1    
   124   63  139 1    
   125   63  140 1    
   126   63  141 1    
   127   64   65 am   BACKBONE|DICT|INTERRES
   128   64  142 1    
   129   65   66 2    
   130   65   67 1    
   131   67   68 1    
   132   67   69 1    
   133   67  143 1    
   134   68  144 1    
   135   68  145 1    
   136   68  146 1    
   137   69   70 am   BACKBONE|DICT|INTERRES
   138   69  147 1    
   139   70   71 2    
   140   70   72 1    
   141   72   73 1    
   142   72   74 1    
   143   72  148 1    
   144   73  149 1    
   145   73  150 1    
   146   73  151 1    
   147   74   75 am   BACKBONE|DICT|INTERRES
   148   74  152 1    
   149   75   76 2    
   150   75   77 1    
   151   77   78 1    
   152   77   79 1    
   153   77  153 1    
   154   78  154 1    
   155   78  155 1    
   156   78  156 1    
   157   79   80 am   BACKBONE|DICT|INTERRES
   158   79  157 1    
   159   80   81 2    
@<TRIPOS>SUBSTRUCTURE
     1 UNK         1 GROUP             0       ****    0 ROOT    
