@<TRIPOS>MOLECULE
3R207
157   159    1
SMALL
USER_CHARGES


@<TRIPOS>ATOM
      1 CA        -52.6501  -23.2856    5.3339 C.3       0 UNK        -0.1975 
      2 C         -51.8749  -24.4868    5.8557 C.2       0 UNK         0.4852 
      3 O         -51.7682  -24.6576    7.0695 O.2       0 UNK        -0.5216 
      4 N         -51.3467  -25.3134    4.9442 N.am      1 UNK        -0.4461 
      5 CA        -50.5432  -26.5030    5.2413 C.3       1 UNK         0.0864 
      6 C6        -50.8484  -27.6680    4.2570 C.3       14 UNK        -0.0898 
      7 S7        -52.6122  -28.1312    4.2268 S.3       14 UNK        -0.2598 
      8 C8        -52.6371  -29.5973    5.3052 C.3       14 UNK         0.0286 
      9 C9        -52.4042  -29.2422    6.7673 C.ar      14 UNK        -0.0844 
     10 C10       -51.2548  -29.6820    7.4316 C.ar      14 UNK        -0.0881 
     11 C11       -51.0672  -29.4020    8.7898 C.ar      14 UNK        -0.0643 
     12 C12       -52.0366  -28.6662    9.4797 C.ar      14 UNK        -0.0930 
     13 C13       -53.1803  -28.2066    8.8203 C.ar      14 UNK        -0.0827 
     14 C14       -53.3605  -28.5007    7.4667 C.ar      14 UNK        -0.1249 
     15 C15       -54.2309  -27.4095    9.5735 C.3       14 UNK         0.0141 
     16 S16       -55.5190  -28.5127   10.2239 S.3       14 UNK        -0.2313 
     17 C17       -56.4936  -27.3528   11.2401 C.3       14 UNK        -0.0915 
     18 CA        -55.9047  -27.1404   12.6659 C.3       13 UNK         0.0968 
     19 C         -56.7261  -26.1193   13.5102 C.2       13 UNK         0.5732 
     20 N         -56.8174  -26.2668   14.8266 N.am      13 UNK        -0.7310 
     21 O         -57.2657  -25.1562   12.9706 O.2       13 UNK        -0.5035 
     22 N         -55.5850  -28.4014   13.3540 N.am      13 UNK        -0.4233 
     23 C         -56.4358  -29.3501   13.7626 C.2       13 UNK         0.4989 
     24 O         -57.6573  -29.2882   13.6204 O.2       13 UNK        -0.4996 
     25 CA        -55.8296  -30.5724   14.4834 C.3       12 UNK         0.0216 
     26 CB        -55.5272  -31.7103   13.4878 C.3       12 UNK        -0.1964 
     27 N         -54.6654  -30.2556   15.3297 N.am      12 UNK        -0.4276 
     28 C         -53.4452  -29.8464   14.9544 C.2       12 UNK         0.5020 
     29 O         -53.0793  -29.7402   13.7823 O.2       12 UNK        -0.5489 
     30 CA        -52.5284  -29.3358   16.0723 C.3       11 UNK         0.0294 
     31 CB        -51.0826  -29.8324   15.8979 C.3       11 UNK        -0.2019 
     32 N         -52.5439  -27.8744   16.0459 N.am      11 UNK        -0.4493 
     33 C         -53.5549  -27.1054   16.4756 C.2       11 UNK         0.4932 
     34 O         -54.5698  -27.5568   17.0098 O.2       11 UNK        -0.5029 
     35 CA        -53.4205  -25.5869   16.2418 C.3       10 UNK         0.0280 
     36 CB        -54.3404  -24.7483   17.1545 C.3       10 UNK        -0.1976 
     37 N         -52.0329  -25.1173   16.3141 N.am      10 UNK        -0.4242 
     38 C         -51.2084  -25.1567   17.3729 C.2       10 UNK         0.5072 
     39 O         -51.5475  -25.5371   18.4945 O.2       10 UNK        -0.5224 
     40 CA        -49.7436  -24.7314   17.1512 C.3       9 UNK         0.0343 
     41 CB        -48.8165  -25.9522   17.2788 C.3       9 UNK        -0.2003 
     42 N         -49.5044  -24.0886   15.8556 N.am      9 UNK        -0.4272 
     43 C         -49.8491  -22.8301   15.5485 C.2       9 UNK         0.4988 
     44 O         -50.3465  -22.0412   16.3525 O.2       9 UNK        -0.5108 
     45 CA        -49.6374  -22.3869   14.0892 C.3       8 UNK         0.0248 
     46 CB        -48.1839  -21.9436   13.8611 C.3       8 UNK        -0.2001 
     47 N         -50.0000  -23.4189   13.1114 N.am      8 UNK        -0.4140 
     48 C         -51.2317  -23.9289   12.9578 C.2       8 UNK         0.5028 
     49 O         -52.2097  -23.5690   13.6120 O.2       8 UNK        -0.5428 
     50 CA        -51.3950  -25.0736   11.9458 C.3       7 UNK         0.0264 
     51 CB        -51.5155  -24.5381   10.5114 C.3       7 UNK        -0.1988 
     52 N         -50.3014  -26.0408   12.0204 N.am      7 UNK        -0.4454 
     53 C         -50.0713  -26.8448   13.0671 C.2       7 UNK         0.5027 
     54 O         -50.7674  -26.8636   14.0827 O.2       7 UNK        -0.5083 
     55 CA        -48.8243  -27.7464   12.9836 C.3       6 UNK         0.0844 
     56 C56       -49.0539  -28.9700   12.0596 C.3       14 UNK        -0.0967 
     57 S57       -48.8612  -28.5965   10.2767 S.3       14 UNK        -0.2604 
     58 C58       -49.8373  -29.9309    9.5151 C.3       14 UNK         0.0134 
     59 N         -47.6231  -26.9956   12.6136 N.am      6 UNK        -0.4116 
     60 C         -47.0935  -25.9746   13.2969 C.2       5 UNK         0.5034 
     61 O         -47.5199  -25.5694   14.3762 O.2       5 UNK        -0.5045 
     62 CA        -45.9116  -25.2521   12.6349 C.3       5 UNK         0.0224 
     63 CB        -44.5912  -25.9703   12.9538 C.3       5 UNK        -0.1978 
     64 N         -46.0488  -25.1064   11.1823 N.am      5 UNK        -0.4737 
     65 C         -47.0384  -24.4698   10.5453 C.2       4 UNK         0.5027 
     66 O         -48.0143  -23.9882   11.1202 O.2       4 UNK        -0.5211 
     67 CA        -46.9254  -24.3290    9.0169 C.3       4 UNK         0.0297 
     68 CB        -45.9583  -23.1889    8.6476 C.3       4 UNK        -0.1993 
     69 N         -46.5995  -25.5552    8.2730 N.am      4 UNK        -0.4486 
     70 C         -45.4987  -26.3244    8.3238 C.2       3 UNK         0.4961 
     71 O         -44.5663  -26.1461    9.1084 O.2       3 UNK        -0.5105 
     72 CA        -45.4014  -27.4881    7.3168 C.3       3 UNK         0.0299 
     73 CB        -45.8465  -28.8100    7.9605 C.3       3 UNK        -0.1972 
     74 N         -46.1695  -27.2656    6.0893 N.am      3 UNK        -0.4305 
     75 C         -45.8780  -26.3365    5.1679 C.2       2 UNK         0.5006 
     76 O         -44.8687  -25.6314    5.2040 O.2       2 UNK        -0.5106 
     77 CA        -46.8790  -26.1433    4.0135 C.3       2 UNK         0.0296 
     78 CB        -46.3821  -26.8677    2.7512 C.3       2 UNK        -0.2002 
     79 N         -48.2630  -26.5556    4.2876 N.am      2 UNK        -0.4032 
     80 C         -49.0559  -26.0847    5.2647 C.2       1 UNK         0.5000 
     81 O         -48.6524  -25.3364    6.1568 O.2       1 UNK        -0.5238 
     82 H82       -53.6759  -23.3146    5.7003 H         1 UNK         0.0889 
     83 H83       -52.6800  -23.2596    4.2447 H         1 UNK         0.0889 
     84 H84       -52.1890  -22.3622    5.6831 H         1 UNK         0.0889 
     85 H85       -51.4701  -25.1074    3.9634 H         1 UNK         0.3028 
     86 H86       -50.7796  -26.8552    6.2482 H         1 UNK         0.0864 
     87 H87       -50.2559  -28.5499    4.5081 H         1 UNK         0.0720 
     88 H88       -50.5826  -27.3952    3.2341 H         1 UNK         0.0720 
     89 H89       -51.9030  -30.3232    4.9520 H         1 UNK         0.0814 
     90 H90       -53.6099  -30.0820    5.2122 H         1 UNK         0.0814 
     91 H91       -50.5156  -30.2620    6.8962 H         1 UNK         0.1469 
     92 H92       -51.9019  -28.4557   10.5320 H         1 UNK         0.1381 
     93 H93       -54.2516  -28.1599    6.9571 H         1 UNK         0.1206 
     94 H94       -54.6816  -26.6635    8.9170 H         1 UNK         0.0813 
     95 H95       -53.7659  -26.8618   10.3940 H         1 UNK         0.0813 
     96 H96       -57.5109  -27.7416   11.3068 H         1 UNK         0.0638 
     97 H97       -56.5673  -26.4039   10.7059 H         1 UNK         0.0638 
     98 H98       -54.9393  -26.6509   12.5376 H         1 UNK         0.0568 
     99 H99       -57.3513  -25.5968   15.3562 H         1 UNK         0.3450 
    100 H100      -56.3735  -27.0417   15.2941 H         1 UNK         0.3450 
    101 H101      -54.5966  -28.6048   13.4692 H         1 UNK         0.2987 
    102 H102      -56.5967  -30.9361   15.1692 H         1 UNK         0.0766 
    103 H103      -55.1311  -32.5891   13.9963 H         1 UNK         0.0798 
    104 H104      -54.8073  -31.4085   12.7262 H         1 UNK         0.0798 
    105 H105      -56.4343  -32.0179   12.9658 H         1 UNK         0.0798 
    106 H106      -54.8701  -30.2168   16.3200 H         1 UNK         0.3198 
    107 H107      -52.8969  -29.6821   17.0404 H         1 UNK         0.0843 
    108 H108      -50.6589  -29.5241   14.9418 H         1 UNK         0.0831 
    109 H109      -51.0394  -30.9214   15.9361 H         1 UNK         0.0831 
    110 H110      -50.4349  -29.4521   16.6880 H         1 UNK         0.0831 
    111 H111      -51.8045  -27.4313   15.5026 H         1 UNK         0.3133 
    112 H112      -53.7383  -25.4157   15.2124 H         1 UNK         0.0566 
    113 H113      -54.2305  -23.6826   16.9544 H         1 UNK         0.0814 
    114 H114      -55.3887  -24.9997   16.9931 H         1 UNK         0.0814 
    115 H115      -54.1284  -24.9164   18.2106 H         1 UNK         0.0814 
    116 H116      -51.6510  -24.7846   15.4372 H         1 UNK         0.3091 
    117 H117      -49.4865  -24.0231   17.9415 H         1 UNK         0.0702 
    118 H118      -47.7687  -25.6658   17.1871 H         1 UNK         0.0785 
    119 H119      -49.0284  -26.6982   16.5112 H         1 UNK         0.0785 
    120 H120      -48.9351  -26.4380   18.2482 H         1 UNK         0.0785 
    121 H121      -49.0245  -24.6513   15.1575 H         1 UNK         0.2998 
    122 H122      -50.2859  -21.5272   13.9085 H         1 UNK         0.0697 
    123 H123      -47.4825  -22.7589   14.0367 H         1 UNK         0.0825 
    124 H124      -47.9139  -21.1305   14.5362 H         1 UNK         0.0825 
    125 H125      -48.0323  -21.5849   12.8428 H         1 UNK         0.0825 
    126 H126      -49.2611  -23.7437   12.4898 H         1 UNK         0.3029 
    127 H127      -52.3204  -25.5996   12.1904 H         1 UNK         0.0897 
    128 H128      -51.6889  -25.3457    9.7993 H         1 UNK         0.0792 
    129 H129      -50.6164  -24.0068   10.1970 H         1 UNK         0.0792 
    130 H130      -52.3522  -23.8442   10.4221 H         1 UNK         0.0792 
    131 H131      -49.6587  -26.0679   11.2413 H         1 UNK         0.3086 
    132 H132      -48.6544  -28.1283   13.9927 H         1 UNK         0.0583 
    133 H133      -48.3311  -29.7482   12.3095 H         1 UNK         0.1020 
    134 H134      -50.0347  -29.4134   12.2479 H         1 UNK         0.1020 
    135 H135      -49.1870  -30.4704    8.8248 H         1 UNK         0.0694 
    136 H136      -50.1500  -30.6590   10.2643 H         1 UNK         0.0694 
    137 H137      -47.2160  -27.2332   11.7206 H         1 UNK         0.2989 
    138 H138      -45.8649  -24.2479   13.0599 H         1 UNK         0.1055 
    139 H139      -44.4560  -26.0807   14.0308 H         1 UNK         0.0806 
    140 H140      -43.7351  -25.4103   12.5770 H         1 UNK         0.0806 
    141 H141      -44.5570  -26.9684   12.5151 H         1 UNK         0.0806 
    142 H142      -45.3051  -25.4884   10.5989 H         1 UNK         0.3061 
    143 H143      -47.9167  -24.0382    8.6643 H         1 UNK         0.0734 
    144 H144      -45.9573  -23.0056    7.5730 H         1 UNK         0.0832 
    145 H145      -46.2492  -22.2575    9.1354 H         1 UNK         0.0832 
    146 H146      -44.9340  -23.4081    8.9506 H         1 UNK         0.0832 
    147 H147      -47.2917  -25.7870    7.5660 H         1 UNK         0.3156 
    148 H148      -44.3491  -27.5865    7.0418 H         1 UNK         0.0589 
    149 H149      -46.9187  -28.8227    8.1519 H         1 UNK         0.0808 
    150 H150      -45.6131  -29.6598    7.3189 H         1 UNK         0.0808 
    151 H151      -45.3406  -28.9762    8.9128 H         1 UNK         0.0808 
    152 H152      -47.0088  -27.8126    5.9677 H         1 UNK         0.3098 
    153 H153      -46.9053  -25.0727    3.8002 H         1 UNK         0.0720 
    154 H154      -47.0077  -26.6393    1.8881 H         1 UNK         0.0791 
    155 H155      -46.3730  -27.9503    2.8846 H         1 UNK         0.0791 
    156 H156      -45.3654  -26.5624    2.4988 H         1 UNK         0.0791 
    157 H157      -48.6758  -27.1754    3.6059 H         1 UNK         0.3028 
@<TRIPOS>BOND
     1    1    2 1    
     2    1   82 1    
     3    1   83 1    
     4    1   84 1    
     5    2    3 2    
     6    2    4 am   BACKBONE|DICT|INTERRES
     7    4    5 1    
     8    4   85 1    
     9    5    6 1    
    10    5   80 1    
    11    5   86 1    
    12    6    7 1    
    13    6   87 1    
    14    6   88 1    
    15    7    8 1    
    16    8    9 1    
    17    8   89 1    
    18    8   90 1    
    19    9   10 ar   
    20    9   14 ar   
    21   10   11 ar   
    22   10   91 1    
    23   11   12 ar   
    24   11   58 1    
    25   12   13 ar   
    26   12   92 1    
    27   13   14 ar   
    28   13   15 1    
    29   14   93 1    
    30   15   16 1    
    31   15   94 1    
    32   15   95 1    
    33   16   17 1    
    34   17   18 1    
    35   17   96 1    
    36   17   97 1    
    37   18   19 1    
    38   18   22 1    
    39   18   98 1    
    40   19   20 am   BACKBONE|DICT|INTERRES
    41   19   21 2    
    42   20   99 1    
    43   20  100 1    
    44   22   23 am   BACKBONE|DICT|INTERRES
    45   22  101 1    
    46   23   24 2    
    47   23   25 1    
    48   25   26 1    
    49   25   27 1    
    50   25  102 1    
    51   26  103 1    
    52   26  104 1    
    53   26  105 1    
    54   27   28 am   BACKBONE|DICT|INTERRES
    55   27  106 1    
    56   28   29 2    
    57   28   30 1    
    58   30   31 1    
    59   30   32 1    
    60   30  107 1    
    61   31  108 1    
    62   31  109 1    
    63   31  110 1    
    64   32   33 am   BACKBONE|DICT|INTERRES
    65   32  111 1    
    66   33   34 2    
    67   33   35 1    
    68   35   36 1    
    69   35   37 1    
    70   35  112 1    
    71   36  113 1    
    72   36  114 1    
    73   36  115 1    
    74   37   38 am   BACKBONE|DICT|INTERRES
    75   37  116 1    
    76   38   39 2    
    77   38   40 1    
    78   40   41 1    
    79   40   42 1    
    80   40  117 1    
    81   41  118 1    
    82   41  119 1    
    83   41  120 1    
    84   42   43 am   BACKBONE|DICT|INTERRES
    85   42  121 1    
    86   43   44 2    
    87   43   45 1    
    88   45   46 1    
    89   45   47 1    
    90   45  122 1    
    91   46  123 1    
    92   46  124 1    
    93   46  125 1    
    94   47   48 am   BACKBONE|DICT|INTERRES
    95   47  126 1    
    96   48   49 2    
    97   48   50 1    
    98   50   51 1    
    99   50   52 1    
   100   50  127 1    
   101   51  128 1    
   102   51  129 1    
   103   51  130 1    
   104   52   53 am   BACKBONE|DICT|INTERRES
   105   52  131 1    
   106   53   54 2    
   107   53   55 1    
   108   55   56 1    
   109   55   59 1    
   110   55  132 1    
   111   56   57 1    
   112   56  133 1    
   113   56  134 1    
   114   57   58 1    
   115   58  135 1    
   116   58  136 1    
   117   59   60 am   BACKBONE|DICT|INTERRES
   118   59  137 1    
   119   60   61 2    
   120   60   62 1    
   121   62   63 1    
   122   62   64 1    
   123   62  138 1    
   124   63  139 1    
   125   63  140 1    
   126   63  141 1    
   127   64   65 am   BACKBONE|DICT|INTERRES
   128   64  142 1    
   129   65   66 2    
   130   65   67 1    
   131   67   68 1    
   132   67   69 1    
   133   67  143 1    
   134   68  144 1    
   135   68  145 1    
   136   68  146 1    
   137   69   70 am   BACKBONE|DICT|INTERRES
   138   69  147 1    
   139   70   71 2    
   140   70   72 1    
   141   72   73 1    
   142   72   74 1    
   143   72  148 1    
   144   73  149 1    
   145   73  150 1    
   146   73  151 1    
   147   74   75 am   BACKBONE|DICT|INTERRES
   148   74  152 1    
   149   75   76 2    
   150   75   77 1    
   151   77   78 1    
   152   77   79 1    
   153   77  153 1    
   154   78  154 1    
   155   78  155 1    
   156   78  156 1    
   157   79   80 am   BACKBONE|DICT|INTERRES
   158   79  157 1    
   159   80   81 2    
@<TRIPOS>SUBSTRUCTURE
     1 UNK         1 GROUP             0       ****    0 ROOT    
