@<TRIPOS>MOLECULE
3R207
157   159    1
SMALL
USER_CHARGES


@<TRIPOS>ATOM
      1 CA        -48.7510  -31.2797    1.2313 C.3       0 UNK        -0.1975 
      2 C         -49.2051  -29.8766    1.6054 C.2       0 UNK         0.4852 
      3 O         -49.0786  -28.9570    0.7961 O.2       0 UNK        -0.5216 
      4 N         -49.7355  -29.7086    2.8242 N.am      1 UNK        -0.4461 
      5 CA        -50.2037  -28.4336    3.3833 C.3       1 UNK         0.0864 
      6 C6        -51.0761  -28.6320    4.6536 C.3       14 UNK        -0.0898 
      7 S7        -50.4532  -29.8785    5.8431 S.3       14 UNK        -0.2598 
      8 C8        -49.5116  -28.8872    7.0438 C.3       14 UNK         0.0286 
      9 C9        -50.4017  -28.1093    8.0004 C.ar      14 UNK        -0.0844 
     10 C10       -50.7742  -26.7940    7.7085 C.ar      14 UNK        -0.0881 
     11 C11       -51.5515  -26.0570    8.6066 C.ar      14 UNK        -0.0643 
     12 C12       -51.9582  -26.6505    9.8057 C.ar      14 UNK        -0.0930 
     13 C13       -51.5354  -27.9395   10.1380 C.ar      14 UNK        -0.0827 
     14 C14       -50.7830  -28.6762    9.2194 C.ar      14 UNK        -0.1249 
     15 C15       -51.7908  -28.4920   11.5298 C.3       14 UNK         0.0141 
     16 S16       -53.4283  -29.2519   11.7080 S.3       14 UNK        -0.2313 
     17 C17       -53.1264  -30.2083   13.2317 C.3       14 UNK        -0.0915 
     18 CA        -54.4283  -30.6035   13.9729 C.3       13 UNK         0.0968 
     19 C         -54.1613  -31.6955   15.0531 C.2       13 UNK         0.5732 
     20 N         -54.5348  -31.5158   16.3151 N.am      13 UNK        -0.7310 
     21 O         -53.6112  -32.7472   14.7344 O.2       13 UNK        -0.5035 
     22 N         -55.1442  -29.4221   14.4784 N.am      13 UNK        -0.4233 
     23 C         -56.4697  -29.3753   14.6664 C.2       13 UNK         0.4989 
     24 O         -57.2373  -30.2811   14.3347 O.2       13 UNK        -0.4996 
     25 CA        -57.0286  -28.1126   15.3530 C.3       12 UNK         0.0216 
     26 CB        -58.4571  -28.3114   15.9034 C.3       12 UNK        -0.1964 
     27 N         -56.1483  -27.5762   16.3991 N.am      12 UNK        -0.4276 
     28 C         -55.6890  -28.2150   17.4889 C.2       12 UNK         0.5020 
     29 O         -55.9627  -29.3868   17.7512 O.2       12 UNK        -0.5489 
     30 CA        -54.7389  -27.4480   18.4300 C.3       11 UNK         0.0294 
     31 CB        -53.4673  -28.2684   18.7154 C.3       11 UNK        -0.2019 
     32 N         -54.3450  -26.1525   17.8750 N.am      11 UNK        -0.4493 
     33 C         -54.9165  -24.9757   18.1679 C.2       11 UNK         0.4932 
     34 O         -55.7906  -24.8326   19.0225 O.2       11 UNK        -0.5029 
     35 CA        -54.4601  -23.7514   17.3486 C.3       10 UNK         0.0280 
     36 CB        -53.4088  -22.9462   18.1288 C.3       10 UNK        -0.1976 
     37 N         -53.9171  -24.0968   16.0309 N.am      10 UNK        -0.4242 
     38 C         -54.6040  -24.6873   15.0403 C.2       10 UNK         0.5072 
     39 O         -55.8074  -24.9359   15.0994 O.2       10 UNK        -0.5224 
     40 CA        -53.7985  -25.1560   13.8156 C.3       9 UNK         0.0343 
     41 CB        -53.8448  -24.0888   12.7114 C.3       9 UNK        -0.2003 
     42 N         -52.4083  -25.4939   14.1554 N.am      9 UNK        -0.4272 
     43 C         -52.0704  -26.5240   14.9521 C.2       9 UNK         0.4988 
     44 O         -52.9042  -27.3131   15.4015 O.2       9 UNK        -0.5108 
     45 CA        -50.5933  -26.7023   15.3572 C.3       8 UNK         0.0248 
     46 CB        -50.0656  -28.0912   14.9618 C.3       8 UNK        -0.2001 
     47 N         -49.7041  -25.6737   14.8114 N.am      8 UNK        -0.4140 
     48 C         -49.4831  -24.4758   15.3771 C.2       8 UNK         0.5028 
     49 O         -49.9837  -24.1266   16.4465 O.2       8 UNK        -0.5428 
     50 CA        -48.5995  -23.4761   14.5978 C.3       7 UNK         0.0264 
     51 CB        -47.1282  -23.6174   15.0173 C.3       7 UNK        -0.1988 
     52 N         -48.7041  -23.6242   13.1417 N.am      7 UNK        -0.4454 
     53 C         -49.8570  -23.5239   12.4615 C.2       7 UNK         0.5027 
     54 O         -50.8923  -23.1025   12.9742 O.2       7 UNK        -0.5083 
     55 CA        -49.9231  -24.0670   11.0183 C.3       6 UNK         0.0844 
     56 C56       -50.3241  -22.9633   10.0096 C.3       14 UNK        -0.0967 
     57 S57       -50.4408  -23.5304    8.2755 S.3       14 UNK        -0.2604 
     58 C58       -51.9133  -24.6114    8.2881 C.3       14 UNK         0.0134 
     59 N         -48.7454  -24.8323   10.6011 N.am      6 UNK        -0.4116 
     60 C         -48.3042  -25.9716   11.1547 C.2       5 UNK         0.5034 
     61 O         -48.8665  -26.5390   12.0925 O.2       5 UNK        -0.5045 
     62 CA        -46.9652  -26.5240   10.6312 C.3       5 UNK         0.0224 
     63 CB        -47.2076  -27.6480    9.6141 C.3       5 UNK        -0.1978 
     64 N         -46.0986  -25.5086   10.0195 N.am      5 UNK        -0.4737 
     65 C         -45.6359  -24.4005   10.6133 C.2       4 UNK         0.5027 
     66 O         -45.8669  -24.1183   11.7897 O.2       4 UNK        -0.5211 
     67 CA        -44.8468  -23.4028    9.7449 C.3       4 UNK         0.0297 
     68 CB        -43.3292  -23.6452    9.8604 C.3       4 UNK        -0.1993 
     69 N         -45.2875  -23.3247    8.3395 N.am      4 UNK        -0.4486 
     70 C         -45.1562  -24.2355    7.3638 C.2       3 UNK         0.4961 
     71 O         -44.6135  -25.3321    7.5164 O.2       3 UNK        -0.5105 
     72 CA        -45.7319  -23.8376    5.9911 C.3       3 UNK         0.0299 
     73 CB        -44.8262  -22.7988    5.3071 C.3       3 UNK        -0.1972 
     74 N         -45.8882  -24.9848    5.0929 N.am      3 UNK        -0.4305 
     75 C         -46.7778  -25.9743    5.2476 C.2       2 UNK         0.5006 
     76 O         -47.6192  -26.0092    6.1474 O.2       2 UNK        -0.5106 
     77 CA        -46.6560  -27.1369    4.2412 C.3       2 UNK         0.0296 
     78 CB        -45.5580  -28.1133    4.6972 C.3       2 UNK        -0.2002 
     79 N         -47.8912  -27.8984    4.0287 N.am      2 UNK        -0.4032 
     80 C         -49.0652  -27.4106    3.6002 C.2       1 UNK         0.5000 
     81 O         -49.2636  -26.2237    3.3325 O.2       1 UNK        -0.5238 
     82 H82       -47.6855  -31.2806    1.0030 H         1 UNK         0.0889 
     83 H83       -49.2892  -31.6254    0.3491 H         1 UNK         0.0889 
     84 H84       -48.9259  -31.9934    2.0362 H         1 UNK         0.0889 
     85 H85       -49.8257  -30.5021    3.4444 H         1 UNK         0.3028 
     86 H86       -50.8528  -27.9870    2.6263 H         1 UNK         0.0864 
     87 H87       -52.0604  -28.9825    4.3398 H         1 UNK         0.0720 
     88 H88       -51.2698  -27.6840    5.1542 H         1 UNK         0.0720 
     89 H89       -48.8663  -29.5585    7.6124 H         1 UNK         0.0814 
     90 H90       -48.8402  -28.2099    6.5229 H         1 UNK         0.0814 
     91 H91       -50.4325  -26.3272    6.7945 H         1 UNK         0.1469 
     92 H92       -52.5512  -26.0904   10.5132 H         1 UNK         0.1381 
     93 H93       -50.4543  -29.6750    9.4721 H         1 UNK         0.1206 
     94 H94       -51.0207  -29.2241   11.7784 H         1 UNK         0.0813 
     95 H95       -51.6927  -27.6882   12.2589 H         1 UNK         0.0813 
     96 H96       -52.5590  -31.0939   12.9393 H         1 UNK         0.0638 
     97 H97       -52.4790  -29.6367   13.8977 H         1 UNK         0.0638 
     98 H98       -55.0689  -31.0936   13.2374 H         1 UNK         0.0568 
     99 H99       -54.3507  -32.2474   16.9821 H         1 UNK         0.3450 
    100 H100      -55.0285  -30.6819   16.6165 H         1 UNK         0.3450 
    101 H101      -54.5649  -28.6551   14.7982 H         1 UNK         0.2987 
    102 H102      -57.0794  -27.3488   14.5757 H         1 UNK         0.0766 
    103 H103      -58.8371  -27.3966   16.3580 H         1 UNK         0.0798 
    104 H104      -59.1503  -28.5873   15.1078 H         1 UNK         0.0798 
    105 H105      -58.4937  -29.1002   16.6557 H         1 UNK         0.0798 
    106 H106      -55.8681  -26.6117   16.2554 H         1 UNK         0.3198 
    107 H107      -55.2687  -27.3045   19.3741 H         1 UNK         0.0843 
    108 H108      -52.9262  -28.5110   17.8001 H         1 UNK         0.0831 
    109 H109      -53.7115  -29.2116   19.2059 H         1 UNK         0.0831 
    110 H110      -52.7871  -27.7303   19.3755 H         1 UNK         0.0831 
    111 H111      -53.6565  -26.1905   17.1338 H         1 UNK         0.3133 
    112 H112      -55.3344  -23.1162   17.1925 H         1 UNK         0.0566 
    113 H113      -52.4949  -23.5209   18.2871 H         1 UNK         0.0814 
    114 H114      -53.7869  -22.6571   19.1105 H         1 UNK         0.0814 
    115 H115      -53.1411  -22.0287   17.6042 H         1 UNK         0.0814 
    116 H116      -52.9305  -23.9284   15.8910 H         1 UNK         0.3091 
    117 H117      -54.2731  -26.0614   13.4301 H         1 UNK         0.0702 
    118 H118      -53.2337  -24.3645   11.8539 H         1 UNK         0.0785 
    119 H119      -53.4990  -23.1191   13.0710 H         1 UNK         0.0785 
    120 H120      -54.8652  -23.9513   12.3513 H         1 UNK         0.0785 
    121 H121      -51.6945  -24.8482   13.8388 H         1 UNK         0.2998 
    122 H122      -50.5665  -26.6459   16.4474 H         1 UNK         0.0697 
    123 H123      -50.0389  -28.2264   13.8816 H         1 UNK         0.0825 
    124 H124      -50.6882  -28.8834   15.3794 H         1 UNK         0.0825 
    125 H125      -49.0548  -28.2485   15.3384 H         1 UNK         0.0825 
    126 H126      -49.2766  -25.8845   13.9131 H         1 UNK         0.3029 
    127 H127      -48.9375  -22.4700   14.8552 H         1 UNK         0.0897 
    128 H128      -46.5045  -22.8639   14.5356 H         1 UNK         0.0792 
    129 H129      -47.0146  -23.4917   16.0951 H         1 UNK         0.0792 
    130 H130      -46.7269  -24.5979   14.7571 H         1 UNK         0.0792 
    131 H131      -47.8731  -23.9455   12.6566 H         1 UNK         0.3086 
    132 H132      -50.7430  -24.7769   11.0574 H         1 UNK         0.0583 
    133 H133      -51.2828  -22.5210   10.2890 H         1 UNK         0.1020 
    134 H134      -49.5999  -22.1472   10.0406 H         1 UNK         0.1020 
    135 H135      -52.6530  -24.2241    8.9904 H         1 UNK         0.0694 
    136 H136      -52.3795  -24.5768    7.3025 H         1 UNK         0.0694 
    137 H137      -48.2257  -24.4555    9.8227 H         1 UNK         0.2989 
    138 H138      -46.4338  -26.9398   11.4897 H         1 UNK         0.1055 
    139 H139      -46.2747  -28.1320    9.3247 H         1 UNK         0.0806 
    140 H140      -47.6818  -27.2672    8.7090 H         1 UNK         0.0806 
    141 H141      -47.8593  -28.4188   10.0281 H         1 UNK         0.0806 
    142 H142      -45.8096  -25.6666    9.0585 H         1 UNK         0.3061 
    143 H143      -45.0462  -22.4148   10.1636 H         1 UNK         0.0734 
    144 H144      -43.0041  -23.5702   10.8990 H         1 UNK         0.0832 
    145 H145      -43.0430  -24.6359    9.5064 H         1 UNK         0.0832 
    146 H146      -42.7643  -22.9080    9.2902 H         1 UNK         0.0832 
    147 H147      -45.7684  -22.4674    8.1018 H         1 UNK         0.3156 
    148 H148      -46.7183  -23.3960    6.1493 H         1 UNK         0.0589 
    149 H149      -43.8231  -23.1908    5.1332 H         1 UNK         0.0808 
    150 H150      -45.2356  -22.4862    4.3462 H         1 UNK         0.0808 
    151 H151      -44.7216  -21.9002    5.9164 H         1 UNK         0.0808 
    152 H152      -45.2045  -25.0667    4.3547 H         1 UNK         0.3098 
    153 H153      -46.3712  -26.7174    3.2742 H         1 UNK         0.0720 
    154 H154      -45.3928  -28.9008    3.9615 H         1 UNK         0.0791 
    155 H155      -44.6055  -27.6001    4.8374 H         1 UNK         0.0791 
    156 H156      -45.8123  -28.5861    5.6470 H         1 UNK         0.0791 
    157 H157      -47.8426  -28.8885    4.2159 H         1 UNK         0.3028 
@<TRIPOS>BOND
     1    1    2 1    
     2    1   82 1    
     3    1   83 1    
     4    1   84 1    
     5    2    3 2    
     6    2    4 am   BACKBONE|DICT|INTERRES
     7    4    5 1    
     8    4   85 1    
     9    5    6 1    
    10    5   80 1    
    11    5   86 1    
    12    6    7 1    
    13    6   87 1    
    14    6   88 1    
    15    7    8 1    
    16    8    9 1    
    17    8   89 1    
    18    8   90 1    
    19    9   10 ar   
    20    9   14 ar   
    21   10   11 ar   
    22   10   91 1    
    23   11   12 ar   
    24   11   58 1    
    25   12   13 ar   
    26   12   92 1    
    27   13   14 ar   
    28   13   15 1    
    29   14   93 1    
    30   15   16 1    
    31   15   94 1    
    32   15   95 1    
    33   16   17 1    
    34   17   18 1    
    35   17   96 1    
    36   17   97 1    
    37   18   19 1    
    38   18   22 1    
    39   18   98 1    
    40   19   20 am   BACKBONE|DICT|INTERRES
    41   19   21 2    
    42   20   99 1    
    43   20  100 1    
    44   22   23 am   BACKBONE|DICT|INTERRES
    45   22  101 1    
    46   23   24 2    
    47   23   25 1    
    48   25   26 1    
    49   25   27 1    
    50   25  102 1    
    51   26  103 1    
    52   26  104 1    
    53   26  105 1    
    54   27   28 am   BACKBONE|DICT|INTERRES
    55   27  106 1    
    56   28   29 2    
    57   28   30 1    
    58   30   31 1    
    59   30   32 1    
    60   30  107 1    
    61   31  108 1    
    62   31  109 1    
    63   31  110 1    
    64   32   33 am   BACKBONE|DICT|INTERRES
    65   32  111 1    
    66   33   34 2    
    67   33   35 1    
    68   35   36 1    
    69   35   37 1    
    70   35  112 1    
    71   36  113 1    
    72   36  114 1    
    73   36  115 1    
    74   37   38 am   BACKBONE|DICT|INTERRES
    75   37  116 1    
    76   38   39 2    
    77   38   40 1    
    78   40   41 1    
    79   40   42 1    
    80   40  117 1    
    81   41  118 1    
    82   41  119 1    
    83   41  120 1    
    84   42   43 am   BACKBONE|DICT|INTERRES
    85   42  121 1    
    86   43   44 2    
    87   43   45 1    
    88   45   46 1    
    89   45   47 1    
    90   45  122 1    
    91   46  123 1    
    92   46  124 1    
    93   46  125 1    
    94   47   48 am   BACKBONE|DICT|INTERRES
    95   47  126 1    
    96   48   49 2    
    97   48   50 1    
    98   50   51 1    
    99   50   52 1    
   100   50  127 1    
   101   51  128 1    
   102   51  129 1    
   103   51  130 1    
   104   52   53 am   BACKBONE|DICT|INTERRES
   105   52  131 1    
   106   53   54 2    
   107   53   55 1    
   108   55   56 1    
   109   55   59 1    
   110   55  132 1    
   111   56   57 1    
   112   56  133 1    
   113   56  134 1    
   114   57   58 1    
   115   58  135 1    
   116   58  136 1    
   117   59   60 am   BACKBONE|DICT|INTERRES
   118   59  137 1    
   119   60   61 2    
   120   60   62 1    
   121   62   63 1    
   122   62   64 1    
   123   62  138 1    
   124   63  139 1    
   125   63  140 1    
   126   63  141 1    
   127   64   65 am   BACKBONE|DICT|INTERRES
   128   64  142 1    
   129   65   66 2    
   130   65   67 1    
   131   67   68 1    
   132   67   69 1    
   133   67  143 1    
   134   68  144 1    
   135   68  145 1    
   136   68  146 1    
   137   69   70 am   BACKBONE|DICT|INTERRES
   138   69  147 1    
   139   70   71 2    
   140   70   72 1    
   141   72   73 1    
   142   72   74 1    
   143   72  148 1    
   144   73  149 1    
   145   73  150 1    
   146   73  151 1    
   147   74   75 am   BACKBONE|DICT|INTERRES
   148   74  152 1    
   149   75   76 2    
   150   75   77 1    
   151   77   78 1    
   152   77   79 1    
   153   77  153 1    
   154   78  154 1    
   155   78  155 1    
   156   78  156 1    
   157   79   80 am   BACKBONE|DICT|INTERRES
   158   79  157 1    
   159   80   81 2    
@<TRIPOS>SUBSTRUCTURE
     1 UNK         1 GROUP             0       ****    0 ROOT    
