@<TRIPOS>MOLECULE
3R207
157   159    1
SMALL
USER_CHARGES


@<TRIPOS>ATOM
      1 CA        -53.1182  -23.5913    2.4072 C.3       0 UNK        -0.1975 
      2 C         -52.5754  -23.7393    3.8211 C.2       0 UNK         0.4852 
      3 O         -52.0750  -22.7664    4.3860 O.2       0 UNK        -0.5216 
      4 N         -52.6792  -24.9467    4.3937 N.am      1 UNK        -0.4461 
      5 CA        -52.1812  -25.3019    5.7277 C.3       1 UNK         0.0864 
      6 C6        -52.7765  -26.6597    6.1839 C.3       14 UNK        -0.0898 
      7 S7        -52.4728  -27.0643    7.9365 S.3       14 UNK        -0.2598 
      8 C8        -51.6220  -28.6649    7.7570 C.3       14 UNK         0.0286 
      9 C9        -51.1285  -29.2367    9.0802 C.ar      14 UNK        -0.0844 
     10 C10       -49.7784  -29.5630    9.2506 C.ar      14 UNK        -0.0881 
     11 C11       -49.3364  -30.1836   10.4241 C.ar      14 UNK        -0.0643 
     12 C12       -50.2537  -30.4545   11.4444 C.ar      14 UNK        -0.0930 
     13 C13       -51.6041  -30.1240   11.2910 C.ar      14 UNK        -0.0827 
     14 C14       -52.0325  -29.5129   10.1087 C.ar      14 UNK        -0.1249 
     15 C15       -52.6000  -30.4137   12.4034 C.3       14 UNK         0.0141 
     16 S16       -53.9782  -31.4675   11.8510 S.3       14 UNK        -0.2313 
     17 C17       -55.2368  -31.0655   13.1103 C.3       14 UNK        -0.0915 
     18 CA        -56.2269  -29.9731   12.6200 C.3       13 UNK         0.0968 
     19 C         -57.4368  -29.8030   13.5844 C.2       13 UNK         0.5732 
     20 N         -57.8115  -28.5959   13.9952 N.am      13 UNK        -0.7310 
     21 O         -58.0727  -30.7888   13.9511 O.2       13 UNK        -0.5035 
     22 N         -55.5309  -28.7067   12.3562 N.am      13 UNK        -0.4233 
     23 C         -55.6221  -27.9836   11.2338 C.2       13 UNK         0.4989 
     24 O         -56.2748  -28.3339   10.2490 O.2       13 UNK        -0.4996 
     25 CA        -54.8484  -26.6464   11.1939 C.3       12 UNK         0.0216 
     26 CB        -55.5273  -25.5990   10.2878 C.3       12 UNK        -0.1964 
     27 N         -54.5571  -26.0649   12.5113 N.am      12 UNK        -0.4276 
     28 C         -55.4207  -25.7645   13.4898 C.2       12 UNK         0.5020 
     29 O         -56.6383  -25.9441   13.4082 O.2       12 UNK        -0.5489 
     30 CA        -54.8008  -25.2350   14.8001 C.3       11 UNK         0.0294 
     31 CB        -55.8440  -25.0970   15.9281 C.3       11 UNK        -0.2019 
     32 N         -53.6532  -26.0172   15.2878 N.am      11 UNK        -0.4493 
     33 C         -53.5758  -27.3481   15.4590 C.2       11 UNK         0.4932 
     34 O         -54.4484  -28.1360   15.0916 O.2       11 UNK        -0.5029 
     35 CA        -52.3286  -27.8995   16.1774 C.3       10 UNK         0.0280 
     36 CB        -51.8647  -29.2514   15.6126 C.3       10 UNK        -0.1976 
     37 N         -51.2006  -26.9672   16.1451 N.am      10 UNK        -0.4242 
     38 C         -50.7834  -26.2348   17.1854 C.2       10 UNK         0.5072 
     39 O         -51.3080  -26.2569   18.2997 O.2       10 UNK        -0.5224 
     40 CA        -49.5843  -25.3026   16.9435 C.3       9 UNK         0.0343 
     41 CB        -48.2654  -26.0699   17.1232 C.3       9 UNK        -0.2003 
     42 N         -49.5973  -24.6338   15.6378 N.am      9 UNK        -0.4272 
     43 C         -50.5601  -23.7943   15.2245 C.2       9 UNK         0.4988 
     44 O         -51.5800  -23.5460   15.8690 O.2       9 UNK        -0.5108 
     45 CA        -50.3606  -23.1240   13.8571 C.3       8 UNK         0.0248 
     46 CB        -49.2972  -22.0176   13.9441 C.3       8 UNK        -0.2001 
     47 N         -50.0061  -24.0840   12.8113 N.am      8 UNK        -0.4140 
     48 C         -50.8426  -25.0245   12.3485 C.2       8 UNK         0.5028 
     49 O         -52.0090  -25.1398   12.7194 O.2       8 UNK        -0.5428 
     50 CA        -50.2817  -26.0368   11.3381 C.3       7 UNK         0.0264 
     51 CB        -50.1532  -25.3979    9.9502 C.3       7 UNK        -0.1988 
     52 N         -48.9942  -26.5951   11.7512 N.am      7 UNK        -0.4454 
     53 C         -48.7874  -27.2497   12.9051 C.2       7 UNK         0.5027 
     54 O         -49.6687  -27.4808   13.7343 O.2       7 UNK        -0.5083 
     55 CA        -47.3406  -27.6548   13.2369 C.3       6 UNK         0.0844 
     56 C56       -46.9969  -29.0920   12.7754 C.3       14 UNK        -0.0967 
     57 S57       -46.7512  -29.2722   10.9772 S.3       14 UNK        -0.2604 
     58 C58       -47.8852  -30.6302   10.5512 C.3       14 UNK         0.0134 
     59 N         -46.3748  -26.6447   12.7937 N.am      6 UNK        -0.4116 
     60 C         -46.2518  -25.4355   13.3602 C.2       5 UNK         0.5034 
     61 O         -46.9267  -25.0527   14.3175 O.2       5 UNK        -0.5045 
     62 CA        -45.2254  -24.4782   12.7331 C.3       5 UNK         0.0224 
     63 CB        -43.7911  -25.0107   12.8920 C.3       5 UNK        -0.1978 
     64 N         -45.4962  -24.1936   11.3217 N.am      5 UNK        -0.4737 
     65 C         -46.6108  -23.6078   10.8624 C.2       4 UNK         0.5027 
     66 O         -47.5420  -23.2489   11.5799 O.2       4 UNK        -0.5211 
     67 CA        -46.7177  -23.3844    9.3446 C.3       4 UNK         0.0297 
     68 CB        -46.0991  -22.0287    8.9671 C.3       4 UNK        -0.1993 
     69 N         -46.1347  -24.4338    8.5017 N.am      4 UNK        -0.4486 
     70 C         -46.3552  -25.7539    8.5905 C.2       3 UNK         0.4961 
     71 O         -46.9887  -26.2944    9.4980 O.2       3 UNK        -0.5105 
     72 CA        -45.7908  -26.5765    7.4183 C.3       3 UNK         0.0299 
     73 CB        -45.6355  -28.0791    7.7351 C.3       3 UNK        -0.1972 
     74 N         -46.5928  -26.3394    6.2092 N.am      3 UNK        -0.4305 
     75 C         -47.8665  -26.7058    5.9965 C.2       2 UNK         0.5006 
     76 O         -48.4998  -27.4803    6.7131 O.2       2 UNK        -0.5106 
     77 CA        -48.5352  -26.1250    4.7359 C.3       2 UNK         0.0296 
     78 CB        -48.2122  -26.9922    3.5076 C.3       2 UNK        -0.2002 
     79 N         -49.9926  -26.0099    4.8651 N.am      2 UNK        -0.4032 
     80 C         -50.6364  -25.2598    5.7744 C.2       1 UNK         0.5000 
     81 O         -50.0698  -24.5170    6.5791 O.2       1 UNK        -0.5238 
     82 H82       -53.5394  -24.5235    2.0309 H         1 UNK         0.0889 
     83 H83       -52.3220  -23.2820    1.7306 H         1 UNK         0.0889 
     84 H84       -53.9000  -22.8326    2.3831 H         1 UNK         0.0889 
     85 H85       -53.1145  -25.6959    3.8743 H         1 UNK         0.3028 
     86 H86       -52.5424  -24.5366    6.4187 H         1 UNK         0.0864 
     87 H87       -53.8601  -26.6410    6.0560 H         1 UNK         0.0720 
     88 H88       -52.4214  -27.4700    5.5449 H         1 UNK         0.0720 
     89 H89       -50.7942  -28.5501    7.0579 H         1 UNK         0.0814 
     90 H90       -52.3082  -29.3809    7.3027 H         1 UNK         0.0814 
     91 H91       -49.0710  -29.3622    8.4574 H         1 UNK         0.1469 
     92 H92       -49.9183  -30.9377   12.3515 H         1 UNK         0.1381 
     93 H93       -53.0784  -29.2709    9.9789 H         1 UNK         0.1206 
     94 H94       -52.9782  -29.4626   12.7774 H         1 UNK         0.0813 
     95 H95       -52.1120  -30.9136   13.2404 H         1 UNK         0.0813 
     96 H96       -54.7509  -30.7623   14.0394 H         1 UNK         0.0638 
     97 H97       -55.7681  -31.9920   13.3344 H         1 UNK         0.0638 
     98 H98       -56.6683  -30.3389   11.6917 H         1 UNK         0.0568 
     99 H99       -57.3172  -27.7588   13.7007 H         1 UNK         0.3450 
    100 H100      -58.6029  -28.5147   14.6123 H         1 UNK         0.3450 
    101 H101      -55.0326  -28.3239   13.1529 H         1 UNK         0.2987 
    102 H102      -53.8773  -26.8800   10.7550 H         1 UNK         0.0766 
    103 H103      -56.5287  -25.3506   10.6410 H         1 UNK         0.0798 
    104 H104      -54.9463  -24.6777   10.2452 H         1 UNK         0.0798 
    105 H105      -55.6208  -25.9656    9.2647 H         1 UNK         0.0798 
    106 H106      -53.5732  -25.8319   12.6760 H         1 UNK         0.3198 
    107 H107      -54.4183  -24.2381   14.5742 H         1 UNK         0.0843 
    108 H108      -56.2758  -26.0626   16.1947 H         1 UNK         0.0831 
    109 H109      -56.6644  -24.4442   15.6271 H         1 UNK         0.0831 
    110 H110      -55.4025  -24.6667   16.8269 H         1 UNK         0.0831 
    111 H111      -52.8537  -25.4651   15.5742 H         1 UNK         0.3133 
    112 H112      -52.6398  -28.0767   17.2085 H         1 UNK         0.0566 
    113 H113      -52.6776  -29.9779   15.5828 H         1 UNK         0.0814 
    114 H114      -51.4720  -29.1409   14.6040 H         1 UNK         0.0814 
    115 H115      -51.0733  -29.6808   16.2268 H         1 UNK         0.0814 
    116 H116      -50.6884  -26.9163   15.2661 H         1 UNK         0.3091 
    117 H117      -49.6234  -24.5202   17.7043 H         1 UNK         0.0702 
    118 H118      -47.4049  -25.4051   17.0460 H         1 UNK         0.0785 
    119 H119      -48.1527  -26.8541   16.3747 H         1 UNK         0.0785 
    120 H120      -48.2199  -26.5455   18.1039 H         1 UNK         0.0785 
    121 H121      -48.7821  -24.7755   15.0480 H         1 UNK         0.2998 
    122 H122      -51.3070  -22.6575   13.5749 H         1 UNK         0.0697 
    123 H123      -48.3110  -22.4213   14.1780 H         1 UNK         0.0825 
    124 H124      -49.5478  -21.2928   14.7197 H         1 UNK         0.0825 
    125 H125      -49.2179  -21.4719   13.0038 H         1 UNK         0.0825 
    126 H126      -49.0662  -24.0147   12.4271 H         1 UNK         0.3029 
    127 H127      -50.9876  -26.8673   11.2675 H         1 UNK         0.0897 
    128 H128      -49.4483  -24.5701    9.9530 H         1 UNK         0.0792 
    129 H129      -51.1115  -25.0040    9.6104 H         1 UNK         0.0792 
    130 H130      -49.8158  -26.1224    9.2074 H         1 UNK         0.0792 
    131 H131      -48.2200  -26.4871   11.1007 H         1 UNK         0.3086 
    132 H132      -47.2830  -27.6757   14.3270 H         1 UNK         0.0583 
    133 H133      -46.0738  -29.4109   13.2615 H         1 UNK         0.1020 
    134 H134      -47.7590  -29.7920   13.1225 H         1 UNK         0.1020 
    135 H135      -47.5631  -31.0562    9.5998 H         1 UNK         0.0694 
    136 H136      -47.7877  -31.4328   11.2840 H         1 UNK         0.0694 
    137 H137      -45.8427  -26.8640   11.9635 H         1 UNK         0.2989 
    138 H138      -45.2960  -23.5333   13.2769 H         1 UNK         0.1055 
    139 H139      -43.5736  -25.2392   13.9365 H         1 UNK         0.0806 
    140 H140      -43.0578  -24.2728   12.5660 H         1 UNK         0.0806 
    141 H141      -43.6255  -25.9226   12.3172 H         1 UNK         0.0806 
    142 H142      -44.7932  -24.4676   10.6509 H         1 UNK         0.3061 
    143 H143      -47.7786  -23.3397    9.0961 H         1 UNK         0.0734 
    144 H144      -45.0212  -22.0156    9.1334 H         1 UNK         0.0832 
    145 H145      -46.2825  -21.7835    7.9209 H         1 UNK         0.0832 
    146 H146      -46.5299  -21.2236    9.5644 H         1 UNK         0.0832 
    147 H147      -45.5933  -24.1060    7.7151 H         1 UNK         0.3156 
    148 H148      -44.7913  -26.1931    7.2069 H         1 UNK         0.0589 
    149 H149      -46.5796  -28.5420    8.0220 H         1 UNK         0.0808 
    150 H150      -45.2395  -28.6272    6.8806 H         1 UNK         0.0808 
    151 H151      -44.9454  -28.2265    8.5664 H         1 UNK         0.0808 
    152 H152      -46.1664  -25.7274    5.5271 H         1 UNK         0.3098 
    153 H153      -48.1425  -25.1196    4.5702 H         1 UNK         0.0720 
    154 H154      -48.6336  -26.5659    2.5969 H         1 UNK         0.0791 
    155 H155      -48.6020  -28.0052    3.6175 H         1 UNK         0.0791 
    156 H156      -47.1351  -27.0737    3.3557 H         1 UNK         0.0791 
    157 H157      -50.5430  -26.5820    4.2431 H         1 UNK         0.3028 
@<TRIPOS>BOND
     1    1    2 1    
     2    1   82 1    
     3    1   83 1    
     4    1   84 1    
     5    2    3 2    
     6    2    4 am   BACKBONE|DICT|INTERRES
     7    4    5 1    
     8    4   85 1    
     9    5    6 1    
    10    5   80 1    
    11    5   86 1    
    12    6    7 1    
    13    6   87 1    
    14    6   88 1    
    15    7    8 1    
    16    8    9 1    
    17    8   89 1    
    18    8   90 1    
    19    9   10 ar   
    20    9   14 ar   
    21   10   11 ar   
    22   10   91 1    
    23   11   12 ar   
    24   11   58 1    
    25   12   13 ar   
    26   12   92 1    
    27   13   14 ar   
    28   13   15 1    
    29   14   93 1    
    30   15   16 1    
    31   15   94 1    
    32   15   95 1    
    33   16   17 1    
    34   17   18 1    
    35   17   96 1    
    36   17   97 1    
    37   18   19 1    
    38   18   22 1    
    39   18   98 1    
    40   19   20 am   BACKBONE|DICT|INTERRES
    41   19   21 2    
    42   20   99 1    
    43   20  100 1    
    44   22   23 am   BACKBONE|DICT|INTERRES
    45   22  101 1    
    46   23   24 2    
    47   23   25 1    
    48   25   26 1    
    49   25   27 1    
    50   25  102 1    
    51   26  103 1    
    52   26  104 1    
    53   26  105 1    
    54   27   28 am   BACKBONE|DICT|INTERRES
    55   27  106 1    
    56   28   29 2    
    57   28   30 1    
    58   30   31 1    
    59   30   32 1    
    60   30  107 1    
    61   31  108 1    
    62   31  109 1    
    63   31  110 1    
    64   32   33 am   BACKBONE|DICT|INTERRES
    65   32  111 1    
    66   33   34 2    
    67   33   35 1    
    68   35   36 1    
    69   35   37 1    
    70   35  112 1    
    71   36  113 1    
    72   36  114 1    
    73   36  115 1    
    74   37   38 am   BACKBONE|DICT|INTERRES
    75   37  116 1    
    76   38   39 2    
    77   38   40 1    
    78   40   41 1    
    79   40   42 1    
    80   40  117 1    
    81   41  118 1    
    82   41  119 1    
    83   41  120 1    
    84   42   43 am   BACKBONE|DICT|INTERRES
    85   42  121 1    
    86   43   44 2    
    87   43   45 1    
    88   45   46 1    
    89   45   47 1    
    90   45  122 1    
    91   46  123 1    
    92   46  124 1    
    93   46  125 1    
    94   47   48 am   BACKBONE|DICT|INTERRES
    95   47  126 1    
    96   48   49 2    
    97   48   50 1    
    98   50   51 1    
    99   50   52 1    
   100   50  127 1    
   101   51  128 1    
   102   51  129 1    
   103   51  130 1    
   104   52   53 am   BACKBONE|DICT|INTERRES
   105   52  131 1    
   106   53   54 2    
   107   53   55 1    
   108   55   56 1    
   109   55   59 1    
   110   55  132 1    
   111   56   57 1    
   112   56  133 1    
   113   56  134 1    
   114   57   58 1    
   115   58  135 1    
   116   58  136 1    
   117   59   60 am   BACKBONE|DICT|INTERRES
   118   59  137 1    
   119   60   61 2    
   120   60   62 1    
   121   62   63 1    
   122   62   64 1    
   123   62  138 1    
   124   63  139 1    
   125   63  140 1    
   126   63  141 1    
   127   64   65 am   BACKBONE|DICT|INTERRES
   128   64  142 1    
   129   65   66 2    
   130   65   67 1    
   131   67   68 1    
   132   67   69 1    
   133   67  143 1    
   134   68  144 1    
   135   68  145 1    
   136   68  146 1    
   137   69   70 am   BACKBONE|DICT|INTERRES
   138   69  147 1    
   139   70   71 2    
   140   70   72 1    
   141   72   73 1    
   142   72   74 1    
   143   72  148 1    
   144   73  149 1    
   145   73  150 1    
   146   73  151 1    
   147   74   75 am   BACKBONE|DICT|INTERRES
   148   74  152 1    
   149   75   76 2    
   150   75   77 1    
   151   77   78 1    
   152   77   79 1    
   153   77  153 1    
   154   78  154 1    
   155   78  155 1    
   156   78  156 1    
   157   79   80 am   BACKBONE|DICT|INTERRES
   158   79  157 1    
   159   80   81 2    
@<TRIPOS>SUBSTRUCTURE
     1 UNK         1 GROUP             0       ****    0 ROOT    
