@<TRIPOS>MOLECULE
3R207
157   159    1
SMALL
USER_CHARGES


@<TRIPOS>ATOM
      1 CA        -48.4185  -24.5626   12.2780 C.3       0 UNK        -0.1975 
      2 C         -48.5476  -25.5644   11.1441 C.2       0 UNK         0.4852 
      3 O         -48.4973  -25.1761    9.9785 O.2       0 UNK        -0.5216 
      4 N         -48.7097  -26.8498   11.4749 N.am      1 UNK        -0.4461 
      5 CA        -48.7002  -27.9803   10.5397 C.3       1 UNK         0.0864 
      6 C6        -49.8499  -27.9126    9.4947 C.3       14 UNK        -0.0898 
      7 S7        -50.4639  -29.5679    9.0488 S.3       14 UNK        -0.2598 
      8 C8        -51.3147  -29.2091    7.4792 C.3       14 UNK         0.0286 
      9 C9        -52.4324  -28.1831    7.6316 C.ar      14 UNK        -0.0844 
     10 C10       -52.4303  -27.0233    6.8507 C.ar      14 UNK        -0.0881 
     11 C11       -53.4689  -26.0926    6.9536 C.ar      14 UNK        -0.0643 
     12 C12       -54.5064  -26.3185    7.8648 C.ar      14 UNK        -0.0930 
     13 C13       -54.5269  -27.4809    8.6433 C.ar      14 UNK        -0.0827 
     14 C14       -53.4896  -28.4094    8.5189 C.ar      14 UNK        -0.1249 
     15 C15       -55.7061  -27.7741    9.5599 C.3       14 UNK         0.0141 
     16 S16       -55.4223  -27.2359   11.2755 S.3       14 UNK        -0.2313 
     17 C17       -57.0514  -27.6733   11.9685 C.3       14 UNK        -0.0915 
     18 CA        -57.1154  -27.6658   13.5183 C.3       13 UNK         0.0968 
     19 C         -58.5926  -27.8360   13.9836 C.2       13 UNK         0.5732 
     20 N         -58.9984  -28.9883   14.5045 N.am      13 UNK        -0.7310 
     21 O         -59.3830  -26.9022   13.8681 O.2       13 UNK        -0.5035 
     22 N         -56.1632  -28.6182   14.1157 N.am      13 UNK        -0.4233 
     23 C         -55.8720  -28.7027   15.4201 C.2       13 UNK         0.4989 
     24 O         -56.3619  -27.9682   16.2780 O.2       13 UNK        -0.4996 
     25 CA        -54.8466  -29.7649   15.8554 C.3       12 UNK         0.0216 
     26 CB        -55.4958  -31.1555   16.0012 C.3       12 UNK        -0.1964 
     27 N         -53.6349  -29.7968   15.0254 N.am      12 UNK        -0.4276 
     28 C         -53.4964  -30.1928   13.7512 C.2       12 UNK         0.5020 
     29 O         -54.4155  -30.6676   13.0828 O.2       12 UNK        -0.5489 
     30 CA        -52.1319  -29.9758   13.0807 C.3       11 UNK         0.0294 
     31 CB        -52.1776  -28.6842   12.2551 C.3       11 UNK        -0.2019 
     32 N         -51.0207  -29.8921   14.0367 N.am      11 UNK        -0.4493 
     33 C         -49.8366  -30.5023   13.8818 C.2       11 UNK         0.4932 
     34 O         -49.5655  -31.2260   12.9224 O.2       11 UNK        -0.5029 
     35 CA        -48.7740  -30.2873   14.9831 C.3       10 UNK         0.0280 
     36 CB        -47.3300  -30.3998   14.4444 C.3       10 UNK        -0.1976 
     37 N         -48.9578  -29.0513   15.7555 N.am      10 UNK        -0.4242 
     38 C         -48.8587  -27.7925   15.3052 C.2       10 UNK         0.5072 
     39 O         -48.5253  -27.4876   14.1593 O.2       10 UNK        -0.5224 
     40 CA        -49.2511  -26.6865   16.3019 C.3       9 UNK         0.0343 
     41 CB        -48.1832  -25.5810   16.3608 C.3       9 UNK        -0.2003 
     42 N         -50.5493  -26.0917   15.9701 N.am      9 UNK        -0.4272 
     43 C         -51.7070  -26.7616   15.8722 C.2       9 UNK         0.4988 
     44 O         -51.8155  -27.9705   16.0928 O.2       9 UNK        -0.5108 
     45 CA        -52.9681  -25.9756   15.4642 C.3       8 UNK         0.0248 
     46 CB        -53.8283  -25.6801   16.7029 C.3       8 UNK        -0.2001 
     47 N         -52.7411  -24.7261   14.7262 N.am      8 UNK        -0.4140 
     48 C         -52.1213  -24.6315   13.5430 C.2       8 UNK         0.5028 
     49 O         -51.5446  -25.5699   12.9902 O.2       8 UNK        -0.5428 
     50 CA        -52.1399  -23.2597   12.8583 C.3       7 UNK         0.0264 
     51 CB        -51.2062  -22.2558   13.5583 C.3       7 UNK        -0.1988 
     52 N         -51.7086  -23.4712   11.4811 N.am      7 UNK        -0.4454 
     53 C         -52.1779  -22.8437   10.4007 C.2       7 UNK         0.5027 
     54 O         -52.9402  -21.8758   10.4452 O.2       7 UNK        -0.5083 
     55 CA        -51.7118  -23.4205    9.0506 C.3       6 UNK         0.0844 
     56 C56       -52.5861  -22.9432    7.8603 C.3       14 UNK        -0.0967 
     57 S57       -52.1150  -23.7427    6.2897 S.3       14 UNK        -0.2604 
     58 C58       -53.5053  -24.8865    6.0232 C.3       14 UNK         0.0134 
     59 N         -50.2730  -23.2087    8.8600 N.am      6 UNK        -0.4116 
     60 C         -49.6343  -22.0511    8.6322 C.2       5 UNK         0.5034 
     61 O         -50.1800  -20.9474    8.6138 O.2       5 UNK        -0.5045 
     62 CA        -48.1207  -22.1367    8.3511 C.3       5 UNK         0.0224 
     63 CB        -47.3058  -21.7592    9.5984 C.3       5 UNK        -0.1978 
     64 N         -47.7126  -23.4687    7.8953 N.am      5 UNK        -0.4737 
     65 C         -47.8844  -23.9322    6.6519 C.2       4 UNK         0.5027 
     66 O         -48.2693  -23.2337    5.7123 O.2       4 UNK        -0.5211 
     67 CA        -47.5782  -25.4297    6.4400 C.3       4 UNK         0.0297 
     68 CB        -47.7405  -25.8738    4.9715 C.3       4 UNK        -0.1993 
     69 N         -46.2662  -25.8424    6.9576 N.am      4 UNK        -0.4486 
     70 C         -45.0675  -25.3169    6.6502 C.2       3 UNK         0.4961 
     71 O         -44.9149  -24.3767    5.8690 O.2       3 UNK        -0.5105 
     72 CA        -43.8097  -25.9666    7.2699 C.3       3 UNK         0.0299 
     73 CB        -42.7811  -24.9143    7.7389 C.3       3 UNK        -0.1972 
     74 N         -44.0784  -26.9569    8.3220 N.am      3 UNK        -0.4305 
     75 C         -44.5895  -26.7357    9.5407 C.2       2 UNK         0.5006 
     76 O         -44.8829  -25.6252    9.9870 O.2       2 UNK        -0.5106 
     77 CA        -44.8581  -27.9872   10.3941 C.3       2 UNK         0.0296 
     78 CB        -43.9840  -27.9918   11.6589 C.3       2 UNK        -0.2002 
     79 N         -46.2672  -28.0544   10.7781 N.am      2 UNK        -0.4032 
     80 C         -47.2945  -28.1476    9.9191 C.2       1 UNK         0.5000 
     81 O         -47.1483  -28.2985    8.7025 O.2       1 UNK        -0.5238 
     82 H82       -47.3671  -24.3911   12.5066 H         1 UNK         0.0889 
     83 H83       -48.9156  -24.9193   13.1789 H         1 UNK         0.0889 
     84 H84       -48.8661  -23.6117   11.9948 H         1 UNK         0.0889 
     85 H85       -48.7477  -27.0971   12.4661 H         1 UNK         0.3028 
     86 H86       -48.8575  -28.8594   11.1675 H         1 UNK         0.0864 
     87 H87       -49.5550  -27.3646    8.5987 H         1 UNK         0.0720 
     88 H88       -50.6992  -27.3604    9.8998 H         1 UNK         0.0720 
     89 H89       -51.7370  -30.1355    7.0881 H         1 UNK         0.0814 
     90 H90       -50.5750  -28.8764    6.7493 H         1 UNK         0.0814 
     91 H91       -51.6313  -26.8494    6.1427 H         1 UNK         0.1469 
     92 H92       -55.3197  -25.6099    7.9409 H         1 UNK         0.1381 
     93 H93       -53.5084  -29.3170    9.1067 H         1 UNK         0.1206 
     94 H94       -55.9159  -28.8450    9.5524 H         1 UNK         0.0813 
     95 H95       -56.6039  -27.2868    9.1761 H         1 UNK         0.0813 
     96 H96       -57.3378  -28.6577   11.5931 H         1 UNK         0.0638 
     97 H97       -57.7729  -26.9666   11.5533 H         1 UNK         0.0638 
     98 H98       -56.8102  -26.6728   13.8535 H         1 UNK         0.0568 
     99 H99       -58.3590  -29.7603   14.5986 H         1 UNK         0.3450 
    100 H100      -59.9558  -29.0843   14.8038 H         1 UNK         0.3450 
    101 H101      -55.7072  -29.2710   13.4847 H         1 UNK         0.2987 
    102 H102      -54.5003  -29.4676   16.8468 H         1 UNK         0.0766 
    103 H103      -56.3171  -31.1253   16.7184 H         1 UNK         0.0798 
    104 H104      -54.7774  -31.8911   16.3628 H         1 UNK         0.0798 
    105 H105      -55.9049  -31.5219   15.0595 H         1 UNK         0.0798 
    106 H106      -52.8464  -29.3207   15.4569 H         1 UNK         0.3198 
    107 H107      -51.9741  -30.8155   12.4004 H         1 UNK         0.0843 
    108 H108      -52.6230  -27.8637   12.8162 H         1 UNK         0.0831 
    109 H109      -52.7752  -28.8196   11.3544 H         1 UNK         0.0831 
    110 H110      -51.1836  -28.3689   11.9481 H         1 UNK         0.0831 
    111 H111      -51.1458  -29.2844   14.8399 H         1 UNK         0.3133 
    112 H112      -48.9183  -31.1026   15.6934 H         1 UNK         0.0566 
    113 H113      -46.5967  -30.2383   15.2344 H         1 UNK         0.0814 
    114 H114      -47.1337  -29.6784   13.6510 H         1 UNK         0.0814 
    115 H115      -47.1431  -31.3914   14.0304 H         1 UNK         0.0814 
    116 H116      -49.2734  -29.1827   16.7073 H         1 UNK         0.3091 
    117 H117      -49.3336  -27.1244   17.2988 H         1 UNK         0.0702 
    118 H118      -48.4215  -24.8388   17.1228 H         1 UNK         0.0785 
    119 H119      -48.0801  -25.0616   15.4080 H         1 UNK         0.0785 
    120 H120      -47.2062  -25.9975   16.6098 H         1 UNK         0.0785 
    121 H121      -50.5522  -25.1095   15.7413 H         1 UNK         0.2998 
    122 H122      -53.5428  -26.6305   14.8061 H         1 UNK         0.0697 
    123 H123      -53.3393  -24.9756   17.3768 H         1 UNK         0.0825 
    124 H124      -54.0246  -26.5907   17.2711 H         1 UNK         0.0825 
    125 H125      -54.7975  -25.2659   16.4241 H         1 UNK         0.0825 
    126 H126      -53.1663  -23.8960   15.1141 H         1 UNK         0.3029 
    127 H127      -53.1655  -22.8837   12.8693 H         1 UNK         0.0897 
    128 H128      -50.1954  -22.6458   13.6728 H         1 UNK         0.0792 
    129 H129      -51.5727  -22.0109   14.5557 H         1 UNK         0.0792 
    130 H130      -51.1425  -21.3206   13.0014 H         1 UNK         0.0792 
    131 H131      -51.1678  -24.3210   11.3673 H         1 UNK         0.3086 
    132 H132      -51.8416  -24.5023    9.1236 H         1 UNK         0.0583 
    133 H133      -53.6401  -23.1420    8.0631 H         1 UNK         0.1020 
    134 H134      -52.5100  -21.8624    7.7304 H         1 UNK         0.1020 
    135 H135      -54.4468  -24.3431    6.1169 H         1 UNK         0.0694 
    136 H136      -53.4652  -25.2424    4.9927 H         1 UNK         0.0694 
    137 H137      -49.6933  -24.0380    8.9459 H         1 UNK         0.2989 
    138 H138      -47.8959  -21.4121    7.5650 H         1 UNK         0.1055 
    139 H139      -47.4554  -22.4701   10.4102 H         1 UNK         0.0806 
    140 H140      -47.5900  -20.7732    9.9687 H         1 UNK         0.0806 
    141 H141      -46.2388  -21.7273    9.3770 H         1 UNK         0.0806 
    142 H142      -47.4707  -24.1364    8.6222 H         1 UNK         0.3061 
    143 H143      -48.3192  -25.9731    7.0280 H         1 UNK         0.0734 
    144 H144      -47.0392  -25.3591    4.3140 H         1 UNK         0.0832 
    145 H145      -47.5802  -26.9463    4.8615 H         1 UNK         0.0832 
    146 H146      -48.7462  -25.6584    4.6081 H         1 UNK         0.0832 
    147 H147      -46.2915  -26.6152    7.6142 H         1 UNK         0.3156 
    148 H148      -43.3451  -26.5283    6.4583 H         1 UNK         0.0589 
    149 H149      -41.8947  -25.3852    8.1636 H         1 UNK         0.0808 
    150 H150      -42.4476  -24.2946    6.9056 H         1 UNK         0.0808 
    151 H151      -43.1990  -24.2435    8.4900 H         1 UNK         0.0808 
    152 H152      -43.9027  -27.9167    8.0556 H         1 UNK         0.3098 
    153 H153      -44.6264  -28.8817    9.8120 H         1 UNK         0.0720 
    154 H154      -42.9248  -27.9597   11.4001 H         1 UNK         0.0791 
    155 H155      -44.1455  -28.8931   12.2508 H         1 UNK         0.0791 
    156 H156      -44.1898  -27.1302   12.2958 H         1 UNK         0.0791 
    157 H157      -46.4783  -27.8720   11.7483 H         1 UNK         0.3028 
@<TRIPOS>BOND
     1    1    2 1    
     2    1   82 1    
     3    1   83 1    
     4    1   84 1    
     5    2    3 2    
     6    2    4 am   BACKBONE|DICT|INTERRES
     7    4    5 1    
     8    4   85 1    
     9    5    6 1    
    10    5   80 1    
    11    5   86 1    
    12    6    7 1    
    13    6   87 1    
    14    6   88 1    
    15    7    8 1    
    16    8    9 1    
    17    8   89 1    
    18    8   90 1    
    19    9   10 ar   
    20    9   14 ar   
    21   10   11 ar   
    22   10   91 1    
    23   11   12 ar   
    24   11   58 1    
    25   12   13 ar   
    26   12   92 1    
    27   13   14 ar   
    28   13   15 1    
    29   14   93 1    
    30   15   16 1    
    31   15   94 1    
    32   15   95 1    
    33   16   17 1    
    34   17   18 1    
    35   17   96 1    
    36   17   97 1    
    37   18   19 1    
    38   18   22 1    
    39   18   98 1    
    40   19   20 am   BACKBONE|DICT|INTERRES
    41   19   21 2    
    42   20   99 1    
    43   20  100 1    
    44   22   23 am   BACKBONE|DICT|INTERRES
    45   22  101 1    
    46   23   24 2    
    47   23   25 1    
    48   25   26 1    
    49   25   27 1    
    50   25  102 1    
    51   26  103 1    
    52   26  104 1    
    53   26  105 1    
    54   27   28 am   BACKBONE|DICT|INTERRES
    55   27  106 1    
    56   28   29 2    
    57   28   30 1    
    58   30   31 1    
    59   30   32 1    
    60   30  107 1    
    61   31  108 1    
    62   31  109 1    
    63   31  110 1    
    64   32   33 am   BACKBONE|DICT|INTERRES
    65   32  111 1    
    66   33   34 2    
    67   33   35 1    
    68   35   36 1    
    69   35   37 1    
    70   35  112 1    
    71   36  113 1    
    72   36  114 1    
    73   36  115 1    
    74   37   38 am   BACKBONE|DICT|INTERRES
    75   37  116 1    
    76   38   39 2    
    77   38   40 1    
    78   40   41 1    
    79   40   42 1    
    80   40  117 1    
    81   41  118 1    
    82   41  119 1    
    83   41  120 1    
    84   42   43 am   BACKBONE|DICT|INTERRES
    85   42  121 1    
    86   43   44 2    
    87   43   45 1    
    88   45   46 1    
    89   45   47 1    
    90   45  122 1    
    91   46  123 1    
    92   46  124 1    
    93   46  125 1    
    94   47   48 am   BACKBONE|DICT|INTERRES
    95   47  126 1    
    96   48   49 2    
    97   48   50 1    
    98   50   51 1    
    99   50   52 1    
   100   50  127 1    
   101   51  128 1    
   102   51  129 1    
   103   51  130 1    
   104   52   53 am   BACKBONE|DICT|INTERRES
   105   52  131 1    
   106   53   54 2    
   107   53   55 1    
   108   55   56 1    
   109   55   59 1    
   110   55  132 1    
   111   56   57 1    
   112   56  133 1    
   113   56  134 1    
   114   57   58 1    
   115   58  135 1    
   116   58  136 1    
   117   59   60 am   BACKBONE|DICT|INTERRES
   118   59  137 1    
   119   60   61 2    
   120   60   62 1    
   121   62   63 1    
   122   62   64 1    
   123   62  138 1    
   124   63  139 1    
   125   63  140 1    
   126   63  141 1    
   127   64   65 am   BACKBONE|DICT|INTERRES
   128   64  142 1    
   129   65   66 2    
   130   65   67 1    
   131   67   68 1    
   132   67   69 1    
   133   67  143 1    
   134   68  144 1    
   135   68  145 1    
   136   68  146 1    
   137   69   70 am   BACKBONE|DICT|INTERRES
   138   69  147 1    
   139   70   71 2    
   140   70   72 1    
   141   72   73 1    
   142   72   74 1    
   143   72  148 1    
   144   73  149 1    
   145   73  150 1    
   146   73  151 1    
   147   74   75 am   BACKBONE|DICT|INTERRES
   148   74  152 1    
   149   75   76 2    
   150   75   77 1    
   151   77   78 1    
   152   77   79 1    
   153   77  153 1    
   154   78  154 1    
   155   78  155 1    
   156   78  156 1    
   157   79   80 am   BACKBONE|DICT|INTERRES
   158   79  157 1    
   159   80   81 2    
@<TRIPOS>SUBSTRUCTURE
     1 UNK         1 GROUP             0       ****    0 ROOT    
