@<TRIPOS>MOLECULE
3R207
157   159    1
SMALL
USER_CHARGES


@<TRIPOS>ATOM
      1 CA        -50.0801  -23.5640    6.7962 C.3       0 UNK        -0.1975 
      2 C         -49.6077  -25.0087    6.8028 C.2       0 UNK         0.4852 
      3 O         -48.9051  -25.4166    7.7303 O.2       0 UNK        -0.5216 
      4 N         -50.0102  -25.7787    5.7804 N.am      1 UNK        -0.4461 
      5 CA        -49.6732  -27.1907    5.5700 C.3       1 UNK         0.0864 
      6 C6        -50.4103  -27.7955    4.3448 C.3       14 UNK        -0.0898 
      7 S7        -52.2299  -27.6556    4.4161 S.3       14 UNK        -0.2598 
      8 C8        -52.7477  -29.3737    4.7405 C.3       14 UNK         0.0286 
      9 C9        -52.8068  -29.6520    6.2336 C.ar      14 UNK        -0.0844 
     10 C10       -51.6512  -30.0118    6.9316 C.ar      14 UNK        -0.0881 
     11 C11       -51.6877  -30.1815    8.3178 C.ar      14 UNK        -0.0643 
     12 C12       -52.9010  -30.0393    8.9971 C.ar      14 UNK        -0.0930 
     13 C13       -54.0730  -29.7134    8.3066 C.ar      14 UNK        -0.0827 
     14 C14       -54.0156  -29.5150    6.9239 C.ar      14 UNK        -0.1249 
     15 C15       -55.3872  -29.5082    9.0524 C.3       14 UNK         0.0141 
     16 S16       -55.7377  -30.8384   10.2481 S.3       14 UNK        -0.2313 
     17 C17       -57.3160  -30.2664   10.9616 C.3       14 UNK        -0.0915 
     18 CA        -57.1739  -29.0756   11.9489 C.3       13 UNK         0.0968 
     19 C         -58.5593  -28.7030   12.5457 C.2       13 UNK         0.5732 
     20 N         -59.2935  -27.8063   11.9010 N.am      13 UNK        -0.7310 
     21 O         -58.9914  -29.2531   13.5573 O.2       13 UNK        -0.5035 
     22 N         -56.1513  -29.3288   12.9754 N.am      13 UNK        -0.4233 
     23 C         -55.7036  -28.4212   13.8504 C.2       13 UNK         0.4989 
     24 O         -56.0792  -27.2462   13.8823 O.2       13 UNK        -0.4996 
     25 CA        -54.6104  -28.8962   14.8205 C.3       12 UNK         0.0216 
     26 CB        -53.2142  -28.6388   14.2317 C.3       12 UNK        -0.1964 
     27 N         -54.7220  -28.2051   16.1051 N.am      12 UNK        -0.4276 
     28 C         -55.6010  -28.5287   17.0627 C.2       12 UNK         0.5020 
     29 O         -56.3544  -29.5014   16.9830 O.2       12 UNK        -0.5489 
     30 CA        -55.6794  -27.6165   18.3071 C.3       11 UNK         0.0294 
     31 CB        -55.9686  -28.4136   19.5979 C.3       11 UNK        -0.2019 
     32 N         -54.5280  -26.7211   18.4973 N.am      11 UNK        -0.4493 
     33 C         -53.2531  -27.0684   18.7221 C.2       11 UNK         0.4932 
     34 O         -52.8440  -28.2295   18.7857 O.2       11 UNK        -0.5029 
     35 CA        -52.2669  -25.9080   18.9259 C.3       10 UNK         0.0280 
     36 CB        -51.8837  -25.7769   20.4090 C.3       10 UNK        -0.1976 
     37 N         -51.0569  -26.0898   18.1247 N.am      10 UNK        -0.4242 
     38 C         -51.0135  -26.0147   16.7885 C.2       10 UNK         0.5072 
     39 O         -51.9933  -25.7683   16.0811 O.2       10 UNK        -0.5224 
     40 CA        -49.6445  -26.2772   16.1361 C.3       9 UNK         0.0343 
     41 CB        -49.6661  -27.5979   15.3491 C.3       9 UNK        -0.2003 
     42 N         -49.2330  -25.1900   15.2453 N.am      9 UNK        -0.4272 
     43 C         -49.0153  -23.9200   15.6187 C.2       9 UNK         0.4988 
     44 O         -49.0875  -23.5253   16.7835 O.2       9 UNK        -0.5108 
     45 CA        -48.6342  -22.9158   14.5150 C.3       8 UNK         0.0248 
     46 CB        -47.1107  -22.8895   14.3152 C.3       8 UNK        -0.2001 
     47 N         -49.2905  -23.1825   13.2327 N.am      8 UNK        -0.4140 
     48 C         -50.6051  -23.0404   13.0057 C.2       8 UNK         0.5028 
     49 O         -51.4033  -22.6101   13.8389 O.2       8 UNK        -0.5428 
     50 CA        -51.1197  -23.4482   11.6155 C.3       7 UNK         0.0264 
     51 CB        -51.0043  -22.2814   10.6212 C.3       7 UNK        -0.1988 
     52 N         -50.4115  -24.6203   11.0962 N.am      7 UNK        -0.4454 
     53 C         -50.6752  -25.8809   11.4747 C.2       7 UNK         0.5027 
     54 O         -51.6141  -26.1882   12.2072 O.2       7 UNK        -0.5083 
     55 CA        -49.7314  -26.9902   10.9666 C.3       6 UNK         0.0844 
     56 C56       -50.3376  -27.6912    9.7321 C.3       14 UNK        -0.0967 
     57 S57       -49.2801  -29.0304    9.0745 S.3       14 UNK        -0.2604 
     58 C58       -50.4078  -30.4630    9.0921 C.3       14 UNK         0.0134 
     59 N         -48.3769  -26.4847   10.7299 N.am      6 UNK        -0.4116 
     60 C         -47.5226  -26.1730   11.7139 C.2       5 UNK         0.5034 
     61 O         -47.7882  -26.2846   12.9098 O.2       5 UNK        -0.5045 
     62 CA        -46.1613  -25.5912   11.3090 C.3       5 UNK         0.0224 
     63 CB        -45.1059  -26.7004   11.1906 C.3       5 UNK        -0.1978 
     64 N         -46.2012  -24.8071   10.0720 N.am      5 UNK        -0.4737 
     65 C         -46.8621  -23.6437    9.9476 C.2       4 UNK         0.5027 
     66 O         -47.5893  -23.1967   10.8358 O.2       4 UNK        -0.5211 
     67 CA        -46.6980  -22.8328    8.6508 C.3       4 UNK         0.0297 
     68 CB        -46.1519  -21.4231    8.9416 C.3       4 UNK        -0.1993 
     69 N         -45.8387  -23.5083    7.6810 N.am      4 UNK        -0.4486 
     70 C         -45.9208  -23.4081    6.3528 C.2       3 UNK         0.4961 
     71 O         -46.6877  -22.6491    5.7601 O.2       3 UNK        -0.5105 
     72 CA        -45.0016  -24.3409    5.5467 C.3       3 UNK         0.0299 
     73 CB        -43.5094  -24.1284    5.8770 C.3       3 UNK        -0.1972 
     74 N         -45.3971  -25.7495    5.6663 N.am      3 UNK        -0.4305 
     75 C         -45.3898  -26.5421    6.7479 C.2       2 UNK         0.5006 
     76 O         -44.9659  -26.1977    7.8544 O.2       2 UNK        -0.5106 
     77 CA        -46.0180  -27.9375    6.5584 C.3       2 UNK         0.0296 
     78 CB        -45.6590  -28.9118    7.6942 C.3       2 UNK        -0.2002 
     79 N         -47.4760  -27.8459    6.4603 N.am      2 UNK        -0.4032 
     80 C         -48.1490  -27.3608    5.4091 C.2       1 UNK         0.5000 
     81 O         -47.6074  -27.0209    4.3527 O.2       1 UNK        -0.5238 
     82 H82       -49.3518  -22.9324    6.2889 H         1 UNK         0.0889 
     83 H83       -50.1949  -23.1997    7.8154 H         1 UNK         0.0889 
     84 H84       -51.0397  -23.4590    6.2903 H         1 UNK         0.0889 
     85 H85       -50.5876  -25.3716    5.0588 H         1 UNK         0.3028 
     86 H86       -49.9933  -27.7331    6.4600 H         1 UNK         0.0864 
     87 H87       -50.1341  -28.8437    4.2190 H         1 UNK         0.0720 
     88 H88       -50.0921  -27.2966    3.4270 H         1 UNK         0.0720 
     89 H89       -52.0833  -30.0810    4.2423 H         1 UNK         0.0814 
     90 H90       -53.7324  -29.5280    4.2966 H         1 UNK         0.0814 
     91 H91       -50.7123  -30.1151    6.4056 H         1 UNK         0.1469 
     92 H92       -52.9298  -30.1599   10.0714 H         1 UNK         0.1381 
     93 H93       -54.9089  -29.2302    6.3845 H         1 UNK         0.1206 
     94 H94       -55.3371  -28.5527    9.5750 H         1 UNK         0.0813 
     95 H95       -56.2204  -29.4403    8.3511 H         1 UNK         0.0813 
     96 H96       -57.7710  -31.1211   11.4659 H         1 UNK         0.0638 
     97 H97       -57.9896  -30.0061   10.1429 H         1 UNK         0.0638 
     98 H98       -56.8267  -28.2110   11.3808 H         1 UNK         0.0568 
     99 H99       -60.2022  -27.5661   12.2652 H         1 UNK         0.3450 
    100 H100      -58.9563  -27.3582   11.0633 H         1 UNK         0.3450 
    101 H101      -55.7933  -30.2714   13.0121 H         1 UNK         0.2987 
    102 H102      -54.7233  -29.9702   14.9849 H         1 UNK         0.0766 
    103 H103      -52.4322  -29.0142   14.8918 H         1 UNK         0.0798 
    104 H104      -53.0350  -27.5742   14.0737 H         1 UNK         0.0798 
    105 H105      -53.0928  -29.1355   13.2682 H         1 UNK         0.0798 
    106 H106      -54.1610  -27.3724   16.2234 H         1 UNK         0.3198 
    107 H107      -56.5358  -26.9634   18.1318 H         1 UNK         0.0843 
    108 H108      -56.0495  -27.7551   20.4627 H         1 UNK         0.0831 
    109 H109      -55.1879  -29.1461   19.8048 H         1 UNK         0.0831 
    110 H110      -56.9103  -28.9585   19.5209 H         1 UNK         0.0831 
    111 H111      -54.7420  -25.7336   18.4483 H         1 UNK         0.3133 
    112 H112      -52.7399  -24.9747   18.6121 H         1 UNK         0.0566 
    113 H113      -51.2168  -24.9304   20.5745 H         1 UNK         0.0814 
    114 H114      -52.7682  -25.6166   21.0273 H         1 UNK         0.0814 
    115 H115      -51.3869  -26.6747   20.7795 H         1 UNK         0.0814 
    116 H116      -50.2146  -26.3289   18.6273 H         1 UNK         0.3091 
    117 H117      -48.8891  -26.3614   16.9200 H         1 UNK         0.0702 
    118 H118      -48.6734  -27.8562   14.9803 H         1 UNK         0.0785 
    119 H119      -50.3370  -27.5408   14.4908 H         1 UNK         0.0785 
    120 H120      -50.0042  -28.4240   15.9761 H         1 UNK         0.0785 
    121 H121      -49.0763  -25.4401   14.2757 H         1 UNK         0.2998 
    122 H122      -48.9488  -21.9241   14.8470 H         1 UNK         0.0697 
    123 H123      -46.8208  -22.1783   13.5412 H         1 UNK         0.0825 
    124 H124      -46.6037  -22.5948   15.2349 H         1 UNK         0.0825 
    125 H125      -46.7262  -23.8695   14.0336 H         1 UNK         0.0825 
    126 H126      -48.6913  -23.4451   12.4558 H         1 UNK         0.3029 
    127 H127      -52.1793  -23.6941   11.7189 H         1 UNK         0.0897 
    128 H128      -51.4929  -22.5205    9.6773 H         1 UNK         0.0792 
    129 H129      -51.4898  -21.3868   11.0138 H         1 UNK         0.0792 
    130 H130      -49.9664  -22.0217   10.4113 H         1 UNK         0.0792 
    131 H131      -49.6053  -24.4463   10.5110 H         1 UNK         0.3086 
    132 H132      -49.6680  -27.7374   11.7613 H         1 UNK         0.0583 
    133 H133      -51.3124  -28.0946   10.0050 H         1 UNK         0.1020 
    134 H134      -50.5334  -26.9806    8.9293 H         1 UNK         0.1020 
    135 H135      -49.8995  -31.3226    8.6533 H         1 UNK         0.0694 
    136 H136      -50.6278  -30.7293   10.1272 H         1 UNK         0.0694 
    137 H137      -48.1108  -26.3268    9.7664 H         1 UNK         0.2989 
    138 H138      -45.8471  -24.9198   12.1102 H         1 UNK         0.1055 
    139 H139      -45.0274  -27.2654   12.1206 H         1 UNK         0.0806 
    140 H140      -44.1192  -26.2888   10.9772 H         1 UNK         0.0806 
    141 H141      -45.3498  -27.4078   10.3999 H         1 UNK         0.0806 
    142 H142      -45.7002  -25.2065    9.2843 H         1 UNK         0.3061 
    143 H143      -47.6981  -22.7359    8.2263 H         1 UNK         0.0734 
    144 H144      -46.1129  -20.8172    8.0363 H         1 UNK         0.0832 
    145 H145      -46.7864  -20.8948    9.6546 H         1 UNK         0.0832 
    146 H146      -45.1471  -21.4622    9.3636 H         1 UNK         0.0832 
    147 H147      -45.2003  -24.2082    8.0398 H         1 UNK         0.3156 
    148 H148      -45.1382  -24.0834    4.4951 H         1 UNK         0.0589 
    149 H149      -43.2632  -24.3966    6.9045 H         1 UNK         0.0808 
    150 H150      -42.8743  -24.7223    5.2198 H         1 UNK         0.0808 
    151 H151      -43.2277  -23.0836    5.7399 H         1 UNK         0.0808 
    152 H152      -45.8854  -26.1229    4.8568 H         1 UNK         0.3098 
    153 H153      -45.6247  -28.3530    5.6281 H         1 UNK         0.0720 
    154 H154      -46.1232  -28.6214    8.6360 H         1 UNK         0.0791 
    155 H155      -44.5807  -28.9514    7.8547 H         1 UNK         0.0791 
    156 H156      -45.9901  -29.9243    7.4629 H         1 UNK         0.0791 
    157 H157      -47.9927  -28.0520    7.3058 H         1 UNK         0.3028 
@<TRIPOS>BOND
     1    1    2 1    
     2    1   82 1    
     3    1   83 1    
     4    1   84 1    
     5    2    3 2    
     6    2    4 am   BACKBONE|DICT|INTERRES
     7    4    5 1    
     8    4   85 1    
     9    5    6 1    
    10    5   80 1    
    11    5   86 1    
    12    6    7 1    
    13    6   87 1    
    14    6   88 1    
    15    7    8 1    
    16    8    9 1    
    17    8   89 1    
    18    8   90 1    
    19    9   10 ar   
    20    9   14 ar   
    21   10   11 ar   
    22   10   91 1    
    23   11   12 ar   
    24   11   58 1    
    25   12   13 ar   
    26   12   92 1    
    27   13   14 ar   
    28   13   15 1    
    29   14   93 1    
    30   15   16 1    
    31   15   94 1    
    32   15   95 1    
    33   16   17 1    
    34   17   18 1    
    35   17   96 1    
    36   17   97 1    
    37   18   19 1    
    38   18   22 1    
    39   18   98 1    
    40   19   20 am   BACKBONE|DICT|INTERRES
    41   19   21 2    
    42   20   99 1    
    43   20  100 1    
    44   22   23 am   BACKBONE|DICT|INTERRES
    45   22  101 1    
    46   23   24 2    
    47   23   25 1    
    48   25   26 1    
    49   25   27 1    
    50   25  102 1    
    51   26  103 1    
    52   26  104 1    
    53   26  105 1    
    54   27   28 am   BACKBONE|DICT|INTERRES
    55   27  106 1    
    56   28   29 2    
    57   28   30 1    
    58   30   31 1    
    59   30   32 1    
    60   30  107 1    
    61   31  108 1    
    62   31  109 1    
    63   31  110 1    
    64   32   33 am   BACKBONE|DICT|INTERRES
    65   32  111 1    
    66   33   34 2    
    67   33   35 1    
    68   35   36 1    
    69   35   37 1    
    70   35  112 1    
    71   36  113 1    
    72   36  114 1    
    73   36  115 1    
    74   37   38 am   BACKBONE|DICT|INTERRES
    75   37  116 1    
    76   38   39 2    
    77   38   40 1    
    78   40   41 1    
    79   40   42 1    
    80   40  117 1    
    81   41  118 1    
    82   41  119 1    
    83   41  120 1    
    84   42   43 am   BACKBONE|DICT|INTERRES
    85   42  121 1    
    86   43   44 2    
    87   43   45 1    
    88   45   46 1    
    89   45   47 1    
    90   45  122 1    
    91   46  123 1    
    92   46  124 1    
    93   46  125 1    
    94   47   48 am   BACKBONE|DICT|INTERRES
    95   47  126 1    
    96   48   49 2    
    97   48   50 1    
    98   50   51 1    
    99   50   52 1    
   100   50  127 1    
   101   51  128 1    
   102   51  129 1    
   103   51  130 1    
   104   52   53 am   BACKBONE|DICT|INTERRES
   105   52  131 1    
   106   53   54 2    
   107   53   55 1    
   108   55   56 1    
   109   55   59 1    
   110   55  132 1    
   111   56   57 1    
   112   56  133 1    
   113   56  134 1    
   114   57   58 1    
   115   58  135 1    
   116   58  136 1    
   117   59   60 am   BACKBONE|DICT|INTERRES
   118   59  137 1    
   119   60   61 2    
   120   60   62 1    
   121   62   63 1    
   122   62   64 1    
   123   62  138 1    
   124   63  139 1    
   125   63  140 1    
   126   63  141 1    
   127   64   65 am   BACKBONE|DICT|INTERRES
   128   64  142 1    
   129   65   66 2    
   130   65   67 1    
   131   67   68 1    
   132   67   69 1    
   133   67  143 1    
   134   68  144 1    
   135   68  145 1    
   136   68  146 1    
   137   69   70 am   BACKBONE|DICT|INTERRES
   138   69  147 1    
   139   70   71 2    
   140   70   72 1    
   141   72   73 1    
   142   72   74 1    
   143   72  148 1    
   144   73  149 1    
   145   73  150 1    
   146   73  151 1    
   147   74   75 am   BACKBONE|DICT|INTERRES
   148   74  152 1    
   149   75   76 2    
   150   75   77 1    
   151   77   78 1    
   152   77   79 1    
   153   77  153 1    
   154   78  154 1    
   155   78  155 1    
   156   78  156 1    
   157   79   80 am   BACKBONE|DICT|INTERRES
   158   79  157 1    
   159   80   81 2    
@<TRIPOS>SUBSTRUCTURE
     1 UNK         1 GROUP             0       ****    0 ROOT    
