@<TRIPOS>MOLECULE
3R207
157   159    1
SMALL
USER_CHARGES


@<TRIPOS>ATOM
      1 CA        -52.8312  -30.1953    9.8642 C.3       0 UNK        -0.1975 
      2 C         -51.6687  -30.6202    8.9847 C.2       0 UNK         0.4852 
      3 O         -50.9262  -31.5275    9.3610 O.2       0 UNK        -0.5216 
      4 N         -51.4898  -29.9715    7.8239 N.am      1 UNK        -0.4461 
      5 CA        -50.4034  -30.2711    6.8795 C.3       1 UNK         0.0864 
      6 C6        -50.7788  -29.9023    5.4194 C.3       14 UNK        -0.0898 
      7 S7        -50.7295  -28.1223    5.0068 S.3       14 UNK        -0.2598 
      8 C8        -52.4948  -27.7119    4.8184 C.3       14 UNK         0.0286 
      9 C9        -53.1795  -27.4704    6.1561 C.ar      14 UNK        -0.0844 
     10 C10       -52.6516  -26.5352    7.0504 C.ar      14 UNK        -0.0881 
     11 C11       -53.2770  -26.2839    8.2731 C.ar      14 UNK        -0.0643 
     12 C12       -54.4639  -26.9523    8.5862 C.ar      14 UNK        -0.0930 
     13 C13       -55.0229  -27.8650    7.6860 C.ar      14 UNK        -0.0827 
     14 C14       -54.3681  -28.1329    6.4791 C.ar      14 UNK        -0.1249 
     15 C15       -56.3678  -28.5070    7.9909 C.3       14 UNK         0.0141 
     16 S16       -56.2147  -30.2518    8.4757 S.3       14 UNK        -0.2313 
     17 C17       -57.9425  -30.5997    8.9554 C.3       14 UNK        -0.0915 
     18 CA        -58.1830  -30.9333   10.4601 C.3       13 UNK         0.0968 
     19 C         -57.8383  -32.4008   10.8697 C.2       13 UNK         0.5732 
     20 N         -57.7019  -32.7025   12.1553 N.am      13 UNK        -0.7310 
     21 O         -57.7395  -33.2894   10.0262 O.2       13 UNK        -0.5035 
     22 N         -57.7614  -29.8566   11.3833 N.am      13 UNK        -0.4233 
     23 C         -56.5538  -29.6835   11.9408 C.2       13 UNK         0.4989 
     24 O         -55.5897  -30.4361   11.7743 O.2       13 UNK        -0.4996 
     25 CA        -56.3977  -28.4688   12.8688 C.3       12 UNK         0.0216 
     26 CB        -57.2553  -28.6104   14.1421 C.3       12 UNK        -0.1964 
     27 N         -54.9866  -28.3706   13.2255 N.am      12 UNK        -0.4276 
     28 C         -54.3359  -27.2974   13.6806 C.2       12 UNK         0.5020 
     29 O         -54.8624  -26.2026   13.8956 O.2       12 UNK        -0.5489 
     30 CA        -52.8206  -27.4869   13.8628 C.3       11 UNK         0.0294 
     31 CB        -52.0985  -27.2948   12.5233 C.3       11 UNK        -0.2019 
     32 N         -52.2267  -26.5749   14.8391 N.am      11 UNK        -0.4493 
     33 C         -52.4247  -26.6153   16.1624 C.2       11 UNK         0.4932 
     34 O         -53.1966  -27.3938   16.7259 O.2       11 UNK        -0.5029 
     35 CA        -51.5376  -25.6564   16.9798 C.3       10 UNK         0.0280 
     36 CB        -51.7275  -25.7845   18.5063 C.3       10 UNK        -0.1976 
     37 N         -50.1275  -25.8055   16.5944 N.am      10 UNK        -0.4242 
     38 C         -49.3650  -26.9064   16.7036 C.2       10 UNK         0.5072 
     39 O         -49.7018  -27.9288   17.3022 O.2       10 UNK        -0.5224 
     40 CA        -48.0009  -26.8876   15.9903 C.3       9 UNK         0.0343 
     41 CB        -48.1100  -27.5914   14.6264 C.3       9 UNK        -0.2003 
     42 N         -47.4592  -25.5445   15.7823 N.am      9 UNK        -0.4272 
     43 C         -46.9868  -24.7441   16.7477 C.2       9 UNK         0.4988 
     44 O         -46.9376  -25.0541   17.9383 O.2       9 UNK        -0.5108 
     45 CA        -46.4963  -23.3578   16.3044 C.3       8 UNK         0.0248 
     46 CB        -45.0700  -23.4396   15.7348 C.3       8 UNK        -0.2001 
     47 N         -47.3911  -22.7656   15.3083 N.am      8 UNK        -0.4140 
     48 C         -48.5523  -22.1620   15.5977 C.2       8 UNK         0.5028 
     49 O         -48.9684  -21.9891   16.7435 O.2       8 UNK        -0.5428 
     50 CA        -49.4011  -21.6731   14.4106 C.3       7 UNK         0.0264 
     51 CB        -49.0220  -20.2315   14.0350 C.3       7 UNK        -0.1988 
     52 N         -49.2922  -22.5275   13.2249 N.am      7 UNK        -0.4454 
     53 C         -49.7793  -23.7743   13.1442 C.2       7 UNK         0.5027 
     54 O         -50.3828  -24.3375   14.0594 O.2       7 UNK        -0.5083 
     55 CA        -49.5375  -24.5401   11.8267 C.3       6 UNK         0.0844 
     56 C56       -50.6704  -24.2195   10.8201 C.3       14 UNK        -0.0967 
     57 S57       -50.9613  -25.5794    9.6443 S.3       14 UNK        -0.2604 
     58 C58       -52.7024  -25.2491    9.2274 C.3       14 UNK         0.0134 
     59 N         -48.1988  -24.3266   11.2504 N.am      6 UNK        -0.4116 
     60 C         -47.0352  -24.4916   11.9045 C.2       5 UNK         0.5034 
     61 O         -46.9698  -24.8365   13.0843 O.2       5 UNK        -0.5045 
     62 CA        -45.7167  -24.2078   11.1636 C.3       5 UNK         0.0224 
     63 CB        -44.7738  -25.4227   11.2071 C.3       5 UNK        -0.1978 
     64 N         -45.9027  -23.7866    9.7741 N.am      5 UNK        -0.4737 
     65 C         -46.0717  -22.5140    9.3878 C.2       4 UNK         0.5027 
     66 O         -46.0955  -21.5648   10.1714 O.2       4 UNK        -0.5211 
     67 CA        -46.2553  -22.2449    7.8817 C.3       4 UNK         0.0297 
     68 CB        -44.9252  -21.8012    7.2518 C.3       4 UNK        -0.1993 
     69 N         -46.7840  -23.3891    7.1338 N.am      4 UNK        -0.4486 
     70 C         -47.9982  -23.9240    7.3171 C.2       3 UNK         0.4961 
     71 O         -48.8129  -23.4837    8.1271 O.2       3 UNK        -0.5105 
     72 CA        -48.3589  -25.1720    6.4883 C.3       3 UNK         0.0299 
     73 CB        -47.4271  -25.4217    5.2811 C.3       3 UNK        -0.1972 
     74 N         -48.4418  -26.3769    7.3202 N.am      3 UNK        -0.4305 
     75 C         -47.4989  -26.8770    8.1359 C.2       2 UNK         0.5006 
     76 O         -46.3980  -26.3524    8.3105 O.2       2 UNK        -0.5106 
     77 CA        -47.8248  -28.1856    8.8824 C.3       2 UNK         0.0296 
     78 CB        -48.0108  -27.9430   10.3899 C.3       2 UNK        -0.2002 
     79 N         -49.0173  -28.8584    8.3617 N.am      2 UNK        -0.4032 
     80 C         -49.0319  -29.7006    7.3171 C.2       1 UNK         0.5000 
     81 O         -48.0181  -30.0318    6.6989 O.2       1 UNK        -0.5238 
     82 H82       -52.5122  -30.1268   10.9032 H         1 UNK         0.0889 
     83 H83       -53.6290  -30.9350    9.8091 H         1 UNK         0.0889 
     84 H84       -53.2365  -29.2304    9.5673 H         1 UNK         0.0889 
     85 H85       -52.1298  -29.2376    7.5463 H         1 UNK         0.3028 
     86 H86       -50.2716  -31.3557    6.8845 H         1 UNK         0.0864 
     87 H87       -50.0895  -30.4025    4.7367 H         1 UNK         0.0720 
     88 H88       -51.7616  -30.3094    5.1767 H         1 UNK         0.0720 
     89 H89       -52.9974  -28.4948    4.2484 H         1 UNK         0.0814 
     90 H90       -52.5766  -26.8023    4.2221 H         1 UNK         0.0814 
     91 H91       -51.7499  -25.9959    6.7941 H         1 UNK         0.1469 
     92 H92       -54.9682  -26.7419    9.5195 H         1 UNK         0.1381 
     93 H93       -54.8030  -28.8359    5.7814 H         1 UNK         0.1206 
     94 H94       -57.0109  -28.4345    7.1125 H         1 UNK         0.0813 
     95 H95       -56.8743  -27.9597    8.7876 H         1 UNK         0.0813 
     96 H96       -58.3104  -31.4056    8.3183 H         1 UNK         0.0638 
     97 H97       -58.5592  -29.7402    8.6894 H         1 UNK         0.0638 
     98 H98       -59.2685  -30.9320   10.5656 H         1 UNK         0.0568 
     99 H99       -57.7788  -31.9878   12.8601 H         1 UNK         0.3450 
    100 H100      -57.4921  -33.6522   12.4182 H         1 UNK         0.3450 
    101 H101      -58.4860  -29.1928   11.6140 H         1 UNK         0.2987 
    102 H102      -56.6902  -27.5730   12.3172 H         1 UNK         0.0766 
    103 H103      -57.1243  -27.7555   14.8059 H         1 UNK         0.0798 
    104 H104      -56.9954  -29.5088   14.7034 H         1 UNK         0.0798 
    105 H105      -58.3177  -28.6679   13.9038 H         1 UNK         0.0798 
    106 H106      -54.4730  -29.2156   12.9992 H         1 UNK         0.3198 
    107 H107      -52.6435  -28.5067   14.2122 H         1 UNK         0.0843 
    108 H108      -52.5316  -27.9133   11.7380 H         1 UNK         0.0831 
    109 H109      -51.0419  -27.5521   12.5951 H         1 UNK         0.0831 
    110 H110      -52.1768  -26.2605   12.1938 H         1 UNK         0.0831 
    111 H111      -51.6010  -25.8607   14.4791 H         1 UNK         0.3133 
    112 H112      -51.8282  -24.6440   16.6950 H         1 UNK         0.0566 
    113 H113      -51.0840  -25.0888   19.0445 H         1 UNK         0.0814 
    114 H114      -52.7569  -25.5601   18.7879 H         1 UNK         0.0814 
    115 H115      -51.5076  -26.7906   18.8641 H         1 UNK         0.0814 
    116 H116      -49.7657  -25.0559   16.0173 H         1 UNK         0.3091 
    117 H117      -47.2958  -27.4449   16.6105 H         1 UNK         0.0702 
    118 H118      -47.1414  -27.6468   14.1289 H         1 UNK         0.0785 
    119 H119      -48.7975  -27.0702   13.9595 H         1 UNK         0.0785 
    120 H120      -48.4761  -28.6127   14.7398 H         1 UNK         0.0785 
    121 H121      -47.3941  -25.2288   14.8164 H         1 UNK         0.2998 
    122 H122      -46.4715  -22.7115   17.1847 H         1 UNK         0.0697 
    123 H123      -45.0188  -24.0733   14.8485 H         1 UNK         0.0825 
    124 H124      -44.3813  -23.8557   16.4714 H         1 UNK         0.0825 
    125 H125      -44.6947  -22.4528   15.4632 H         1 UNK         0.0825 
    126 H126      -47.1523  -22.9153   14.3380 H         1 UNK         0.3029 
    127 H127      -50.4449  -21.6779   14.7333 H         1 UNK         0.0897 
    128 H128      -49.6755  -19.8393   13.2555 H         1 UNK         0.0792 
    129 H129      -49.1138  -19.5675   14.8959 H         1 UNK         0.0792 
    130 H130      -47.9933  -20.1622   13.6785 H         1 UNK         0.0792 
    131 H131      -48.8134  -22.1418   12.4233 H         1 UNK         0.3086 
    132 H132      -49.5944  -25.5971   12.0896 H         1 UNK         0.0583 
    133 H133      -51.6132  -24.0311   11.3389 H         1 UNK         0.1020 
    134 H134      -50.4558  -23.3044   10.2652 H         1 UNK         0.1020 
    135 H135      -53.2893  -25.2147   10.1464 H         1 UNK         0.0694 
    136 H136      -52.7793  -24.2625    8.7684 H         1 UNK         0.0694 
    137 H137      -48.1732  -24.0466   10.2777 H         1 UNK         0.2989 
    138 H138      -45.2277  -23.4032   11.7175 H         1 UNK         0.1055 
    139 H139      -44.6026  -25.7544   12.2323 H         1 UNK         0.0806 
    140 H140      -43.7997  -25.1783   10.7835 H         1 UNK         0.0806 
    141 H141      -45.1710  -26.2712   10.6526 H         1 UNK         0.0806 
    142 H142      -45.9389  -24.5268    9.0779 H         1 UNK         0.3061 
    143 H143      -46.9704  -21.4252    7.7840 H         1 UNK         0.0734 
    144 H144      -44.5202  -20.9304    7.7695 H         1 UNK         0.0832 
    145 H145      -44.1719  -22.5886    7.3021 H         1 UNK         0.0832 
    146 H146      -45.0531  -21.5222    6.2058 H         1 UNK         0.0832 
    147 H147      -46.1631  -23.8309    6.4713 H         1 UNK         0.3156 
    148 H148      -49.3627  -24.9974    6.0982 H         1 UNK         0.0589 
    149 H149      -46.4107  -25.6750    5.5846 H         1 UNK         0.0808 
    150 H150      -47.7986  -26.2465    4.6723 H         1 UNK         0.0808 
    151 H151      -47.3766  -24.5467    4.6316 H         1 UNK         0.0808 
    152 H152      -49.3214  -26.8694    7.2757 H         1 UNK         0.3098 
    153 H153      -46.9631  -28.8446    8.7571 H         1 UNK         0.0720 
    154 H154      -47.1358  -27.4631   10.8259 H         1 UNK         0.0791 
    155 H155      -48.1594  -28.8810   10.9250 H         1 UNK         0.0791 
    156 H156      -48.8678  -27.3054   10.5961 H         1 UNK         0.0791 
    157 H157      -49.8944  -28.6524    8.8173 H         1 UNK         0.3028 
@<TRIPOS>BOND
     1    1    2 1    
     2    1   82 1    
     3    1   83 1    
     4    1   84 1    
     5    2    3 2    
     6    2    4 am   BACKBONE|DICT|INTERRES
     7    4    5 1    
     8    4   85 1    
     9    5    6 1    
    10    5   80 1    
    11    5   86 1    
    12    6    7 1    
    13    6   87 1    
    14    6   88 1    
    15    7    8 1    
    16    8    9 1    
    17    8   89 1    
    18    8   90 1    
    19    9   10 ar   
    20    9   14 ar   
    21   10   11 ar   
    22   10   91 1    
    23   11   12 ar   
    24   11   58 1    
    25   12   13 ar   
    26   12   92 1    
    27   13   14 ar   
    28   13   15 1    
    29   14   93 1    
    30   15   16 1    
    31   15   94 1    
    32   15   95 1    
    33   16   17 1    
    34   17   18 1    
    35   17   96 1    
    36   17   97 1    
    37   18   19 1    
    38   18   22 1    
    39   18   98 1    
    40   19   20 am   BACKBONE|DICT|INTERRES
    41   19   21 2    
    42   20   99 1    
    43   20  100 1    
    44   22   23 am   BACKBONE|DICT|INTERRES
    45   22  101 1    
    46   23   24 2    
    47   23   25 1    
    48   25   26 1    
    49   25   27 1    
    50   25  102 1    
    51   26  103 1    
    52   26  104 1    
    53   26  105 1    
    54   27   28 am   BACKBONE|DICT|INTERRES
    55   27  106 1    
    56   28   29 2    
    57   28   30 1    
    58   30   31 1    
    59   30   32 1    
    60   30  107 1    
    61   31  108 1    
    62   31  109 1    
    63   31  110 1    
    64   32   33 am   BACKBONE|DICT|INTERRES
    65   32  111 1    
    66   33   34 2    
    67   33   35 1    
    68   35   36 1    
    69   35   37 1    
    70   35  112 1    
    71   36  113 1    
    72   36  114 1    
    73   36  115 1    
    74   37   38 am   BACKBONE|DICT|INTERRES
    75   37  116 1    
    76   38   39 2    
    77   38   40 1    
    78   40   41 1    
    79   40   42 1    
    80   40  117 1    
    81   41  118 1    
    82   41  119 1    
    83   41  120 1    
    84   42   43 am   BACKBONE|DICT|INTERRES
    85   42  121 1    
    86   43   44 2    
    87   43   45 1    
    88   45   46 1    
    89   45   47 1    
    90   45  122 1    
    91   46  123 1    
    92   46  124 1    
    93   46  125 1    
    94   47   48 am   BACKBONE|DICT|INTERRES
    95   47  126 1    
    96   48   49 2    
    97   48   50 1    
    98   50   51 1    
    99   50   52 1    
   100   50  127 1    
   101   51  128 1    
   102   51  129 1    
   103   51  130 1    
   104   52   53 am   BACKBONE|DICT|INTERRES
   105   52  131 1    
   106   53   54 2    
   107   53   55 1    
   108   55   56 1    
   109   55   59 1    
   110   55  132 1    
   111   56   57 1    
   112   56  133 1    
   113   56  134 1    
   114   57   58 1    
   115   58  135 1    
   116   58  136 1    
   117   59   60 am   BACKBONE|DICT|INTERRES
   118   59  137 1    
   119   60   61 2    
   120   60   62 1    
   121   62   63 1    
   122   62   64 1    
   123   62  138 1    
   124   63  139 1    
   125   63  140 1    
   126   63  141 1    
   127   64   65 am   BACKBONE|DICT|INTERRES
   128   64  142 1    
   129   65   66 2    
   130   65   67 1    
   131   67   68 1    
   132   67   69 1    
   133   67  143 1    
   134   68  144 1    
   135   68  145 1    
   136   68  146 1    
   137   69   70 am   BACKBONE|DICT|INTERRES
   138   69  147 1    
   139   70   71 2    
   140   70   72 1    
   141   72   73 1    
   142   72   74 1    
   143   72  148 1    
   144   73  149 1    
   145   73  150 1    
   146   73  151 1    
   147   74   75 am   BACKBONE|DICT|INTERRES
   148   74  152 1    
   149   75   76 2    
   150   75   77 1    
   151   77   78 1    
   152   77   79 1    
   153   77  153 1    
   154   78  154 1    
   155   78  155 1    
   156   78  156 1    
   157   79   80 am   BACKBONE|DICT|INTERRES
   158   79  157 1    
   159   80   81 2    
@<TRIPOS>SUBSTRUCTURE
     1 UNK         1 GROUP             0       ****    0 ROOT    
