@<TRIPOS>MOLECULE
3R207
157   159    1
SMALL
USER_CHARGES


@<TRIPOS>ATOM
      1 CA        -44.4947  -30.3831    6.7804 C.3       0 UNK        -0.1975 
      2 C         -45.0612  -29.5767    5.6209 C.2       0 UNK         0.4852 
      3 O         -44.3207  -29.2210    4.7024 O.2       0 UNK        -0.5216 
      4 N         -46.3692  -29.2942    5.6543 N.am      1 UNK        -0.4461 
      5 CA        -47.0712  -28.4422    4.6899 C.3       1 UNK         0.0864 
      6 C6        -48.5948  -28.7334    4.6964 C.3       14 UNK        -0.0898 
      7 S7        -49.4378  -28.3854    6.2812 S.3       14 UNK        -0.2598 
      8 C8        -51.1601  -28.6416    5.7576 C.3       14 UNK         0.0286 
      9 C9        -52.1361  -28.3696    6.8900 C.ar      14 UNK        -0.0844 
     10 C10       -52.5042  -27.0561    7.1945 C.ar      14 UNK        -0.0881 
     11 C11       -53.4097  -26.7908    8.2247 C.ar      14 UNK        -0.0643 
     12 C12       -53.9783  -27.8566    8.9264 C.ar      14 UNK        -0.0930 
     13 C13       -53.6218  -29.1745    8.6295 C.ar      14 UNK        -0.0827 
     14 C14       -52.6926  -29.4271    7.6162 C.ar      14 UNK        -0.1249 
     15 C15       -54.2708  -30.3184    9.3882 C.3       14 UNK         0.0141 
     16 S16       -53.4424  -30.6185   10.9798 S.3       14 UNK        -0.2313 
     17 C17       -54.7749  -31.4966   11.8729 C.3       14 UNK        -0.0915 
     18 CA        -55.4176  -30.6639   13.0183 C.3       13 UNK         0.0968 
     19 C         -54.5888  -30.7329   14.3355 C.2       13 UNK         0.5732 
     20 N         -54.1221  -29.6259   14.9004 N.am      13 UNK        -0.7310 
     21 O         -54.3834  -31.8197   14.8712 O.2       13 UNK        -0.5035 
     22 N         -55.7574  -29.3018   12.5795 N.am      13 UNK        -0.4233 
     23 C         -56.6737  -28.5177   13.1542 C.2       13 UNK         0.4989 
     24 O         -57.4580  -28.8902   14.0295 O.2       13 UNK        -0.4996 
     25 CA        -56.6971  -27.0515   12.6909 C.3       12 UNK         0.0216 
     26 CB        -58.0243  -26.7097   11.9944 C.3       12 UNK        -0.1964 
     27 N         -56.4871  -26.1506   13.8264 N.am      12 UNK        -0.4276 
     28 C         -55.3524  -26.0871   14.5344 C.2       12 UNK         0.5020 
     29 O         -54.3331  -26.7250   14.2544 O.2       12 UNK        -0.5489 
     30 CA        -55.3696  -25.2017   15.7840 C.3       11 UNK         0.0294 
     31 CB        -55.9672  -25.9788   16.9739 C.3       11 UNK        -0.2019 
     32 N         -53.9978  -24.7973   16.0753 N.am      11 UNK        -0.4493 
     33 C         -53.6084  -23.8594   16.9475 C.2       11 UNK         0.4932 
     34 O         -54.3943  -23.1823   17.6127 O.2       11 UNK        -0.5029 
     35 CA        -52.0892  -23.6261   17.0891 C.3       10 UNK         0.0280 
     36 CB        -51.6892  -23.0412   18.4605 C.3       10 UNK        -0.1976 
     37 N         -51.2919  -24.8131   16.7575 N.am      10 UNK        -0.4242 
     38 C         -51.2524  -25.9867   17.4062 C.2       10 UNK         0.5072 
     39 O         -51.8389  -26.2130   18.4654 O.2       10 UNK        -0.5224 
     40 CA        -50.4430  -27.1198   16.7494 C.3       9 UNK         0.0343 
     41 CB        -51.3768  -28.0446   15.9574 C.3       9 UNK        -0.2003 
     42 N         -49.3711  -26.6501   15.8673 N.am      9 UNK        -0.4272 
     43 C         -48.2309  -26.0970   16.3058 C.2       9 UNK         0.4988 
     44 O         -47.9573  -25.9408   17.4966 O.2       9 UNK        -0.5108 
     45 CA        -47.2245  -25.6391   15.2392 C.3       8 UNK         0.0248 
     46 CB        -46.4162  -26.8356   14.7121 C.3       8 UNK        -0.2001 
     47 N         -47.8632  -24.9354   14.1243 N.am      8 UNK        -0.4140 
     48 C         -48.4315  -23.7240   14.2238 C.2       8 UNK         0.5028 
     49 O         -48.4415  -23.0549   15.2575 O.2       8 UNK        -0.5428 
     50 CA        -49.1300  -23.1691   12.9702 C.3       7 UNK         0.0264 
     51 CB        -48.1049  -22.5696   11.9963 C.3       7 UNK        -0.1988 
     52 N         -49.9587  -24.1692   12.2887 N.am      7 UNK        -0.4454 
     53 C         -51.0497  -24.7256   12.8405 C.2       7 UNK         0.5027 
     54 O         -51.4870  -24.4013   13.9438 O.2       7 UNK        -0.5083 
     55 CA        -51.7598  -25.8619   12.0815 C.3       6 UNK         0.0844 
     56 C56       -52.9863  -25.3616   11.2807 C.3       14 UNK        -0.0967 
     57 S57       -52.5872  -24.5732    9.6817 S.3       14 UNK        -0.2604 
     58 C58       -53.7896  -25.3554    8.5583 C.3       14 UNK         0.0134 
     59 N         -50.8372  -26.6887   11.3029 N.am      6 UNK        -0.4116 
     60 C         -49.9319  -27.5093   11.8542 C.2       5 UNK         0.5034 
     61 O         -49.7830  -27.6553   13.0690 O.2       5 UNK        -0.5045 
     62 CA        -48.9997  -28.2518   10.8852 C.3       5 UNK         0.0224 
     63 CB        -49.7793  -29.2530   10.0170 C.3       5 UNK        -0.1978 
     64 N         -48.2414  -27.3387   10.0271 N.am      5 UNK        -0.4737 
     65 C         -47.3814  -26.4089   10.4689 C.2       4 UNK         0.5027 
     66 O         -47.1291  -26.2136   11.6559 O.2       4 UNK        -0.5211 
     67 CA        -46.7020  -25.5265    9.4113 C.3       4 UNK         0.0297 
     68 CB        -45.3794  -26.1647    8.9605 C.3       4 UNK        -0.1993 
     69 N         -47.5551  -25.2472    8.2513 N.am      4 UNK        -0.4486 
     70 C         -48.7049  -24.5549    8.3167 C.2       3 UNK         0.4961 
     71 O         -49.1641  -24.1255    9.3758 O.2       3 UNK        -0.5105 
     72 CA        -49.5070  -24.3346    7.0175 C.3       3 UNK         0.0299 
     73 CB        -50.1717  -22.9428    6.9625 C.3       3 UNK        -0.1972 
     74 N         -48.7727  -24.6279    5.7807 N.am      3 UNK        -0.4305 
     75 C         -47.7082  -23.9817    5.2784 C.2       2 UNK         0.5006 
     76 O         -47.2312  -22.9567    5.7678 O.2       2 UNK        -0.5106 
     77 CA        -47.0507  -24.6179    4.0300 C.3       2 UNK         0.0296 
     78 CB        -45.5779  -24.1878    3.8573 C.3       2 UNK        -0.2002 
     79 N         -47.1604  -26.0872    3.9798 N.am      2 UNK        -0.4032 
     80 C         -46.7666  -26.9476    4.9333 C.2       1 UNK         0.5000 
     81 O         -46.2527  -26.5890    5.9952 O.2       1 UNK        -0.5238 
     82 H82       -45.2627  -30.6459    7.5079 H         1 UNK         0.0889 
     83 H83       -43.7244  -29.8086    7.2941 H         1 UNK         0.0889 
     84 H84       -44.0456  -31.3054    6.4130 H         1 UNK         0.0889 
     85 H85       -46.9233  -29.5854    6.4466 H         1 UNK         0.3028 
     86 H86       -46.6919  -28.6847    3.6946 H         1 UNK         0.0864 
     87 H87       -49.0910  -28.1699    3.9042 H         1 UNK         0.0720 
     88 H88       -48.7617  -29.7836    4.4509 H         1 UNK         0.0720 
     89 H89       -51.2770  -29.6632    5.3923 H         1 UNK         0.0814 
     90 H90       -51.3874  -27.9863    4.9154 H         1 UNK         0.0814 
     91 H91       -52.0926  -26.2388    6.6219 H         1 UNK         0.1469 
     92 H92       -54.7059  -27.6635    9.7012 H         1 UNK         0.1381 
     93 H93       -52.4142  -30.4460    7.3837 H         1 UNK         0.1206 
     94 H94       -55.3232  -30.0819    9.5534 H         1 UNK         0.0813 
     95 H95       -54.2525  -31.2343    8.7954 H         1 UNK         0.0813 
     96 H96       -54.3758  -32.4419   12.2454 H         1 UNK         0.0638 
     97 H97       -55.5521  -31.7837   11.1635 H         1 UNK         0.0638 
     98 H98       -56.3584  -31.1596   13.2650 H         1 UNK         0.0568 
     99 H99       -54.2702  -28.7104   14.4897 H         1 UNK         0.3450 
    100 H100      -53.6015  -29.7097   15.7566 H         1 UNK         0.3450 
    101 H101      -55.1241  -28.9088   11.9003 H         1 UNK         0.2987 
    102 H102      -55.8879  -26.8864   11.9769 H         1 UNK         0.0766 
    103 H103      -58.0282  -25.6827   11.6287 H         1 UNK         0.0798 
    104 H104      -58.8768  -26.8317   12.6640 H         1 UNK         0.0798 
    105 H105      -58.1908  -27.3595   11.1341 H         1 UNK         0.0798 
    106 H106      -57.2921  -25.6315   14.1465 H         1 UNK         0.3198 
    107 H107      -55.9656  -24.3096   15.5810 H         1 UNK         0.0843 
    108 H108      -56.9750  -26.3305   16.7495 H         1 UNK         0.0831 
    109 H109      -56.0369  -25.3582   17.8670 H         1 UNK         0.0831 
    110 H110      -55.3644  -26.8537   17.2217 H         1 UNK         0.0831 
    111 H111      -53.3007  -25.2798   15.5184 H         1 UNK         0.3133 
    112 H112      -51.8321  -22.8827   16.3332 H         1 UNK         0.0566 
    113 H113      -50.6115  -22.8925   18.5282 H         1 UNK         0.0814 
    114 H114      -52.1600  -22.0710   18.6231 H         1 UNK         0.0814 
    115 H115      -51.9925  -23.6890   19.2832 H         1 UNK         0.0814 
    116 H116      -50.8359  -24.7639   15.8526 H         1 UNK         0.3091 
    117 H117      -49.9905  -27.7055   17.5525 H         1 UNK         0.0702 
    118 H118      -50.8400  -28.9027   15.5523 H         1 UNK         0.0785 
    119 H119      -51.8492  -27.5231   15.1242 H         1 UNK         0.0785 
    120 H120      -52.1710  -28.4282   16.5984 H         1 UNK         0.0785 
    121 H121      -49.4965  -26.8019   14.8703 H         1 UNK         0.2998 
    122 H122      -46.5276  -24.9468   15.7164 H         1 UNK         0.0697 
    123 H123      -47.0496  -27.5487   14.1823 H         1 UNK         0.0825 
    124 H124      -45.9303  -27.3713   15.5286 H         1 UNK         0.0825 
    125 H125      -45.6337  -26.5120   14.0256 H         1 UNK         0.0825 
    126 H126      -47.8427  -25.4045   13.2208 H         1 UNK         0.3029 
    127 H127      -49.7916  -22.3630   13.2951 H         1 UNK         0.0897 
    128 H128      -48.5948  -22.1035   11.1413 H         1 UNK         0.0792 
    129 H129      -47.5055  -21.8005   12.4852 H         1 UNK         0.0792 
    130 H130      -47.4186  -23.3268   11.6192 H         1 UNK         0.0792 
    131 H131      -49.6863  -24.4287   11.3450 H         1 UNK         0.3086 
    132 H132      -52.1588  -26.5164   12.8584 H         1 UNK         0.0583 
    133 H133      -53.6484  -26.2075   11.1113 H         1 UNK         0.1020 
    134 H134      -53.5784  -24.6638   11.8766 H         1 UNK         0.1020 
    135 H135      -54.7866  -25.3107    8.9996 H         1 UNK         0.0694 
    136 H136      -53.8393  -24.7693    7.6394 H         1 UNK         0.0694 
    137 H137      -50.8794  -26.5879   10.2991 H         1 UNK         0.2989 
    138 H138      -48.2816  -28.8108   11.4892 H         1 UNK         0.1055 
    139 H139      -50.3507  -29.9457   10.6364 H         1 UNK         0.0806 
    140 H140      -49.1094  -29.8499    9.3981 H         1 UNK         0.0806 
    141 H141      -50.4860  -28.7527    9.3545 H         1 UNK         0.0806 
    142 H142      -48.3900  -27.4130    9.0307 H         1 UNK         0.3061 
    143 H143      -46.4663  -24.5693    9.8790 H         1 UNK         0.0734 
    144 H144      -44.7069  -26.3054    9.8077 H         1 UNK         0.0832 
    145 H145      -45.5371  -27.1434    8.5055 H         1 UNK         0.0832 
    146 H146      -44.8610  -25.5371    8.2354 H         1 UNK         0.0832 
    147 H147      -47.2245  -25.5957    7.3546 H         1 UNK         0.3156 
    148 H148      -50.3068  -25.0700    7.0604 H         1 UNK         0.0589 
    149 H149      -49.4358  -22.1394    6.9983 H         1 UNK         0.0808 
    150 H150      -50.7629  -22.8198    6.0554 H         1 UNK         0.0808 
    151 H151      -50.8459  -22.7977    7.8074 H         1 UNK         0.0808 
    152 H152      -49.0675  -25.4657    5.2995 H         1 UNK         0.3098 
    153 H153      -47.6081  -24.2382    3.1724 H         1 UNK         0.0720 
    154 H154      -45.1388  -24.6259    2.9610 H         1 UNK         0.0791 
    155 H155      -44.9681  -24.4880    4.7103 H         1 UNK         0.0791 
    156 H156      -45.4923  -23.1047    3.7608 H         1 UNK         0.0791 
    157 H157      -47.5911  -26.4612    3.1449 H         1 UNK         0.3028 
@<TRIPOS>BOND
     1    1    2 1    
     2    1   82 1    
     3    1   83 1    
     4    1   84 1    
     5    2    3 2    
     6    2    4 am   BACKBONE|DICT|INTERRES
     7    4    5 1    
     8    4   85 1    
     9    5    6 1    
    10    5   80 1    
    11    5   86 1    
    12    6    7 1    
    13    6   87 1    
    14    6   88 1    
    15    7    8 1    
    16    8    9 1    
    17    8   89 1    
    18    8   90 1    
    19    9   10 ar   
    20    9   14 ar   
    21   10   11 ar   
    22   10   91 1    
    23   11   12 ar   
    24   11   58 1    
    25   12   13 ar   
    26   12   92 1    
    27   13   14 ar   
    28   13   15 1    
    29   14   93 1    
    30   15   16 1    
    31   15   94 1    
    32   15   95 1    
    33   16   17 1    
    34   17   18 1    
    35   17   96 1    
    36   17   97 1    
    37   18   19 1    
    38   18   22 1    
    39   18   98 1    
    40   19   20 am   BACKBONE|DICT|INTERRES
    41   19   21 2    
    42   20   99 1    
    43   20  100 1    
    44   22   23 am   BACKBONE|DICT|INTERRES
    45   22  101 1    
    46   23   24 2    
    47   23   25 1    
    48   25   26 1    
    49   25   27 1    
    50   25  102 1    
    51   26  103 1    
    52   26  104 1    
    53   26  105 1    
    54   27   28 am   BACKBONE|DICT|INTERRES
    55   27  106 1    
    56   28   29 2    
    57   28   30 1    
    58   30   31 1    
    59   30   32 1    
    60   30  107 1    
    61   31  108 1    
    62   31  109 1    
    63   31  110 1    
    64   32   33 am   BACKBONE|DICT|INTERRES
    65   32  111 1    
    66   33   34 2    
    67   33   35 1    
    68   35   36 1    
    69   35   37 1    
    70   35  112 1    
    71   36  113 1    
    72   36  114 1    
    73   36  115 1    
    74   37   38 am   BACKBONE|DICT|INTERRES
    75   37  116 1    
    76   38   39 2    
    77   38   40 1    
    78   40   41 1    
    79   40   42 1    
    80   40  117 1    
    81   41  118 1    
    82   41  119 1    
    83   41  120 1    
    84   42   43 am   BACKBONE|DICT|INTERRES
    85   42  121 1    
    86   43   44 2    
    87   43   45 1    
    88   45   46 1    
    89   45   47 1    
    90   45  122 1    
    91   46  123 1    
    92   46  124 1    
    93   46  125 1    
    94   47   48 am   BACKBONE|DICT|INTERRES
    95   47  126 1    
    96   48   49 2    
    97   48   50 1    
    98   50   51 1    
    99   50   52 1    
   100   50  127 1    
   101   51  128 1    
   102   51  129 1    
   103   51  130 1    
   104   52   53 am   BACKBONE|DICT|INTERRES
   105   52  131 1    
   106   53   54 2    
   107   53   55 1    
   108   55   56 1    
   109   55   59 1    
   110   55  132 1    
   111   56   57 1    
   112   56  133 1    
   113   56  134 1    
   114   57   58 1    
   115   58  135 1    
   116   58  136 1    
   117   59   60 am   BACKBONE|DICT|INTERRES
   118   59  137 1    
   119   60   61 2    
   120   60   62 1    
   121   62   63 1    
   122   62   64 1    
   123   62  138 1    
   124   63  139 1    
   125   63  140 1    
   126   63  141 1    
   127   64   65 am   BACKBONE|DICT|INTERRES
   128   64  142 1    
   129   65   66 2    
   130   65   67 1    
   131   67   68 1    
   132   67   69 1    
   133   67  143 1    
   134   68  144 1    
   135   68  145 1    
   136   68  146 1    
   137   69   70 am   BACKBONE|DICT|INTERRES
   138   69  147 1    
   139   70   71 2    
   140   70   72 1    
   141   72   73 1    
   142   72   74 1    
   143   72  148 1    
   144   73  149 1    
   145   73  150 1    
   146   73  151 1    
   147   74   75 am   BACKBONE|DICT|INTERRES
   148   74  152 1    
   149   75   76 2    
   150   75   77 1    
   151   77   78 1    
   152   77   79 1    
   153   77  153 1    
   154   78  154 1    
   155   78  155 1    
   156   78  156 1    
   157   79   80 am   BACKBONE|DICT|INTERRES
   158   79  157 1    
   159   80   81 2    
@<TRIPOS>SUBSTRUCTURE
     1 UNK         1 GROUP             0       ****    0 ROOT    
