@<TRIPOS>MOLECULE
3R207
157   159    1
SMALL
USER_CHARGES


@<TRIPOS>ATOM
      1 CA        -46.4144  -29.4721    2.6619 C.3       0 UNK        -0.1975 
      2 C         -46.8452  -28.2986    3.5280 C.2       0 UNK         0.4852 
      3 O         -46.2561  -28.0729    4.5848 O.2       0 UNK        -0.5216 
      4 N         -47.8456  -27.5292    3.0713 N.am      1 UNK        -0.4461 
      5 CA        -48.5125  -26.4113    3.7690 C.3       1 UNK         0.0864 
      6 C6        -49.2337  -26.8490    5.0755 C.3       14 UNK        -0.0898 
      7 S7        -50.3541  -28.2765    4.8787 S.3       14 UNK        -0.2598 
      8 C8        -50.2852  -29.0181    6.5485 C.3       14 UNK         0.0286 
      9 C9        -51.4994  -28.6808    7.4126 C.ar      14 UNK        -0.0844 
     10 C10       -51.9708  -27.3665    7.5346 C.ar      14 UNK        -0.0881 
     11 C11       -53.1041  -27.0837    8.3042 C.ar      14 UNK        -0.0643 
     12 C12       -53.7554  -28.1225    8.9722 C.ar      14 UNK        -0.0930 
     13 C13       -53.2739  -29.4294    8.8958 C.ar      14 UNK        -0.0827 
     14 C14       -52.1538  -29.7053    8.1068 C.ar      14 UNK        -0.1249 
     15 C15       -53.9760  -30.5328    9.6692 C.3       14 UNK         0.0141 
     16 S16       -53.3380  -30.6335   11.3707 S.3       14 UNK        -0.2313 
     17 C17       -54.6607  -31.5874   12.1955 C.3       14 UNK        -0.0915 
     18 CA        -55.2720  -30.8644   13.4281 C.3       13 UNK         0.0968 
     19 C         -54.3519  -30.9540   14.6836 C.2       13 UNK         0.5732 
     20 N         -53.9272  -29.8543   15.2953 N.am      13 UNK        -0.7310 
     21 O         -54.0314  -32.0546   15.1266 O.2       13 UNK        -0.5035 
     22 N         -55.7256  -29.5070   13.0913 N.am      13 UNK        -0.4233 
     23 C         -56.6529  -28.8218   13.7674 C.2       13 UNK         0.4989 
     24 O         -57.3435  -29.2928   14.6739 O.2       13 UNK        -0.4996 
     25 CA        -56.8234  -27.3441   13.3755 C.3       12 UNK         0.0216 
     26 CB        -58.2077  -27.0922   12.7562 C.3       12 UNK        -0.1964 
     27 N         -56.6302  -26.4611   14.5295 N.am      12 UNK        -0.4276 
     28 C         -55.4844  -26.3580   15.2146 C.2       12 UNK         0.5020 
     29 O         -54.4591  -26.9832   14.9315 O.2       12 UNK        -0.5489 
     30 CA        -55.4811  -25.4291   16.4317 C.3       11 UNK         0.0294 
     31 CB        -55.8652  -26.2150   17.7006 C.3       11 UNK        -0.2019 
     32 N         -54.1379  -24.8727   16.5538 N.am      11 UNK        -0.4493 
     33 C         -53.7420  -23.8819   17.3606 C.2       11 UNK         0.4932 
     34 O         -54.4998  -23.2770   18.1212 O.2       11 UNK        -0.5029 
     35 CA        -52.2489  -23.4958   17.2917 C.3       10 UNK         0.0280 
     36 CB        -51.7524  -22.7526   18.5500 C.3       10 UNK        -0.1976 
     37 N         -51.3809  -24.6341   16.9645 N.am      10 UNK        -0.4242 
     38 C         -51.1721  -25.7437   17.6898 C.2       10 UNK         0.5072 
     39 O         -51.6237  -25.9263   18.8210 O.2       10 UNK        -0.5224 
     40 CA        -50.3408  -26.8618   17.0347 C.3       9 UNK         0.0343 
     41 CB        -51.2702  -27.9643   16.5039 C.3       9 UNK        -0.2003 
     42 N         -49.4874  -26.3910   15.9401 N.am      9 UNK        -0.4272 
     43 C         -48.3294  -25.7370   16.1103 C.2       9 UNK         0.4988 
     44 O         -47.8323  -25.4983   17.2115 O.2       9 UNK        -0.5108 
     45 CA        -47.6122  -25.2503   14.8382 C.3       8 UNK         0.0248 
     46 CB        -46.8744  -26.4085   14.1478 C.3       8 UNK        -0.2001 
     47 N         -48.5178  -24.6005   13.8868 N.am      8 UNK        -0.4140 
     48 C         -49.1834  -23.4607   14.1277 C.2       8 UNK         0.5028 
     49 O         -49.0819  -22.8087   15.1667 O.2       8 UNK        -0.5428 
     50 CA        -50.1512  -22.9795   13.0379 C.3       7 UNK         0.0264 
     51 CB        -49.4094  -22.1730   11.9602 C.3       7 UNK        -0.1988 
     52 N         -50.8707  -24.0919   12.4184 N.am      7 UNK        -0.4454 
     53 C         -51.8639  -24.7704   13.0106 C.2       7 UNK         0.5027 
     54 O         -52.2841  -24.5161   14.1388 O.2       7 UNK        -0.5083 
     55 CA        -52.4784  -25.9433   12.2193 C.3       6 UNK         0.0844 
     56 C56       -53.5596  -25.4389   11.2293 C.3       14 UNK        -0.0967 
     57 S57       -52.8753  -24.6866    9.7048 S.3       14 UNK        -0.2604 
     58 C58       -53.6535  -25.6663    8.3826 C.3       14 UNK         0.0134 
     59 N         -51.4678  -26.7849   11.5752 N.am      6 UNK        -0.4116 
     60 C         -50.4691  -27.4204   12.2045 C.2       5 UNK         0.5034 
     61 O         -50.3270  -27.4471   13.4258 O.2       5 UNK        -0.5045 
     62 CA        -49.3973  -28.0705   11.3159 C.3       5 UNK         0.0224 
     63 CB        -49.7524  -29.5310   11.0066 C.3       5 UNK        -0.1978 
     64 N         -49.1636  -27.3419   10.0657 N.am      5 UNK        -0.4737 
     65 C         -48.7147  -26.0822    9.9901 C.2       4 UNK         0.5027 
     66 O         -48.4539  -25.3876   10.9747 O.2       4 UNK        -0.5211 
     67 CA        -48.5453  -25.5031    8.5770 C.3       4 UNK         0.0297 
     68 CB        -49.1043  -24.0743    8.4782 C.3       4 UNK        -0.1993 
     69 N         -47.1471  -25.4975    8.1486 N.am      4 UNK        -0.4486 
     70 C         -46.3879  -26.5820    7.9483 C.2       3 UNK         0.4961 
     71 O         -46.7888  -27.7384    8.0891 O.2       3 UNK        -0.5105 
     72 CA        -44.9670  -26.3102    7.4337 C.3       3 UNK         0.0299 
     73 CB        -44.0638  -27.5555    7.4996 C.3       3 UNK        -0.1972 
     74 N         -45.0790  -25.8786    6.0436 N.am      3 UNK        -0.4305 
     75 C         -44.9178  -24.6242    5.5969 C.2       2 UNK         0.5006 
     76 O         -44.5431  -23.6887    6.3044 O.2       2 UNK        -0.5106 
     77 CA        -45.2651  -24.3549    4.1177 C.3       2 UNK         0.0296 
     78 CB        -44.0207  -24.5234    3.2312 C.3       2 UNK        -0.2002 
     79 N         -46.3324  -25.2323    3.6301 N.am      2 UNK        -0.4032 
     80 C         -47.6013  -25.1922    4.0626 C.2       1 UNK         0.5000 
     81 O         -48.0538  -24.2477    4.7126 O.2       1 UNK        -0.5238 
     82 H82       -45.3650  -29.3708    2.3869 H         1 UNK         0.0889 
     83 H83       -47.0014  -29.5416    1.7463 H         1 UNK         0.0889 
     84 H84       -46.5341  -30.4045    3.2128 H         1 UNK         0.0889 
     85 H85       -48.2580  -27.7641    2.1786 H         1 UNK         0.3028 
     86 H86       -49.2750  -26.0458    3.0795 H         1 UNK         0.0864 
     87 H87       -49.8217  -26.0235    5.4794 H         1 UNK         0.0720 
     88 H88       -48.4861  -27.0929    5.8304 H         1 UNK         0.0720 
     89 H89       -49.3748  -28.7250    7.0715 H         1 UNK         0.0814 
     90 H90       -50.2127  -30.0988    6.4171 H         1 UNK         0.0814 
     91 H91       -51.4762  -26.5629    7.0092 H         1 UNK         0.1469 
     92 H92       -54.6428  -27.9197    9.5542 H         1 UNK         0.1381 
     93 H93       -51.7897  -30.7215    8.0397 H         1 UNK         0.1206 
     94 H94       -55.0496  -30.3387    9.6844 H         1 UNK         0.0813 
     95 H95       -53.8422  -31.4957    9.1740 H         1 UNK         0.0813 
     96 H96       -55.4553  -31.7955   11.4781 H         1 UNK         0.0638 
     97 H97       -54.2625  -32.5658   12.4704 H         1 UNK         0.0638 
     98 H98       -56.1618  -31.4340   13.7031 H         1 UNK         0.0568 
     99 H99       -54.1804  -28.9263   14.9708 H         1 UNK         0.3450 
    100 H100      -53.3402  -29.9520   16.1062 H         1 UNK         0.3450 
    101 H101      -55.1781  -29.0390   12.3852 H         1 UNK         0.2987 
    102 H102      -56.0674  -27.0838   12.6317 H         1 UNK         0.0766 
    103 H103      -58.3653  -27.7273   11.8833 H         1 UNK         0.0798 
    104 H104      -58.3142  -26.0586   12.4263 H         1 UNK         0.0798 
    105 H105      -59.0116  -27.3049   13.4623 H         1 UNK         0.0798 
    106 H106      -57.4403  -25.9508   14.8506 H         1 UNK         0.3198 
    107 H107      -56.1874  -24.6129   16.2675 H         1 UNK         0.0843 
    108 H108      -55.1466  -27.0086   17.9106 H         1 UNK         0.0831 
    109 H109      -56.8447  -26.6822   17.5913 H         1 UNK         0.0831 
    110 H110      -55.9141  -25.5685   18.5765 H         1 UNK         0.0831 
    111 H111      -53.4677  -25.2739   15.9038 H         1 UNK         0.3133 
    112 H112      -52.1577  -22.8068   16.4509 H         1 UNK         0.0566 
    113 H113      -50.6966  -22.4948   18.4660 H         1 UNK         0.0814 
    114 H114      -51.8829  -23.3492   19.4531 H         1 UNK         0.0814 
    115 H115      -52.3017  -21.8217   18.6954 H         1 UNK         0.0814 
    116 H116      -50.9992  -24.6157   16.0275 H         1 UNK         0.3091 
    117 H117      -49.7053  -27.2966   17.8091 H         1 UNK         0.0702 
    118 H118      -50.7027  -28.8018   16.0978 H         1 UNK         0.0785 
    119 H119      -51.9231  -27.5909   15.7137 H         1 UNK         0.0785 
    120 H120      -51.9082  -28.3553   17.2975 H         1 UNK         0.0785 
    121 H121      -49.8001  -26.6100   14.9957 H         1 UNK         0.2998 
    122 H122      -46.8690  -24.5087   15.1385 H         1 UNK         0.0697 
    123 H123      -47.5552  -27.2128   13.8709 H         1 UNK         0.0825 
    124 H124      -46.1207  -26.8367   14.8098 H         1 UNK         0.0825 
    125 H125      -46.3627  -26.0746   13.2448 H         1 UNK         0.0825 
    126 H126      -48.6235  -25.0347   12.9746 H         1 UNK         0.3029 
    127 H127      -50.8839  -22.3203   13.5094 H         1 UNK         0.0897 
    128 H128      -48.6274  -22.7605   11.4788 H         1 UNK         0.0792 
    129 H129      -48.9317  -21.2943   12.3953 H         1 UNK         0.0792 
    130 H130      -50.0915  -21.8213   11.1858 H         1 UNK         0.0792 
    131 H131      -50.5526  -24.3914   11.5071 H         1 UNK         0.3086 
    132 H132      -52.9752  -26.5828   12.9480 H         1 UNK         0.0583 
    133 H133      -54.2175  -26.2647   10.9698 H         1 UNK         0.1020 
    134 H134      -54.2158  -24.7105   11.7110 H         1 UNK         0.1020 
    135 H135      -54.7346  -25.6812    8.5296 H         1 UNK         0.0694 
    136 H136      -53.4872  -25.1587    7.4312 H         1 UNK         0.0694 
    137 H137      -51.4983  -26.8185   10.5664 H         1 UNK         0.2989 
    138 H138      -48.4608  -28.0630   11.8759 H         1 UNK         0.1055 
    139 H139      -48.9563  -30.0264   10.4507 H         1 UNK         0.0806 
    140 H140      -49.9089  -30.0979   11.9255 H         1 UNK         0.0806 
    141 H141      -50.6677  -29.6050   10.4220 H         1 UNK         0.0806 
    142 H142      -49.3035  -27.8579    9.2092 H         1 UNK         0.3061 
    143 H143      -49.1114  -26.1265    7.8848 H         1 UNK         0.0734 
    144 H144      -48.5368  -23.3729    9.0905 H         1 UNK         0.0832 
    145 H145      -49.0835  -23.7132    7.4495 H         1 UNK         0.0832 
    146 H146      -50.1406  -24.0333    8.8120 H         1 UNK         0.0832 
    147 H147      -46.7275  -24.5908    7.9988 H         1 UNK         0.3156 
    148 H148      -44.5208  -25.5315    8.0557 H         1 UNK         0.0589 
    149 H149      -43.0548  -27.3297    7.1547 H         1 UNK         0.0808 
    150 H150      -43.9837  -27.9253    8.5226 H         1 UNK         0.0808 
    151 H151      -44.4516  -28.3700    6.8858 H         1 UNK         0.0808 
    152 H152      -45.4450  -26.5867    5.4090 H         1 UNK         0.3098 
    153 H153      -45.6080  -23.3211    4.0376 H         1 UNK         0.0720 
    154 H154      -43.2172  -23.8623    3.5592 H         1 UNK         0.0791 
    155 H155      -44.2375  -24.2765    2.1917 H         1 UNK         0.0791 
    156 H156      -43.6364  -25.5439    3.2621 H         1 UNK         0.0791 
    157 H157      -46.0487  -26.0412    3.0967 H         1 UNK         0.3028 
@<TRIPOS>BOND
     1    1    2 1    
     2    1   82 1    
     3    1   83 1    
     4    1   84 1    
     5    2    3 2    
     6    2    4 am   BACKBONE|DICT|INTERRES
     7    4    5 1    
     8    4   85 1    
     9    5    6 1    
    10    5   80 1    
    11    5   86 1    
    12    6    7 1    
    13    6   87 1    
    14    6   88 1    
    15    7    8 1    
    16    8    9 1    
    17    8   89 1    
    18    8   90 1    
    19    9   10 ar   
    20    9   14 ar   
    21   10   11 ar   
    22   10   91 1    
    23   11   12 ar   
    24   11   58 1    
    25   12   13 ar   
    26   12   92 1    
    27   13   14 ar   
    28   13   15 1    
    29   14   93 1    
    30   15   16 1    
    31   15   94 1    
    32   15   95 1    
    33   16   17 1    
    34   17   18 1    
    35   17   96 1    
    36   17   97 1    
    37   18   19 1    
    38   18   22 1    
    39   18   98 1    
    40   19   20 am   BACKBONE|DICT|INTERRES
    41   19   21 2    
    42   20   99 1    
    43   20  100 1    
    44   22   23 am   BACKBONE|DICT|INTERRES
    45   22  101 1    
    46   23   24 2    
    47   23   25 1    
    48   25   26 1    
    49   25   27 1    
    50   25  102 1    
    51   26  103 1    
    52   26  104 1    
    53   26  105 1    
    54   27   28 am   BACKBONE|DICT|INTERRES
    55   27  106 1    
    56   28   29 2    
    57   28   30 1    
    58   30   31 1    
    59   30   32 1    
    60   30  107 1    
    61   31  108 1    
    62   31  109 1    
    63   31  110 1    
    64   32   33 am   BACKBONE|DICT|INTERRES
    65   32  111 1    
    66   33   34 2    
    67   33   35 1    
    68   35   36 1    
    69   35   37 1    
    70   35  112 1    
    71   36  113 1    
    72   36  114 1    
    73   36  115 1    
    74   37   38 am   BACKBONE|DICT|INTERRES
    75   37  116 1    
    76   38   39 2    
    77   38   40 1    
    78   40   41 1    
    79   40   42 1    
    80   40  117 1    
    81   41  118 1    
    82   41  119 1    
    83   41  120 1    
    84   42   43 am   BACKBONE|DICT|INTERRES
    85   42  121 1    
    86   43   44 2    
    87   43   45 1    
    88   45   46 1    
    89   45   47 1    
    90   45  122 1    
    91   46  123 1    
    92   46  124 1    
    93   46  125 1    
    94   47   48 am   BACKBONE|DICT|INTERRES
    95   47  126 1    
    96   48   49 2    
    97   48   50 1    
    98   50   51 1    
    99   50   52 1    
   100   50  127 1    
   101   51  128 1    
   102   51  129 1    
   103   51  130 1    
   104   52   53 am   BACKBONE|DICT|INTERRES
   105   52  131 1    
   106   53   54 2    
   107   53   55 1    
   108   55   56 1    
   109   55   59 1    
   110   55  132 1    
   111   56   57 1    
   112   56  133 1    
   113   56  134 1    
   114   57   58 1    
   115   58  135 1    
   116   58  136 1    
   117   59   60 am   BACKBONE|DICT|INTERRES
   118   59  137 1    
   119   60   61 2    
   120   60   62 1    
   121   62   63 1    
   122   62   64 1    
   123   62  138 1    
   124   63  139 1    
   125   63  140 1    
   126   63  141 1    
   127   64   65 am   BACKBONE|DICT|INTERRES
   128   64  142 1    
   129   65   66 2    
   130   65   67 1    
   131   67   68 1    
   132   67   69 1    
   133   67  143 1    
   134   68  144 1    
   135   68  145 1    
   136   68  146 1    
   137   69   70 am   BACKBONE|DICT|INTERRES
   138   69  147 1    
   139   70   71 2    
   140   70   72 1    
   141   72   73 1    
   142   72   74 1    
   143   72  148 1    
   144   73  149 1    
   145   73  150 1    
   146   73  151 1    
   147   74   75 am   BACKBONE|DICT|INTERRES
   148   74  152 1    
   149   75   76 2    
   150   75   77 1    
   151   77   78 1    
   152   77   79 1    
   153   77  153 1    
   154   78  154 1    
   155   78  155 1    
   156   78  156 1    
   157   79   80 am   BACKBONE|DICT|INTERRES
   158   79  157 1    
   159   80   81 2    
@<TRIPOS>SUBSTRUCTURE
     1 UNK         1 GROUP             0       ****    0 ROOT    
