@<TRIPOS>MOLECULE
3R207
157   159    1
SMALL
USER_CHARGES


@<TRIPOS>ATOM
      1 CA        -52.2282  -30.4738    8.1812 C.3       0 UNK        -0.1975 
      2 C         -51.3491  -30.0698    7.0079 C.2       0 UNK         0.4852 
      3 O         -50.6946  -30.9263    6.4130 O.2       0 UNK        -0.5216 
      4 N         -51.3209  -28.7726    6.6729 N.am      1 UNK        -0.4461 
      5 CA        -50.5616  -28.2131    5.5443 C.3       1 UNK         0.0864 
      6 C6        -51.1210  -26.8428    5.0831 C.3       14 UNK        -0.0898 
      7 S7        -52.8438  -26.9512    4.4885 S.3       14 UNK        -0.2598 
      8 C8        -53.7158  -25.8091    5.6065 C.3       14 UNK         0.0286 
      9 C9        -53.9280  -26.4198    6.9829 C.ar      14 UNK        -0.0844 
     10 C10       -53.0261  -26.1578    8.0186 C.ar      14 UNK        -0.0881 
     11 C11       -53.2165  -26.7263    9.2798 C.ar      14 UNK        -0.0643 
     12 C12       -54.3275  -27.5390    9.5105 C.ar      14 UNK        -0.0930 
     13 C13       -55.2391  -27.8046    8.4855 C.ar      14 UNK        -0.0827 
     14 C14       -55.0334  -27.2437    7.2216 C.ar      14 UNK        -0.1249 
     15 C15       -56.4266  -28.7163    8.7502 C.3       14 UNK         0.0141 
     16 S16       -57.5956  -27.9543    9.9191 S.3       14 UNK        -0.2313 
     17 C17       -58.5404  -29.4077   10.4844 C.3       14 UNK        -0.0915 
     18 CA        -58.0909  -29.8909   11.8893 C.3       13 UNK         0.0968 
     19 C         -59.0699  -30.9634   12.4400 C.2       13 UNK         0.5732 
     20 N         -60.1335  -30.5454   13.1124 N.am      13 UNK        -0.7310 
     21 O         -58.8965  -32.1629   12.2284 O.2       13 UNK        -0.5035 
     22 N         -56.6993  -30.3641   11.8731 N.am      13 UNK        -0.4233 
     23 C         -55.9503  -30.6074   12.9548 C.2       13 UNK         0.4989 
     24 O         -56.3292  -30.4030   14.1104 O.2       13 UNK        -0.4996 
     25 CA        -54.5499  -31.2147   12.7190 C.3       12 UNK         0.0216 
     26 CB        -54.0894  -31.2211   11.2417 C.3       12 UNK        -0.1964 
     27 N         -53.5171  -30.6110   13.5703 N.am      12 UNK        -0.4276 
     28 C         -53.1587  -29.3195   13.6217 C.2       12 UNK         0.5020 
     29 O         -53.6833  -28.4237   12.9566 O.2       12 UNK        -0.5489 
     30 CA        -51.9726  -29.0022   14.5485 C.3       11 UNK         0.0294 
     31 CB        -50.6428  -29.4248   13.9006 C.3       11 UNK        -0.2019 
     32 N         -51.8903  -27.5818   14.8834 N.am      11 UNK        -0.4493 
     33 C         -52.6292  -26.9674   15.8152 C.2       11 UNK         0.4932 
     34 O         -53.5004  -27.5268   16.4845 O.2       11 UNK        -0.5029 
     35 CA        -52.2771  -25.4877   16.0676 C.3       10 UNK         0.0280 
     36 CB        -53.0269  -24.8691   17.2663 C.3       10 UNK        -0.1976 
     37 N         -50.8255  -25.3041   16.1909 N.am      10 UNK        -0.4242 
     38 C         -50.0043  -25.8553   17.0993 C.2       10 UNK         0.5072 
     39 O         -50.3843  -26.4906   18.0838 O.2       10 UNK        -0.5224 
     40 CA        -48.4914  -25.7139   16.8514 C.3       9 UNK         0.0343 
     41 CB        -47.9437  -27.0030   16.2168 C.3       9 UNK        -0.2003 
     42 N         -48.1433  -24.5769   15.9961 N.am      9 UNK        -0.4272 
     43 C         -48.1622  -23.2973   16.3955 C.2       9 UNK         0.4988 
     44 O         -48.4170  -22.9416   17.5468 O.2       9 UNK        -0.5108 
     45 CA        -47.8675  -22.2316   15.3260 C.3       8 UNK         0.0248 
     46 CB        -46.3542  -22.0990   15.0926 C.3       8 UNK        -0.2001 
     47 N         -48.5432  -22.4972   14.0530 N.am      8 UNK        -0.4140 
     48 C         -49.8736  -22.5212   13.8841 C.2       8 UNK         0.5028 
     49 O         -50.6857  -22.2859   14.7785 O.2       8 UNK        -0.5428 
     50 CA        -50.3917  -22.9056   12.4901 C.3       7 UNK         0.0264 
     51 CB        -50.3794  -21.6949   11.5433 C.3       7 UNK        -0.1988 
     52 N         -49.6346  -24.0049   11.8921 N.am      7 UNK        -0.4454 
     53 C         -49.6475  -25.2699   12.3373 C.2       7 UNK         0.5027 
     54 O         -50.2950  -25.6540   13.3127 O.2       7 UNK        -0.5083 
     55 CA        -48.7715  -26.2710   11.5586 C.3       6 UNK         0.0844 
     56 C56       -49.4152  -26.6196   10.1943 C.3       14 UNK        -0.0967 
     57 S57       -50.8721  -27.7010   10.3333 S.3       14 UNK        -0.2604 
     58 C58       -52.2179  -26.4754   10.3925 C.3       14 UNK         0.0134 
     59 N         -47.4016  -25.7795   11.3873 N.am      6 UNK        -0.4116 
     60 C         -46.5764  -25.4007   12.3749 C.2       5 UNK         0.5034 
     61 O         -46.8386  -25.4967   13.5730 O.2       5 UNK        -0.5045 
     62 CA        -45.2625  -24.7254   11.9506 C.3       5 UNK         0.0224 
     63 CB        -44.1738  -25.7708   11.6634 C.3       5 UNK        -0.1978 
     64 N         -45.4303  -23.8458   10.7894 N.am      5 UNK        -0.4737 
     65 C         -46.2228  -22.7628   10.7605 C.2       4 UNK         0.5027 
     66 O         -46.8647  -22.3649   11.7318 O.2       4 UNK        -0.5211 
     67 CA        -46.3522  -22.0145    9.4225 C.3       4 UNK         0.0297 
     68 CB        -45.4253  -20.7893    9.4040 C.3       4 UNK        -0.1993 
     69 N         -46.0675  -22.8599    8.2594 N.am      4 UNK        -0.4486 
     70 C         -46.8395  -23.8739    7.8443 C.2       3 UNK         0.4961 
     71 O         -47.9252  -24.1515    8.3595 O.2       3 UNK        -0.5105 
     72 CA        -46.3071  -24.7132    6.6608 C.3       3 UNK         0.0299 
     73 CB        -44.7682  -24.6673    6.5168 C.3       3 UNK        -0.1972 
     74 N         -46.7557  -26.1108    6.6893 N.am      3 UNK        -0.4305 
     75 C         -46.6131  -26.9998    7.6826 C.2       2 UNK         0.5006 
     76 O         -46.1030  -26.7358    8.7738 O.2       2 UNK        -0.5106 
     77 CA        -47.1523  -28.4198    7.4066 C.3       2 UNK         0.0296 
     78 CB        -46.9463  -29.3855    8.5908 C.3       2 UNK        -0.2002 
     79 N         -48.5689  -28.4228    7.0193 N.am      2 UNK        -0.4032 
     80 C         -49.0382  -28.1214    5.7989 C.2       1 UNK         0.5000 
     81 O         -48.3025  -27.7600    4.8772 O.2       1 UNK        -0.5238 
     82 H82       -52.9756  -31.1992    7.8613 H         1 UNK         0.0889 
     83 H83       -52.7482  -29.6191    8.6091 H         1 UNK         0.0889 
     84 H84       -51.6231  -30.9267    8.9661 H         1 UNK         0.0889 
     85 H85       -51.9040  -28.1172    7.1772 H         1 UNK         0.3028 
     86 H86       -50.6727  -28.9036    4.7051 H         1 UNK         0.0864 
     87 H87       -50.5328  -26.4488    4.2519 H         1 UNK         0.0720 
     88 H88       -51.0369  -26.1036    5.8802 H         1 UNK         0.0720 
     89 H89       -53.1676  -24.8683    5.6782 H         1 UNK         0.0814 
     90 H90       -54.6827  -25.5600    5.1667 H         1 UNK         0.0814 
     91 H91       -52.1717  -25.5179    7.8460 H         1 UNK         0.1469 
     92 H92       -54.4808  -27.9684   10.4910 H         1 UNK         0.1381 
     93 H93       -55.7306  -27.4490    6.4205 H         1 UNK         0.1206 
     94 H94       -56.9524  -28.9547    7.8243 H         1 UNK         0.0813 
     95 H95       -56.0583  -29.6617    9.1481 H         1 UNK         0.0813 
     96 H96       -58.4650  -30.2118    9.7498 H         1 UNK         0.0638 
     97 H97       -59.5916  -29.1139   10.5026 H         1 UNK         0.0638 
     98 H98       -58.1293  -29.0362   12.5680 H         1 UNK         0.0568 
     99 H99       -60.7885  -31.2259   13.4646 H         1 UNK         0.3450 
    100 H100      -60.2924  -29.5640   13.2802 H         1 UNK         0.3450 
    101 H101      -56.3224  -30.5949   10.9686 H         1 UNK         0.2987 
    102 H102      -54.6284  -32.2555   13.0366 H         1 UNK         0.0766 
    103 H103      -53.1061  -31.6813   11.1438 H         1 UNK         0.0798 
    104 H104      -54.0168  -30.2141   10.8327 H         1 UNK         0.0798 
    105 H105      -54.7667  -31.7960   10.6092 H         1 UNK         0.0798 
    106 H106      -53.0418  -31.2553   14.1869 H         1 UNK         0.3198 
    107 H107      -52.1021  -29.5672   15.4744 H         1 UNK         0.0843 
    108 H108      -50.4491  -28.8677   12.9846 H         1 UNK         0.0831 
    109 H109      -50.6440  -30.4844   13.6422 H         1 UNK         0.0831 
    110 H110      -49.8030  -29.2593   14.5756 H         1 UNK         0.0831 
    111 H111      -51.2555  -27.0139   14.3283 H         1 UNK         0.3133 
    112 H112      -52.5774  -24.9413   15.1721 H         1 UNK         0.0566 
    113 H113      -52.7554  -23.8224   17.4038 H         1 UNK         0.0814 
    114 H114      -54.1056  -24.9075   17.1107 H         1 UNK         0.0814 
    115 H115      -52.8153  -25.3964   18.1968 H         1 UNK         0.0814 
    116 H116      -50.3907  -24.8454   15.4001 H         1 UNK         0.3091 
    117 H117      -48.0082  -25.5783   17.8214 H         1 UNK         0.0702 
    118 H118      -46.8615  -26.9558   16.0940 H         1 UNK         0.0785 
    119 H119      -48.3835  -27.1843   15.2349 H         1 UNK         0.0785 
    120 H120      -48.1628  -27.8717   16.8391 H         1 UNK         0.0785 
    121 H121      -47.8539  -24.7957   15.0457 H         1 UNK         0.2998 
    122 H122      -48.2380  -21.2749   15.7000 H         1 UNK         0.0697 
    123 H123      -45.9214  -23.0268   14.7186 H         1 UNK         0.0825 
    124 H124      -45.8371  -21.8483   16.0197 H         1 UNK         0.0825 
    125 H125      -46.1306  -21.3116   14.3724 H         1 UNK         0.0825 
    126 H126      -47.9484  -22.6363   13.2383 H         1 UNK         0.3029 
    127 H127      -51.4264  -23.2372   12.6038 H         1 UNK         0.0897 
    128 H128      -50.8113  -21.9447   10.5740 H         1 UNK         0.0792 
    129 H129      -50.9658  -20.8730   11.9563 H         1 UNK         0.0792 
    130 H130      -49.3692  -21.3203   11.3741 H         1 UNK         0.0792 
    131 H131      -49.0399  -23.7740   11.1083 H         1 UNK         0.3086 
    132 H132      -48.6998  -27.1833   12.1543 H         1 UNK         0.0583 
    133 H133      -49.6533  -25.7285    9.6107 H         1 UNK         0.1020 
    134 H134      -48.6960  -27.1648    9.5920 H         1 UNK         0.1020 
    135 H135      -52.7070  -26.5341   11.3656 H         1 UNK         0.0694 
    136 H136      -51.8338  -25.4579   10.3146 H         1 UNK         0.0694 
    137 H137      -47.0663  -25.6961   10.4341 H         1 UNK         0.2989 
    138 H138      -44.9279  -24.1076   12.7863 H         1 UNK         0.1055 
    139 H139      -44.0200  -26.4189   12.5274 H         1 UNK         0.0806 
    140 H140      -43.2173  -25.2973   11.4416 H         1 UNK         0.0806 
    141 H141      -44.4349  -26.4108   10.8202 H         1 UNK         0.0806 
    142 H142      -44.9569  -24.1161    9.9396 H         1 UNK         0.3061 
    143 H143      -47.3838  -21.6644    9.3434 H         1 UNK         0.0734 
    144 H144      -45.5599  -20.2021    8.4954 H         1 UNK         0.0832 
    145 H145      -45.6362  -20.1298   10.2472 H         1 UNK         0.0832 
    146 H146      -44.3744  -21.0744    9.4695 H         1 UNK         0.0832 
    147 H147      -45.1993  -22.6874    7.7731 H         1 UNK         0.3156 
    148 H148      -46.7410  -24.2761    5.7606 H         1 UNK         0.0589 
    149 H149      -44.2651  -25.0030    7.4248 H         1 UNK         0.0808 
    150 H150      -44.4328  -25.3086    5.7015 H         1 UNK         0.0808 
    151 H151      -44.4122  -23.6627    6.2863 H         1 UNK         0.0808 
    152 H152      -47.2321  -26.4418    5.8548 H         1 UNK         0.3098 
    153 H153      -46.5677  -28.8133    6.5721 H         1 UNK         0.0720 
    154 H154      -47.2566  -30.3979    8.3314 H         1 UNK         0.0791 
    155 H155      -47.5037  -29.0843    9.4771 H         1 UNK         0.0791 
    156 H156      -45.8938  -29.4362    8.8730 H         1 UNK         0.0791 
    157 H157      -49.2365  -28.6915    7.7273 H         1 UNK         0.3028 
@<TRIPOS>BOND
     1    1    2 1    
     2    1   82 1    
     3    1   83 1    
     4    1   84 1    
     5    2    3 2    
     6    2    4 am   BACKBONE|DICT|INTERRES
     7    4    5 1    
     8    4   85 1    
     9    5    6 1    
    10    5   80 1    
    11    5   86 1    
    12    6    7 1    
    13    6   87 1    
    14    6   88 1    
    15    7    8 1    
    16    8    9 1    
    17    8   89 1    
    18    8   90 1    
    19    9   10 ar   
    20    9   14 ar   
    21   10   11 ar   
    22   10   91 1    
    23   11   12 ar   
    24   11   58 1    
    25   12   13 ar   
    26   12   92 1    
    27   13   14 ar   
    28   13   15 1    
    29   14   93 1    
    30   15   16 1    
    31   15   94 1    
    32   15   95 1    
    33   16   17 1    
    34   17   18 1    
    35   17   96 1    
    36   17   97 1    
    37   18   19 1    
    38   18   22 1    
    39   18   98 1    
    40   19   20 am   BACKBONE|DICT|INTERRES
    41   19   21 2    
    42   20   99 1    
    43   20  100 1    
    44   22   23 am   BACKBONE|DICT|INTERRES
    45   22  101 1    
    46   23   24 2    
    47   23   25 1    
    48   25   26 1    
    49   25   27 1    
    50   25  102 1    
    51   26  103 1    
    52   26  104 1    
    53   26  105 1    
    54   27   28 am   BACKBONE|DICT|INTERRES
    55   27  106 1    
    56   28   29 2    
    57   28   30 1    
    58   30   31 1    
    59   30   32 1    
    60   30  107 1    
    61   31  108 1    
    62   31  109 1    
    63   31  110 1    
    64   32   33 am   BACKBONE|DICT|INTERRES
    65   32  111 1    
    66   33   34 2    
    67   33   35 1    
    68   35   36 1    
    69   35   37 1    
    70   35  112 1    
    71   36  113 1    
    72   36  114 1    
    73   36  115 1    
    74   37   38 am   BACKBONE|DICT|INTERRES
    75   37  116 1    
    76   38   39 2    
    77   38   40 1    
    78   40   41 1    
    79   40   42 1    
    80   40  117 1    
    81   41  118 1    
    82   41  119 1    
    83   41  120 1    
    84   42   43 am   BACKBONE|DICT|INTERRES
    85   42  121 1    
    86   43   44 2    
    87   43   45 1    
    88   45   46 1    
    89   45   47 1    
    90   45  122 1    
    91   46  123 1    
    92   46  124 1    
    93   46  125 1    
    94   47   48 am   BACKBONE|DICT|INTERRES
    95   47  126 1    
    96   48   49 2    
    97   48   50 1    
    98   50   51 1    
    99   50   52 1    
   100   50  127 1    
   101   51  128 1    
   102   51  129 1    
   103   51  130 1    
   104   52   53 am   BACKBONE|DICT|INTERRES
   105   52  131 1    
   106   53   54 2    
   107   53   55 1    
   108   55   56 1    
   109   55   59 1    
   110   55  132 1    
   111   56   57 1    
   112   56  133 1    
   113   56  134 1    
   114   57   58 1    
   115   58  135 1    
   116   58  136 1    
   117   59   60 am   BACKBONE|DICT|INTERRES
   118   59  137 1    
   119   60   61 2    
   120   60   62 1    
   121   62   63 1    
   122   62   64 1    
   123   62  138 1    
   124   63  139 1    
   125   63  140 1    
   126   63  141 1    
   127   64   65 am   BACKBONE|DICT|INTERRES
   128   64  142 1    
   129   65   66 2    
   130   65   67 1    
   131   67   68 1    
   132   67   69 1    
   133   67  143 1    
   134   68  144 1    
   135   68  145 1    
   136   68  146 1    
   137   69   70 am   BACKBONE|DICT|INTERRES
   138   69  147 1    
   139   70   71 2    
   140   70   72 1    
   141   72   73 1    
   142   72   74 1    
   143   72  148 1    
   144   73  149 1    
   145   73  150 1    
   146   73  151 1    
   147   74   75 am   BACKBONE|DICT|INTERRES
   148   74  152 1    
   149   75   76 2    
   150   75   77 1    
   151   77   78 1    
   152   77   79 1    
   153   77  153 1    
   154   78  154 1    
   155   78  155 1    
   156   78  156 1    
   157   79   80 am   BACKBONE|DICT|INTERRES
   158   79  157 1    
   159   80   81 2    
@<TRIPOS>SUBSTRUCTURE
     1 UNK         1 GROUP             0       ****    0 ROOT    
