@<TRIPOS>MOLECULE
3R207
157   159    1
SMALL
USER_CHARGES


@<TRIPOS>ATOM
      1 CA        -50.9992  -28.8565    9.4869 C.3       0 UNK        -0.1975 
      2 C         -50.2711  -29.2068    8.2010 C.2       0 UNK         0.4852 
      3 O         -49.8251  -30.3435    8.0360 O.2       0 UNK        -0.5216 
      4 N         -50.1541  -28.2430    7.2784 N.am      1 UNK        -0.4461 
      5 CA        -49.5334  -28.3952    5.9573 C.3       1 UNK         0.0864 
      6 C6        -50.0547  -27.3213    4.9626 C.3       14 UNK        -0.0898 
      7 S7        -51.6470  -27.7177    4.1520 S.3       14 UNK        -0.2598 
      8 C8        -52.8118  -28.1482    5.4971 C.3       14 UNK         0.0286 
      9 C9        -53.2759  -27.0056    6.4058 C.ar      14 UNK        -0.0844 
     10 C10       -52.8696  -25.6745    6.2389 C.ar      14 UNK        -0.0881 
     11 C11       -53.3544  -24.6665    7.0765 C.ar      14 UNK        -0.0643 
     12 C12       -54.2754  -24.9858    8.0765 C.ar      14 UNK        -0.0930 
     13 C13       -54.6945  -26.3067    8.2565 C.ar      14 UNK        -0.0827 
     14 C14       -54.1819  -27.3092    7.4280 C.ar      14 UNK        -0.1249 
     15 C15       -55.7373  -26.6390    9.3146 C.3       14 UNK         0.0141 
     16 S16       -55.1148  -26.3651   11.0002 S.3       14 UNK        -0.2313 
     17 C17       -54.0248  -27.8041   11.2485 C.3       14 UNK        -0.0915 
     18 CA        -54.6046  -28.7670   12.3192 C.3       13 UNK         0.0968 
     19 C         -53.9312  -30.1721   12.2956 C.2       13 UNK         0.5732 
     20 N         -53.6707  -30.8146   13.4282 N.am      13 UNK        -0.7310 
     21 O         -53.6583  -30.7103   11.2262 O.2       13 UNK        -0.5035 
     22 N         -54.6100  -28.1457   13.6555 N.am      13 UNK        -0.4233 
     23 C         -55.6058  -28.2505   14.5422 C.2       13 UNK         0.4989 
     24 O         -56.6917  -28.7815   14.3005 O.2       13 UNK        -0.4996 
     25 CA        -55.3026  -27.7094   15.9541 C.3       12 UNK         0.0216 
     26 CB        -56.4876  -27.8730   16.9290 C.3       12 UNK        -0.1964 
     27 N         -54.0850  -28.3014   16.5273 N.am      12 UNK        -0.4276 
     28 C         -53.7972  -29.6030   16.6844 C.2       12 UNK         0.5020 
     29 O         -54.5489  -30.5186   16.3472 O.2       12 UNK        -0.5489 
     30 CA        -52.3982  -29.9335   17.2450 C.3       11 UNK         0.0294 
     31 CB        -52.2205  -31.4328   17.5502 C.3       11 UNK        -0.2019 
     32 N         -51.3472  -29.5110   16.3144 N.am      11 UNK        -0.4493 
     33 C         -50.9697  -28.2411   16.1288 C.2       11 UNK         0.4932 
     34 O         -51.4146  -27.3113   16.8072 O.2       11 UNK        -0.5029 
     35 CA        -49.9741  -27.9703   14.9889 C.3       10 UNK         0.0280 
     36 CB        -50.5038  -28.4995   13.6430 C.3       10 UNK        -0.1976 
     37 N         -49.7790  -26.5270   14.8817 N.am      10 UNK        -0.4242 
     38 C         -48.6367  -25.8679   15.1130 C.2       10 UNK         0.5072 
     39 O         -47.5436  -26.4174   15.2568 O.2       10 UNK        -0.5224 
     40 CA        -48.7212  -24.3320   15.2375 C.3       9 UNK         0.0343 
     41 CB        -48.1977  -23.6380   13.9725 C.3       9 UNK        -0.2003 
     42 N         -50.0794  -23.8623   15.5294 N.am      9 UNK        -0.4272 
     43 C         -50.6724  -24.0104   16.7244 C.2       9 UNK         0.4988 
     44 O         -50.0716  -24.3872   17.7318 O.2       9 UNK        -0.5108 
     45 CA        -52.1779  -23.7022   16.8376 C.3       8 UNK         0.0248 
     46 CB        -52.4177  -22.5012   17.7688 C.3       8 UNK        -0.2001 
     47 N         -52.8615  -23.4543   15.5655 N.am      8 UNK        -0.4140 
     48 C         -53.0927  -24.3496   14.5958 C.2       8 UNK         0.5028 
     49 O         -52.7080  -25.5203   14.6281 O.2       8 UNK        -0.5428 
     50 CA        -53.8917  -23.8569   13.3746 C.3       7 UNK         0.0264 
     51 CB        -54.3715  -22.3893   13.4670 C.3       7 UNK        -0.1988 
     52 N         -53.1713  -24.0714   12.1163 N.am      7 UNK        -0.4454 
     53 C         -51.9553  -23.6157   11.7891 C.2       7 UNK         0.5027 
     54 O         -51.2401  -22.9531   12.5460 O.2       7 UNK        -0.5083 
     55 CA        -51.4929  -23.8944   10.3440 C.3       6 UNK         0.0844 
     56 C56       -51.8147  -22.6782    9.4405 C.3       14 UNK        -0.0967 
     57 S57       -51.3058  -22.9144    7.7016 S.3       14 UNK        -0.2604 
     58 C58       -52.8967  -23.2303    6.8759 C.3       14 UNK         0.0134 
     59 N         -50.0717  -24.2348   10.3108 N.am      6 UNK        -0.4116 
     60 C         -49.5387  -25.3646   10.7822 C.2       5 UNK         0.5034 
     61 O         -50.2104  -26.2749   11.2646 O.2       5 UNK        -0.5045 
     62 CA        -48.0045  -25.4985   10.6847 C.3       5 UNK         0.0224 
     63 CB        -47.4891  -26.8044   11.3159 C.3       5 UNK        -0.1978 
     64 N         -47.5064  -25.4065    9.3083 N.am      5 UNK        -0.4737 
     65 C         -47.4257  -24.2799    8.5837 C.2       4 UNK         0.5027 
     66 O         -47.7821  -23.1791    9.0089 O.2       4 UNK        -0.5211 
     67 CA        -46.8561  -24.4063    7.1559 C.3       4 UNK         0.0297 
     68 CB        -46.4316  -23.0510    6.5520 C.3       4 UNK        -0.1993 
     69 N         -45.7722  -25.3910    7.0597 N.am      4 UNK        -0.4486 
     70 C         -44.6023  -25.3810    7.7220 C.2       3 UNK         0.4961 
     71 O         -44.2328  -24.4509    8.4405 O.2       3 UNK        -0.5105 
     72 CA        -43.6874  -26.6177    7.5640 C.3       3 UNK         0.0299 
     73 CB        -42.8699  -26.9048    8.8420 C.3       3 UNK        -0.1972 
     74 N         -44.3835  -27.8334    7.1174 N.am      3 UNK        -0.4305 
     75 C         -45.4012  -28.4535    7.7324 C.2       2 UNK         0.5006 
     76 O         -45.8939  -28.0938    8.8027 O.2       2 UNK        -0.5106 
     77 CA        -46.0207  -29.6426    6.9826 C.3       2 UNK         0.0296 
     78 CB        -45.8327  -30.9457    7.7761 C.3       2 UNK        -0.2002 
     79 N         -47.4474  -29.4337    6.7248 N.am      2 UNK        -0.4032 
     80 C         -47.9924  -28.3898    6.0835 C.2       1 UNK         0.5000 
     81 O         -47.3322  -27.4541    5.6227 O.2       1 UNK        -0.5238 
     82 H82       -51.7824  -29.5877    9.6803 H         1 UNK         0.0889 
     83 H83       -51.4621  -27.8708    9.4360 H         1 UNK         0.0889 
     84 H84       -50.3070  -28.8673   10.3281 H         1 UNK         0.0889 
     85 H85       -50.5341  -27.3281    7.4747 H         1 UNK         0.3028 
     86 H86       -49.8001  -29.3756    5.5560 H         1 UNK         0.0864 
     87 H87       -49.3573  -27.1954    4.1321 H         1 UNK         0.0720 
     88 H88       -50.1079  -26.3422    5.4401 H         1 UNK         0.0720 
     89 H89       -52.4034  -28.9625    6.0941 H         1 UNK         0.0814 
     90 H90       -53.7007  -28.5626    5.0193 H         1 UNK         0.0814 
     91 H91       -52.1852  -25.3994    5.4508 H         1 UNK         0.1469 
     92 H92       -54.6728  -24.2067    8.7124 H         1 UNK         0.1381 
     93 H93       -54.5122  -28.3308    7.5606 H         1 UNK         0.1206 
     94 H94       -56.0868  -27.6683    9.2187 H         1 UNK         0.0813 
     95 H95       -56.6117  -26.0058    9.1582 H         1 UNK         0.0813 
     96 H96       -53.0340  -27.4500   11.5383 H         1 UNK         0.0638 
     97 H97       -53.8997  -28.3086   10.2897 H         1 UNK         0.0638 
     98 H98       -55.6354  -28.9706   12.0242 H         1 UNK         0.0568 
     99 H99       -53.2508  -31.7284   13.3758 H         1 UNK         0.3450 
    100 H100      -53.9911  -30.4611   14.3203 H         1 UNK         0.3450 
    101 H101      -53.7594  -27.6753   13.9336 H         1 UNK         0.2987 
    102 H102      -55.1091  -26.6414   15.8424 H         1 UNK         0.0766 
    103 H103      -57.3788  -27.3719   16.5489 H         1 UNK         0.0798 
    104 H104      -56.2624  -27.4381   17.9027 H         1 UNK         0.0798 
    105 H105      -56.7439  -28.9221   17.0821 H         1 UNK         0.0798 
    106 H106      -53.3361  -27.6483   16.7497 H         1 UNK         0.3198 
    107 H107      -52.2848  -29.3884   18.1850 H         1 UNK         0.0843 
    108 H108      -52.3058  -32.0437   16.6506 H         1 UNK         0.0831 
    109 H109      -52.9801  -31.7797   18.2521 H         1 UNK         0.0831 
    110 H110      -51.2489  -31.6337   18.0020 H         1 UNK         0.0831 
    111 H111      -50.9588  -30.2274   15.7178 H         1 UNK         0.3133 
    112 H112      -49.0386  -28.4768   15.2332 H         1 UNK         0.0566 
    113 H113      -49.7748  -28.3384   12.8499 H         1 UNK         0.0814 
    114 H114      -51.4264  -27.9980   13.3494 H         1 UNK         0.0814 
    115 H115      -50.7037  -29.5708   13.6703 H         1 UNK         0.0814 
    116 H116      -50.6433  -25.9950   14.8436 H         1 UNK         0.3091 
    117 H117      -48.0709  -24.0422   16.0657 H         1 UNK         0.0702 
    118 H118      -47.1932  -23.9821   13.7224 H         1 UNK         0.0785 
    119 H119      -48.1477  -22.5574   14.1063 H         1 UNK         0.0785 
    120 H120      -48.8388  -23.8366   13.1169 H         1 UNK         0.0785 
    121 H121      -50.6279  -23.5312   14.7449 H         1 UNK         0.2998 
    122 H122      -52.6409  -24.5821   17.2897 H         1 UNK         0.0697 
    123 H123      -51.9868  -21.5847   17.3639 H         1 UNK         0.0825 
    124 H124      -51.9664  -22.6675   18.7481 H         1 UNK         0.0825 
    125 H125      -53.4819  -22.3304   17.9328 H         1 UNK         0.0825 
    126 H126      -53.1988  -22.5138   15.4196 H         1 UNK         0.3029 
    127 H127      -54.7806  -24.4879   13.3348 H         1 UNK         0.0897 
    128 H128      -53.5410  -21.6832   13.5078 H         1 UNK         0.0792 
    129 H129      -54.9966  -22.2278   14.3464 H         1 UNK         0.0792 
    130 H130      -54.9785  -22.1260   12.6005 H         1 UNK         0.0792 
    131 H131      -53.6548  -24.6640   11.4526 H         1 UNK         0.3086 
    132 H132      -52.0437  -24.7587    9.9661 H         1 UNK         0.0583 
    133 H133      -52.8806  -22.4459    9.4767 H         1 UNK         0.1020 
    134 H134      -51.3059  -21.7866    9.8132 H         1 UNK         0.1020 
    135 H135      -53.6516  -22.5262    7.2293 H         1 UNK         0.0694 
    136 H136      -52.7795  -23.0329    5.8092 H         1 UNK         0.0694 
    137 H137      -49.4452  -23.5529    9.8931 H         1 UNK         0.2989 
    138 H138      -47.5747  -24.6698   11.2501 H         1 UNK         0.1055 
    139 H139      -47.8720  -27.6826   10.7944 H         1 UNK         0.0806 
    140 H140      -47.7952  -26.8839   12.3594 H         1 UNK         0.0806 
    141 H141      -46.4002  -26.8523   11.2961 H         1 UNK         0.0806 
    142 H142      -47.1480  -26.2663    8.9078 H         1 UNK         0.3061 
    143 H143      -47.6719  -24.7945    6.5440 H         1 UNK         0.0734 
    144 H144      -45.6591  -22.5650    7.1486 H         1 UNK         0.0832 
    145 H145      -46.0496  -23.1699    5.5383 H         1 UNK         0.0832 
    146 H146      -47.2788  -22.3659    6.4997 H         1 UNK         0.0832 
    147 H147      -45.9995  -26.2103    6.5027 H         1 UNK         0.3156 
    148 H148      -42.9815  -26.3662    6.7713 H         1 UNK         0.0589 
    149 H149      -42.2211  -27.7710    8.7129 H         1 UNK         0.0808 
    150 H150      -42.2299  -26.0597    9.0983 H         1 UNK         0.0808 
    151 H151      -43.5159  -27.0941    9.7001 H         1 UNK         0.0808 
    152 H152      -44.0825  -28.1956    6.2225 H         1 UNK         0.3098 
    153 H153      -45.5264  -29.7545    6.0156 H         1 UNK         0.0720 
    154 H154      -46.3439  -30.9070    8.7393 H         1 UNK         0.0791 
    155 H155      -44.7766  -31.1339    7.9742 H         1 UNK         0.0791 
    156 H156      -46.2176  -31.8050    7.2267 H         1 UNK         0.0791 
    157 H157      -48.0921  -30.0929    7.1517 H         1 UNK         0.3028 
@<TRIPOS>BOND
     1    1    2 1    
     2    1   82 1    
     3    1   83 1    
     4    1   84 1    
     5    2    3 2    
     6    2    4 am   BACKBONE|DICT|INTERRES
     7    4    5 1    
     8    4   85 1    
     9    5    6 1    
    10    5   80 1    
    11    5   86 1    
    12    6    7 1    
    13    6   87 1    
    14    6   88 1    
    15    7    8 1    
    16    8    9 1    
    17    8   89 1    
    18    8   90 1    
    19    9   10 ar   
    20    9   14 ar   
    21   10   11 ar   
    22   10   91 1    
    23   11   12 ar   
    24   11   58 1    
    25   12   13 ar   
    26   12   92 1    
    27   13   14 ar   
    28   13   15 1    
    29   14   93 1    
    30   15   16 1    
    31   15   94 1    
    32   15   95 1    
    33   16   17 1    
    34   17   18 1    
    35   17   96 1    
    36   17   97 1    
    37   18   19 1    
    38   18   22 1    
    39   18   98 1    
    40   19   20 am   BACKBONE|DICT|INTERRES
    41   19   21 2    
    42   20   99 1    
    43   20  100 1    
    44   22   23 am   BACKBONE|DICT|INTERRES
    45   22  101 1    
    46   23   24 2    
    47   23   25 1    
    48   25   26 1    
    49   25   27 1    
    50   25  102 1    
    51   26  103 1    
    52   26  104 1    
    53   26  105 1    
    54   27   28 am   BACKBONE|DICT|INTERRES
    55   27  106 1    
    56   28   29 2    
    57   28   30 1    
    58   30   31 1    
    59   30   32 1    
    60   30  107 1    
    61   31  108 1    
    62   31  109 1    
    63   31  110 1    
    64   32   33 am   BACKBONE|DICT|INTERRES
    65   32  111 1    
    66   33   34 2    
    67   33   35 1    
    68   35   36 1    
    69   35   37 1    
    70   35  112 1    
    71   36  113 1    
    72   36  114 1    
    73   36  115 1    
    74   37   38 am   BACKBONE|DICT|INTERRES
    75   37  116 1    
    76   38   39 2    
    77   38   40 1    
    78   40   41 1    
    79   40   42 1    
    80   40  117 1    
    81   41  118 1    
    82   41  119 1    
    83   41  120 1    
    84   42   43 am   BACKBONE|DICT|INTERRES
    85   42  121 1    
    86   43   44 2    
    87   43   45 1    
    88   45   46 1    
    89   45   47 1    
    90   45  122 1    
    91   46  123 1    
    92   46  124 1    
    93   46  125 1    
    94   47   48 am   BACKBONE|DICT|INTERRES
    95   47  126 1    
    96   48   49 2    
    97   48   50 1    
    98   50   51 1    
    99   50   52 1    
   100   50  127 1    
   101   51  128 1    
   102   51  129 1    
   103   51  130 1    
   104   52   53 am   BACKBONE|DICT|INTERRES
   105   52  131 1    
   106   53   54 2    
   107   53   55 1    
   108   55   56 1    
   109   55   59 1    
   110   55  132 1    
   111   56   57 1    
   112   56  133 1    
   113   56  134 1    
   114   57   58 1    
   115   58  135 1    
   116   58  136 1    
   117   59   60 am   BACKBONE|DICT|INTERRES
   118   59  137 1    
   119   60   61 2    
   120   60   62 1    
   121   62   63 1    
   122   62   64 1    
   123   62  138 1    
   124   63  139 1    
   125   63  140 1    
   126   63  141 1    
   127   64   65 am   BACKBONE|DICT|INTERRES
   128   64  142 1    
   129   65   66 2    
   130   65   67 1    
   131   67   68 1    
   132   67   69 1    
   133   67  143 1    
   134   68  144 1    
   135   68  145 1    
   136   68  146 1    
   137   69   70 am   BACKBONE|DICT|INTERRES
   138   69  147 1    
   139   70   71 2    
   140   70   72 1    
   141   72   73 1    
   142   72   74 1    
   143   72  148 1    
   144   73  149 1    
   145   73  150 1    
   146   73  151 1    
   147   74   75 am   BACKBONE|DICT|INTERRES
   148   74  152 1    
   149   75   76 2    
   150   75   77 1    
   151   77   78 1    
   152   77   79 1    
   153   77  153 1    
   154   78  154 1    
   155   78  155 1    
   156   78  156 1    
   157   79   80 am   BACKBONE|DICT|INTERRES
   158   79  157 1    
   159   80   81 2    
@<TRIPOS>SUBSTRUCTURE
     1 UNK         1 GROUP             0       ****    0 ROOT    
