@<TRIPOS>MOLECULE
3R207
157   159    1
SMALL
USER_CHARGES


@<TRIPOS>ATOM
      1 CA        -45.4297  -27.6763    5.6792 C.3       0 UNK        -0.1975 
      2 C         -46.9487  -27.6403    5.6004 C.2       0 UNK         0.4852 
      3 O         -47.5018  -26.9468    4.7461 O.2       0 UNK        -0.5216 
      4 N         -47.6246  -28.3891    6.4796 N.am      1 UNK        -0.4461 
      5 CA        -49.0842  -28.4494    6.5746 C.3       1 UNK         0.0864 
      6 C6        -49.5702  -29.6399    7.4358 C.3       14 UNK        -0.0898 
      7 S7        -48.8674  -31.2707    6.9968 S.3       14 UNK        -0.2598 
      8 C8        -50.1305  -32.4456    7.6177 C.3       14 UNK         0.0286 
      9 C9        -50.7885  -31.9648    8.9049 C.ar      14 UNK        -0.0844 
     10 C10       -50.0960  -32.0022   10.1168 C.ar      14 UNK        -0.0881 
     11 C11       -50.6328  -31.4061   11.2665 C.ar      14 UNK        -0.0643 
     12 C12       -51.8958  -30.8017   11.1942 C.ar      14 UNK        -0.0930 
     13 C13       -52.6103  -30.7864    9.9901 C.ar      14 UNK        -0.0827 
     14 C14       -52.0609  -31.3939    8.8598 C.ar      14 UNK        -0.1249 
     15 C15       -53.9488  -30.0709    9.8671 C.3       14 UNK         0.0141 
     16 S16       -53.7872  -28.6184    8.7789 S.3       14 UNK        -0.2313 
     17 C17       -55.5173  -28.1487    8.4557 C.3       14 UNK        -0.0915 
     18 CA        -55.8744  -26.7843    9.1034 C.3       13 UNK         0.0968 
     19 C         -57.1782  -26.1808    8.5046 C.2       13 UNK         0.5732 
     20 N         -58.1569  -25.7735    9.3049 N.am      13 UNK        -0.7310 
     21 O         -57.2992  -26.0585    7.2881 O.2       13 UNK        -0.5035 
     22 N         -55.9064  -26.8936   10.5705 N.am      13 UNK        -0.4233 
     23 C         -55.2442  -26.1043   11.4215 C.2       13 UNK         0.4989 
     24 O         -54.5041  -25.1796   11.0767 O.2       13 UNK        -0.4996 
     25 CA        -55.4540  -26.4229   12.9096 C.3       12 UNK         0.0216 
     26 CB        -54.9908  -27.8538   13.2462 C.3       12 UNK        -0.1964 
     27 N         -54.6991  -25.4926   13.7439 N.am      12 UNK        -0.4276 
     28 C         -55.2051  -24.6692   14.6676 C.2       12 UNK         0.5020 
     29 O         -56.4101  -24.5379   14.8954 O.2       12 UNK        -0.5489 
     30 CA        -54.1605  -23.9058   15.5050 C.3       11 UNK         0.0294 
     31 CB        -54.7767  -23.0377   16.6228 C.3       11 UNK        -0.2019 
     32 N         -53.1446  -24.8256   16.0343 N.am      11 UNK        -0.4493 
     33 C         -53.3325  -25.8548   16.8766 C.2       11 UNK         0.4932 
     34 O         -54.3916  -26.0907   17.4585 O.2       11 UNK        -0.5029 
     35 CA        -52.1483  -26.8166   17.0869 C.3       10 UNK         0.0280 
     36 CB        -52.3473  -28.0879   16.2446 C.3       10 UNK        -0.1976 
     37 N         -50.8460  -26.2332   16.7595 N.am      10 UNK        -0.4242 
     38 C         -50.2194  -25.2963   17.4846 C.2       10 UNK         0.5072 
     39 O         -50.6549  -24.8354   18.5403 O.2       10 UNK        -0.5224 
     40 CA        -48.8874  -24.7746   16.9232 C.3       9 UNK         0.0343 
     41 CB        -47.7329  -25.7271   17.2756 C.3       9 UNK        -0.2003 
     42 N         -48.9401  -24.5826   15.4726 N.am      9 UNK        -0.4272 
     43 C         -49.5971  -23.5861   14.8617 C.2       9 UNK         0.4988 
     44 O         -50.2045  -22.6955   15.4555 O.2       9 UNK        -0.5108 
     45 CA        -49.5841  -23.5950   13.3248 C.3       8 UNK         0.0248 
     46 CB        -48.2731  -22.9829   12.8045 C.3       8 UNK        -0.2001 
     47 N         -49.7592  -24.9418   12.7739 N.am      8 UNK        -0.4140 
     48 C         -50.9020  -25.6422   12.8554 C.2       8 UNK         0.5028 
     49 O         -51.9339  -25.2056   13.3621 O.2       8 UNK        -0.5428 
     50 CA        -50.9008  -27.0844   12.3179 C.3       7 UNK         0.0264 
     51 CB        -51.2761  -27.0920   10.8322 C.3       7 UNK        -0.1988 
     52 N         -49.6277  -27.7807   12.4781 N.am      7 UNK        -0.4454 
     53 C         -48.9631  -27.9528   13.6285 C.2       7 UNK         0.5027 
     54 O         -49.3949  -27.6039   14.7273 O.2       7 UNK        -0.5083 
     55 CA        -47.5514  -28.5660   13.5289 C.3       6 UNK         0.0844 
     56 C56       -47.5991  -30.0934   13.8052 C.3       14 UNK        -0.0967 
     57 S57       -48.0647  -31.0874   12.3410 S.3       14 UNK        -0.2604 
     58 C58       -49.8523  -31.3869   12.5817 C.3       14 UNK         0.0134 
     59 N         -46.8486  -28.2574   12.2718 N.am      6 UNK        -0.4116 
     60 C         -46.6945  -27.0605   11.6854 C.2       5 UNK         0.5034 
     61 O         -47.0998  -26.0052   12.1777 O.2       5 UNK        -0.5045 
     62 CA        -46.0182  -27.0515   10.3011 C.3       5 UNK         0.0224 
     63 CB        -46.1397  -28.3946    9.5525 C.3       5 UNK        -0.1978 
     64 N         -46.5802  -25.9890    9.4595 N.am      5 UNK        -0.4737 
     65 C         -46.0200  -24.7829    9.2951 C.2       4 UNK         0.5027 
     66 O         -44.9445  -24.4549    9.7978 O.2       4 UNK        -0.5211 
     67 CA        -46.7703  -23.7623    8.4290 C.3       4 UNK         0.0297 
     68 CB        -46.5497  -24.0320    6.9328 C.3       4 UNK        -0.1993 
     69 N         -48.2064  -23.7455    8.7160 N.am      4 UNK        -0.4486 
     70 C         -48.9099  -22.6372    8.9897 C.2       3 UNK         0.4961 
     71 O         -48.4085  -21.5127    9.0410 O.2       3 UNK        -0.5105 
     72 CA        -50.4177  -22.7924    9.2881 C.3       3 UNK         0.0299 
     73 CB        -51.2357  -21.5607    8.8450 C.3       3 UNK        -0.1972 
     74 N         -51.0258  -24.0237    8.7726 N.am      3 UNK        -0.4305 
     75 C         -51.1024  -24.4270    7.4961 C.2       2 UNK         0.5006 
     76 O         -50.6655  -23.7992    6.5299 O.2       2 UNK        -0.5106 
     77 CA        -51.7827  -25.7866    7.2752 C.3       2 UNK         0.0296 
     78 CB        -53.0157  -25.6424    6.3669 C.3       2 UNK        -0.2002 
     79 N         -50.8929  -26.8160    6.7285 N.am      2 UNK        -0.4032 
     80 C         -49.6692  -27.1499    7.1688 C.2       1 UNK         0.5000 
     81 O         -49.0505  -26.5507    8.0588 O.2       1 UNK        -0.5238 
     82 H82       -45.0616  -26.8112    6.2302 H         1 UNK         0.0889 
     83 H83       -44.9982  -27.6531    4.6788 H         1 UNK         0.0889 
     84 H84       -45.0728  -28.5786    6.1753 H         1 UNK         0.0889 
     85 H85       -47.1256  -28.9563    7.1478 H         1 UNK         0.3028 
     86 H86       -49.4737  -28.5774    5.5621 H         1 UNK         0.0864 
     87 H87       -50.6554  -29.7025    7.3481 H         1 UNK         0.0720 
     88 H88       -49.3586  -29.4688    8.4938 H         1 UNK         0.0720 
     89 H89       -49.6652  -33.4185    7.7820 H         1 UNK         0.0814 
     90 H90       -50.8816  -32.5952    6.8405 H         1 UNK         0.0814 
     91 H91       -49.1123  -32.4497   10.1455 H         1 UNK         0.1469 
     92 H92       -52.3132  -30.3228   12.0692 H         1 UNK         0.1381 
     93 H93       -52.5979  -31.3521    7.9218 H         1 UNK         0.1206 
     94 H94       -54.3180  -29.7540   10.8429 H         1 UNK         0.0813 
     95 H95       -54.6870  -30.7606    9.4556 H         1 UNK         0.0813 
     96 H96       -56.1944  -28.9328    8.7983 H         1 UNK         0.0638 
     97 H97       -55.6266  -28.1064    7.3706 H         1 UNK         0.0638 
     98 H98       -55.0956  -26.0769    8.8128 H         1 UNK         0.0568 
     99 H99       -58.0673  -25.8381   10.3055 H         1 UNK         0.3450 
    100 H100      -58.9901  -25.3782    8.8983 H         1 UNK         0.3450 
    101 H101      -56.5059  -27.6173   10.9382 H         1 UNK         0.2987 
    102 H102      -56.5220  -26.3379   13.1201 H         1 UNK         0.0766 
    103 H103      -55.0482  -28.0451   14.3182 H         1 UNK         0.0798 
    104 H104      -53.9626  -28.0304   12.9314 H         1 UNK         0.0798 
    105 H105      -55.6152  -28.6021   12.7578 H         1 UNK         0.0798 
    106 H106      -53.6955  -25.4424   13.5601 H         1 UNK         0.3198 
    107 H107      -53.6404  -23.2376   14.8163 H         1 UNK         0.0843 
    108 H108      -55.3636  -23.6302   17.3250 H         1 UNK         0.0831 
    109 H109      -55.4423  -22.2826   16.2034 H         1 UNK         0.0831 
    110 H110      -54.0054  -22.5140   17.1874 H         1 UNK         0.0831 
    111 H111      -52.2482  -24.7749   15.5667 H         1 UNK         0.3133 
    112 H112      -52.1370  -27.1023   18.1408 H         1 UNK         0.0566 
    113 H113      -51.5482  -28.8092   16.4171 H         1 UNK         0.0814 
    114 H114      -53.2885  -28.5799   16.4938 H         1 UNK         0.0814 
    115 H115      -52.3700  -27.8622   15.1784 H         1 UNK         0.0814 
    116 H116      -50.3709  -26.6087   15.9407 H         1 UNK         0.3091 
    117 H117      -48.6835  -23.8082   17.3898 H         1 UNK         0.0702 
    118 H118      -46.7759  -25.3336   16.9325 H         1 UNK         0.0785 
    119 H119      -47.8684  -26.7140   16.8317 H         1 UNK         0.0785 
    120 H120      -47.6580  -25.8637   18.3553 H         1 UNK         0.0785 
    121 H121      -48.4969  -25.2889   14.9025 H         1 UNK         0.2998 
    122 H122      -50.4142  -22.9772   12.9755 H         1 UNK         0.0697 
    123 H123      -47.3981  -23.5096   13.1874 H         1 UNK         0.0825 
    124 H124      -48.1831  -21.9397   13.1100 H         1 UNK         0.0825 
    125 H125      -48.2190  -23.0089   11.7185 H         1 UNK         0.0825 
    126 H126      -48.9276  -25.3871   12.3943 H         1 UNK         0.3029 
    127 H127      -51.6508  -27.6487   12.8725 H         1 UNK         0.0897 
    128 H128      -50.5562  -26.5301   10.2386 H         1 UNK         0.0792 
    129 H129      -52.2590  -26.6476   10.6762 H         1 UNK         0.0792 
    130 H130      -51.3119  -28.1048   10.4328 H         1 UNK         0.0792 
    131 H131      -49.1947  -28.1248   11.6340 H         1 UNK         0.3086 
    132 H132      -46.9674  -28.1020   14.3262 H         1 UNK         0.0583 
    133 H133      -46.6057  -30.4252   14.1112 H         1 UNK         0.1020 
    134 H134      -48.2483  -30.3345   14.6502 H         1 UNK         0.1020 
    135 H135      -49.9869  -32.3419   13.0908 H         1 UNK         0.0694 
    136 H136      -50.2616  -30.6225   13.2433 H         1 UNK         0.0694 
    137 H137      -46.5048  -29.0683   11.7778 H         1 UNK         0.2989 
    138 H138      -44.9563  -26.8673   10.4782 H         1 UNK         0.1055 
    139 H139      -45.6398  -29.2044   10.0853 H         1 UNK         0.0806 
    140 H140      -45.6597  -28.3329    8.5774 H         1 UNK         0.0806 
    141 H141      -47.1806  -28.6836    9.4027 H         1 UNK         0.0806 
    142 H142      -47.4699  -26.1898    9.0090 H         1 UNK         0.3061 
    143 H143      -46.3277  -22.7902    8.6565 H         1 UNK         0.0734 
    144 H144      -47.0541  -24.9429    6.6143 H         1 UNK         0.0832 
    145 H145      -46.9361  -23.2131    6.3261 H         1 UNK         0.0832 
    146 H146      -45.4893  -24.1384    6.7001 H         1 UNK         0.0832 
    147 H147      -48.6900  -24.6361    8.6623 H         1 UNK         0.3156 
    148 H148      -50.4959  -22.8593   10.3739 H         1 UNK         0.0589 
    149 H149      -51.1552  -21.3882    7.7712 H         1 UNK         0.0808 
    150 H150      -52.2918  -21.6768    9.0883 H         1 UNK         0.0808 
    151 H151      -50.8891  -20.6561    9.3461 H         1 UNK         0.0808 
    152 H152      -51.4334  -24.6213    9.4772 H         1 UNK         0.3098 
    153 H153      -52.1334  -26.1579    8.2386 H         1 UNK         0.0720 
    154 H154      -53.5687  -26.5791    6.2930 H         1 UNK         0.0791 
    155 H155      -52.7390  -25.3337    5.3579 H         1 UNK         0.0791 
    156 H156      -53.7049  -24.8936    6.7597 H         1 UNK         0.0791 
    157 H157      -51.2918  -27.3752    5.9892 H         1 UNK         0.3028 
@<TRIPOS>BOND
     1    1    2 1    
     2    1   82 1    
     3    1   83 1    
     4    1   84 1    
     5    2    3 2    
     6    2    4 am   BACKBONE|DICT|INTERRES
     7    4    5 1    
     8    4   85 1    
     9    5    6 1    
    10    5   80 1    
    11    5   86 1    
    12    6    7 1    
    13    6   87 1    
    14    6   88 1    
    15    7    8 1    
    16    8    9 1    
    17    8   89 1    
    18    8   90 1    
    19    9   10 ar   
    20    9   14 ar   
    21   10   11 ar   
    22   10   91 1    
    23   11   12 ar   
    24   11   58 1    
    25   12   13 ar   
    26   12   92 1    
    27   13   14 ar   
    28   13   15 1    
    29   14   93 1    
    30   15   16 1    
    31   15   94 1    
    32   15   95 1    
    33   16   17 1    
    34   17   18 1    
    35   17   96 1    
    36   17   97 1    
    37   18   19 1    
    38   18   22 1    
    39   18   98 1    
    40   19   20 am   BACKBONE|DICT|INTERRES
    41   19   21 2    
    42   20   99 1    
    43   20  100 1    
    44   22   23 am   BACKBONE|DICT|INTERRES
    45   22  101 1    
    46   23   24 2    
    47   23   25 1    
    48   25   26 1    
    49   25   27 1    
    50   25  102 1    
    51   26  103 1    
    52   26  104 1    
    53   26  105 1    
    54   27   28 am   BACKBONE|DICT|INTERRES
    55   27  106 1    
    56   28   29 2    
    57   28   30 1    
    58   30   31 1    
    59   30   32 1    
    60   30  107 1    
    61   31  108 1    
    62   31  109 1    
    63   31  110 1    
    64   32   33 am   BACKBONE|DICT|INTERRES
    65   32  111 1    
    66   33   34 2    
    67   33   35 1    
    68   35   36 1    
    69   35   37 1    
    70   35  112 1    
    71   36  113 1    
    72   36  114 1    
    73   36  115 1    
    74   37   38 am   BACKBONE|DICT|INTERRES
    75   37  116 1    
    76   38   39 2    
    77   38   40 1    
    78   40   41 1    
    79   40   42 1    
    80   40  117 1    
    81   41  118 1    
    82   41  119 1    
    83   41  120 1    
    84   42   43 am   BACKBONE|DICT|INTERRES
    85   42  121 1    
    86   43   44 2    
    87   43   45 1    
    88   45   46 1    
    89   45   47 1    
    90   45  122 1    
    91   46  123 1    
    92   46  124 1    
    93   46  125 1    
    94   47   48 am   BACKBONE|DICT|INTERRES
    95   47  126 1    
    96   48   49 2    
    97   48   50 1    
    98   50   51 1    
    99   50   52 1    
   100   50  127 1    
   101   51  128 1    
   102   51  129 1    
   103   51  130 1    
   104   52   53 am   BACKBONE|DICT|INTERRES
   105   52  131 1    
   106   53   54 2    
   107   53   55 1    
   108   55   56 1    
   109   55   59 1    
   110   55  132 1    
   111   56   57 1    
   112   56  133 1    
   113   56  134 1    
   114   57   58 1    
   115   58  135 1    
   116   58  136 1    
   117   59   60 am   BACKBONE|DICT|INTERRES
   118   59  137 1    
   119   60   61 2    
   120   60   62 1    
   121   62   63 1    
   122   62   64 1    
   123   62  138 1    
   124   63  139 1    
   125   63  140 1    
   126   63  141 1    
   127   64   65 am   BACKBONE|DICT|INTERRES
   128   64  142 1    
   129   65   66 2    
   130   65   67 1    
   131   67   68 1    
   132   67   69 1    
   133   67  143 1    
   134   68  144 1    
   135   68  145 1    
   136   68  146 1    
   137   69   70 am   BACKBONE|DICT|INTERRES
   138   69  147 1    
   139   70   71 2    
   140   70   72 1    
   141   72   73 1    
   142   72   74 1    
   143   72  148 1    
   144   73  149 1    
   145   73  150 1    
   146   73  151 1    
   147   74   75 am   BACKBONE|DICT|INTERRES
   148   74  152 1    
   149   75   76 2    
   150   75   77 1    
   151   77   78 1    
   152   77   79 1    
   153   77  153 1    
   154   78  154 1    
   155   78  155 1    
   156   78  156 1    
   157   79   80 am   BACKBONE|DICT|INTERRES
   158   79  157 1    
   159   80   81 2    
@<TRIPOS>SUBSTRUCTURE
     1 UNK         1 GROUP             0       ****    0 ROOT    
