@<TRIPOS>MOLECULE
3R207
157   159    1
SMALL
USER_CHARGES


@<TRIPOS>ATOM
      1 CA        -46.9214  -29.7872    8.9116 C.3       0 UNK        -0.1975 
      2 C         -47.6509  -29.8194    7.5793 C.2       0 UNK         0.4852 
      3 O         -47.0390  -29.5911    6.5360 O.2       0 UNK        -0.5216 
      4 N         -48.9621  -30.0917    7.6088 N.am      1 UNK        -0.4461 
      5 CA        -49.8350  -30.1502    6.4241 C.3       1 UNK         0.0864 
      6 C6        -51.0761  -31.0707    6.6206 C.3       14 UNK        -0.0898 
      7 S7        -50.7829  -32.5320    7.6839 S.3       14 UNK        -0.2598 
      8 C8        -51.8303  -32.1734    9.1373 C.3       14 UNK         0.0286 
      9 C9        -51.5304  -30.8185    9.7700 C.ar      14 UNK        -0.0844 
     10 C10       -50.4302  -30.6515   10.6152 C.ar      14 UNK        -0.0881 
     11 C11       -50.1558  -29.4098   11.2004 C.ar      14 UNK        -0.0643 
     12 C12       -51.0026  -28.3274   10.9164 C.ar      14 UNK        -0.0930 
     13 C13       -52.1185  -28.4816   10.0859 C.ar      14 UNK        -0.0827 
     14 C14       -52.3712  -29.7319    9.5198 C.ar      14 UNK        -0.1249 
     15 C15       -53.0616  -27.3243    9.7605 C.3       14 UNK         0.0141 
     16 S16       -53.2699  -26.1162   11.1107 S.3       14 UNK        -0.2313 
     17 C17       -54.7988  -25.2659   10.5868 C.3       14 UNK        -0.0915 
     18 CA        -55.9780  -25.4869   11.5815 C.3       13 UNK         0.0968 
     19 C         -57.2767  -24.6975   11.2297 C.2       13 UNK         0.5732 
     20 N         -57.1798  -23.5724   10.5325 N.am      13 UNK        -0.7310 
     21 O         -58.3787  -25.0629   11.6362 O.2       13 UNK        -0.5035 
     22 N         -56.2163  -26.9089   11.8754 N.am      13 UNK        -0.4233 
     23 C         -56.7271  -27.8301   11.0457 C.2       13 UNK         0.4989 
     24 O         -57.0810  -27.5873    9.8908 O.2       13 UNK        -0.4996 
     25 CA        -56.8373  -29.2827   11.5598 C.3       12 UNK         0.0216 
     26 CB        -55.9569  -30.2219   10.7166 C.3       12 UNK        -0.1964 
     27 N         -56.4618  -29.4426   12.9669 N.am      12 UNK        -0.4276 
     28 C         -57.2264  -29.1320   14.0223 C.2       12 UNK         0.5020 
     29 O         -58.4003  -28.7714   13.9352 O.2       12 UNK        -0.5489 
     30 CA        -56.5546  -29.2032   15.4105 C.3       11 UNK         0.0294 
     31 CB        -56.9132  -30.5227   16.1130 C.3       11 UNK        -0.2019 
     32 N         -55.0911  -29.0522   15.3788 N.am      11 UNK        -0.4493 
     33 C         -54.4438  -27.9695   14.9242 C.2       11 UNK         0.4932 
     34 O         -55.0248  -26.9606   14.5172 O.2       11 UNK        -0.5029 
     35 CA        -52.9100  -28.0554   14.8602 C.3       10 UNK         0.0280 
     36 CB        -52.4629  -29.2468   13.9929 C.3       10 UNK        -0.1976 
     37 N         -52.3896  -26.8243   14.2667 N.am      10 UNK        -0.4242 
     38 C         -51.6896  -25.8819   14.9036 C.2       10 UNK         0.5072 
     39 O         -51.2564  -25.9912   16.0533 O.2       10 UNK        -0.5224 
     40 CA        -51.4946  -24.5694   14.1332 C.3       9 UNK         0.0343 
     41 CB        -52.7853  -23.7238   14.2065 C.3       9 UNK        -0.2003 
     42 N         -50.3500  -23.8446   14.6856 N.am      9 UNK        -0.4272 
     43 C         -49.8159  -22.7153   14.2050 C.2       9 UNK         0.4988 
     44 O         -50.2668  -22.0998   13.2399 O.2       9 UNK        -0.5108 
     45 CA        -48.5534  -22.1707   14.8960 C.3       8 UNK         0.0248 
     46 CB        -48.8869  -21.4592   16.2229 C.3       8 UNK        -0.2001 
     47 N         -47.4901  -23.1728   15.0422 N.am      8 UNK        -0.4140 
     48 C         -47.4386  -24.2361   15.8548 C.2       8 UNK         0.5028 
     49 O         -48.3010  -24.5085   16.6908 O.2       8 UNK        -0.5428 
     50 CA        -46.2532  -25.1927   15.6282 C.3       7 UNK         0.0264 
     51 CB        -46.0638  -26.1862   16.7895 C.3       7 UNK        -0.1988 
     52 N         -46.4565  -25.9445   14.3892 N.am      7 UNK        -0.4454 
     53 C         -46.2796  -25.4598   13.1540 C.2       7 UNK         0.5027 
     54 O         -45.7902  -24.3486   12.9290 O.2       7 UNK        -0.5083 
     55 CA        -46.7716  -26.3555   12.0010 C.3       6 UNK         0.0844 
     56 C56       -48.3083  -26.5485   12.0334 C.3       14 UNK        -0.0967 
     57 S57       -48.8598  -27.8308   13.2063 S.3       14 UNK        -0.2604 
     58 C58       -48.9407  -29.3038   12.1291 C.3       14 UNK         0.0134 
     59 N         -46.3878  -25.7718   10.7201 N.am      6 UNK        -0.4116 
     60 C         -45.4297  -26.2177    9.9009 C.2       5 UNK         0.5034 
     61 O         -44.6938  -27.1697   10.1645 O.2       5 UNK        -0.5045 
     62 CA        -45.2774  -25.5092    8.5409 C.3       5 UNK         0.0224 
     63 CB        -45.4873  -26.5005    7.3830 C.3       5 UNK        -0.1978 
     64 N         -46.2298  -24.4076    8.3791 N.am      5 UNK        -0.4737 
     65 C         -45.9612  -23.1182    8.6213 C.2       4 UNK         0.5027 
     66 O         -44.8486  -22.7018    8.9433 O.2       4 UNK        -0.5211 
     67 CA        -47.1262  -22.1179    8.4877 C.3       4 UNK         0.0297 
     68 CB        -47.0456  -21.3831    7.1398 C.3       4 UNK        -0.1993 
     69 N         -48.4563  -22.7219    8.6240 N.am      4 UNK        -0.4486 
     70 C         -48.9378  -23.2815    9.7433 C.2       3 UNK         0.4961 
     71 O         -48.3033  -23.3658   10.7933 O.2       3 UNK        -0.5105 
     72 CA        -50.3367  -23.9166    9.6457 C.3       3 UNK         0.0299 
     73 CB        -51.4296  -22.8565    9.8493 C.3       3 UNK        -0.1972 
     74 N         -50.5715  -24.6237    8.3801 N.am      3 UNK        -0.4305 
     75 C         -49.8473  -25.6650    7.9509 C.2       2 UNK         0.5006 
     76 O         -48.8637  -26.1115    8.5477 O.2       2 UNK        -0.5106 
     77 CA        -50.2631  -26.3067    6.6247 C.3       2 UNK         0.0296 
     78 CB        -49.5017  -25.6650    5.4497 C.3       2 UNK        -0.2002 
     79 N         -49.9313  -27.7172    6.7504 N.am      2 UNK        -0.4032 
     80 C         -50.2741  -28.7397    5.9596 C.2       1 UNK         0.5000 
     81 O         -50.9285  -28.6144    4.9228 O.2       1 UNK        -0.5238 
     82 H82       -45.8529  -29.9473    8.7689 H         1 UNK         0.0889 
     83 H83       -47.2913  -30.5640    9.5801 H         1 UNK         0.0889 
     84 H84       -47.0573  -28.8166    9.3878 H         1 UNK         0.0889 
     85 H85       -49.4228  -30.2889    8.4880 H         1 UNK         0.3028 
     86 H86       -49.2487  -30.5753    5.6065 H         1 UNK         0.0864 
     87 H87       -51.4075  -31.4353    5.6469 H         1 UNK         0.0720 
     88 H88       -51.9283  -30.5143    7.0087 H         1 UNK         0.0720 
     89 H89       -51.6859  -32.9606    9.8787 H         1 UNK         0.0814 
     90 H90       -52.8788  -32.2305    8.8401 H         1 UNK         0.0814 
     91 H91       -49.7876  -31.4968   10.8226 H         1 UNK         0.1469 
     92 H92       -50.8147  -27.3602   11.3534 H         1 UNK         0.1381 
     93 H93       -53.2296  -29.8601    8.8745 H         1 UNK         0.1206 
     94 H94       -52.6952  -26.8061    8.8744 H         1 UNK         0.0813 
     95 H95       -54.0443  -27.7228    9.5039 H         1 UNK         0.0813 
     96 H96       -54.5575  -24.2052   10.5153 H         1 UNK         0.0638 
     97 H97       -55.0801  -25.5829    9.5814 H         1 UNK         0.0638 
     98 H98       -55.6671  -25.0627   12.5363 H         1 UNK         0.0568 
     99 H99       -56.2891  -23.2353   10.2050 H         1 UNK         0.3450 
    100 H100      -58.0188  -23.0532   10.3266 H         1 UNK         0.3450 
    101 H101      -55.9614  -27.1822   12.8177 H         1 UNK         0.2987 
    102 H102      -57.8788  -29.5879   11.4390 H         1 UNK         0.0766 
    103 H103      -56.2023  -30.1499    9.6561 H         1 UNK         0.0798 
    104 H104      -56.0951  -31.2634   11.0076 H         1 UNK         0.0798 
    105 H105      -54.8991  -29.9816   10.8243 H         1 UNK         0.0798 
    106 H106      -55.5153  -29.7424   13.1480 H         1 UNK         0.3198 
    107 H107      -56.9569  -28.3791   16.0036 H         1 UNK         0.0843 
    108 H108      -56.5155  -31.3869   15.5793 H         1 UNK         0.0831 
    109 H109      -57.9951  -30.6493   16.1758 H         1 UNK         0.0831 
    110 H110      -56.5279  -30.5488   17.1325 H         1 UNK         0.0831 
    111 H111      -54.5490  -29.8381   15.7096 H         1 UNK         0.3133 
    112 H112      -52.5327  -28.1883   15.8759 H         1 UNK         0.0566 
    113 H113      -51.3775  -29.2847   13.9137 H         1 UNK         0.0814 
    114 H114      -52.7769  -30.2000   14.4184 H         1 UNK         0.0814 
    115 H115      -52.8673  -29.1882   12.9814 H         1 UNK         0.0814 
    116 H116      -52.7612  -26.6032   13.3511 H         1 UNK         0.3091 
    117 H117      -51.2721  -24.8090   13.0915 H         1 UNK         0.0702 
    118 H118      -52.7374  -22.8508   13.5565 H         1 UNK         0.0785 
    119 H119      -52.9786  -23.3775   15.2223 H         1 UNK         0.0785 
    120 H120      -53.6547  -24.3010   13.8892 H         1 UNK         0.0785 
    121 H121      -49.9139  -24.2860   15.4938 H         1 UNK         0.2998 
    122 H122      -48.1374  -21.4158   14.2265 H         1 UNK         0.0697 
    123 H123      -49.3526  -22.1295   16.9456 H         1 UNK         0.0825 
    124 H124      -49.5837  -20.6372   16.0541 H         1 UNK         0.0825 
    125 H125      -47.9932  -21.0376   16.6828 H         1 UNK         0.0825 
    126 H126      -46.7675  -23.1267   14.3302 H         1 UNK         0.3029 
    127 H127      -45.3435  -24.5933   15.5453 H         1 UNK         0.0897 
    128 H128      -45.1892  -26.8176   16.6321 H         1 UNK         0.0792 
    129 H129      -46.9300  -26.8380   16.9123 H         1 UNK         0.0792 
    130 H130      -45.9167  -25.6583   17.7327 H         1 UNK         0.0792 
    131 H131      -46.9225  -26.8380   14.4804 H         1 UNK         0.3086 
    132 H132      -46.2910  -27.3298   12.1114 H         1 UNK         0.0583 
    133 H133      -48.8242  -25.6131   12.2603 H         1 UNK         0.1020 
    134 H134      -48.6534  -26.8344   11.0398 H         1 UNK         0.1020 
    135 H135      -48.0268  -29.3547   11.5394 H         1 UNK         0.0694 
    136 H136      -48.9291  -30.1773   12.7827 H         1 UNK         0.0694 
    137 H137      -46.8912  -24.9295   10.4675 H         1 UNK         0.2989 
    138 H138      -44.2531  -25.1335    8.4880 H         1 UNK         0.1055 
    139 H139      -46.4983  -26.9089    7.3809 H         1 UNK         0.0806 
    140 H140      -44.7971  -27.3424    7.4510 H         1 UNK         0.0806 
    141 H141      -45.3189  -26.0233    6.4175 H         1 UNK         0.0806 
    142 H142      -47.1835  -24.6757    8.1681 H         1 UNK         0.3061 
    143 H143      -47.0130  -21.3822    9.2870 H         1 UNK         0.0734 
    144 H144      -47.8078  -20.6075    7.0623 H         1 UNK         0.0832 
    145 H145      -46.0774  -20.8946    7.0194 H         1 UNK         0.0832 
    146 H146      -47.1713  -22.0662    6.2988 H         1 UNK         0.0832 
    147 H147      -49.0461  -22.7138    7.8046 H         1 UNK         0.3156 
    148 H148      -50.4226  -24.6494   10.4509 H         1 UNK         0.0589 
    149 H149      -52.4210  -23.3070    9.8635 H         1 UNK         0.0808 
    150 H150      -51.2991  -22.3408   10.8012 H         1 UNK         0.0808 
    151 H151      -51.4147  -22.0997    9.0642 H         1 UNK         0.0808 
    152 H152      -51.3540  -24.3094    7.8240 H         1 UNK         0.3098 
    153 H153      -51.3407  -26.2038    6.4839 H         1 UNK         0.0720 
    154 H154      -49.7835  -26.1146    4.4976 H         1 UNK         0.0791 
    155 H155      -48.4220  -25.7745    5.5631 H         1 UNK         0.0791 
    156 H156      -49.7177  -24.5985    5.3775 H         1 UNK         0.0791 
    157 H157      -49.3902  -27.9182    7.5830 H         1 UNK         0.3028 
@<TRIPOS>BOND
     1    1    2 1    
     2    1   82 1    
     3    1   83 1    
     4    1   84 1    
     5    2    3 2    
     6    2    4 am   BACKBONE|DICT|INTERRES
     7    4    5 1    
     8    4   85 1    
     9    5    6 1    
    10    5   80 1    
    11    5   86 1    
    12    6    7 1    
    13    6   87 1    
    14    6   88 1    
    15    7    8 1    
    16    8    9 1    
    17    8   89 1    
    18    8   90 1    
    19    9   10 ar   
    20    9   14 ar   
    21   10   11 ar   
    22   10   91 1    
    23   11   12 ar   
    24   11   58 1    
    25   12   13 ar   
    26   12   92 1    
    27   13   14 ar   
    28   13   15 1    
    29   14   93 1    
    30   15   16 1    
    31   15   94 1    
    32   15   95 1    
    33   16   17 1    
    34   17   18 1    
    35   17   96 1    
    36   17   97 1    
    37   18   19 1    
    38   18   22 1    
    39   18   98 1    
    40   19   20 am   BACKBONE|DICT|INTERRES
    41   19   21 2    
    42   20   99 1    
    43   20  100 1    
    44   22   23 am   BACKBONE|DICT|INTERRES
    45   22  101 1    
    46   23   24 2    
    47   23   25 1    
    48   25   26 1    
    49   25   27 1    
    50   25  102 1    
    51   26  103 1    
    52   26  104 1    
    53   26  105 1    
    54   27   28 am   BACKBONE|DICT|INTERRES
    55   27  106 1    
    56   28   29 2    
    57   28   30 1    
    58   30   31 1    
    59   30   32 1    
    60   30  107 1    
    61   31  108 1    
    62   31  109 1    
    63   31  110 1    
    64   32   33 am   BACKBONE|DICT|INTERRES
    65   32  111 1    
    66   33   34 2    
    67   33   35 1    
    68   35   36 1    
    69   35   37 1    
    70   35  112 1    
    71   36  113 1    
    72   36  114 1    
    73   36  115 1    
    74   37   38 am   BACKBONE|DICT|INTERRES
    75   37  116 1    
    76   38   39 2    
    77   38   40 1    
    78   40   41 1    
    79   40   42 1    
    80   40  117 1    
    81   41  118 1    
    82   41  119 1    
    83   41  120 1    
    84   42   43 am   BACKBONE|DICT|INTERRES
    85   42  121 1    
    86   43   44 2    
    87   43   45 1    
    88   45   46 1    
    89   45   47 1    
    90   45  122 1    
    91   46  123 1    
    92   46  124 1    
    93   46  125 1    
    94   47   48 am   BACKBONE|DICT|INTERRES
    95   47  126 1    
    96   48   49 2    
    97   48   50 1    
    98   50   51 1    
    99   50   52 1    
   100   50  127 1    
   101   51  128 1    
   102   51  129 1    
   103   51  130 1    
   104   52   53 am   BACKBONE|DICT|INTERRES
   105   52  131 1    
   106   53   54 2    
   107   53   55 1    
   108   55   56 1    
   109   55   59 1    
   110   55  132 1    
   111   56   57 1    
   112   56  133 1    
   113   56  134 1    
   114   57   58 1    
   115   58  135 1    
   116   58  136 1    
   117   59   60 am   BACKBONE|DICT|INTERRES
   118   59  137 1    
   119   60   61 2    
   120   60   62 1    
   121   62   63 1    
   122   62   64 1    
   123   62  138 1    
   124   63  139 1    
   125   63  140 1    
   126   63  141 1    
   127   64   65 am   BACKBONE|DICT|INTERRES
   128   64  142 1    
   129   65   66 2    
   130   65   67 1    
   131   67   68 1    
   132   67   69 1    
   133   67  143 1    
   134   68  144 1    
   135   68  145 1    
   136   68  146 1    
   137   69   70 am   BACKBONE|DICT|INTERRES
   138   69  147 1    
   139   70   71 2    
   140   70   72 1    
   141   72   73 1    
   142   72   74 1    
   143   72  148 1    
   144   73  149 1    
   145   73  150 1    
   146   73  151 1    
   147   74   75 am   BACKBONE|DICT|INTERRES
   148   74  152 1    
   149   75   76 2    
   150   75   77 1    
   151   77   78 1    
   152   77   79 1    
   153   77  153 1    
   154   78  154 1    
   155   78  155 1    
   156   78  156 1    
   157   79   80 am   BACKBONE|DICT|INTERRES
   158   79  157 1    
   159   80   81 2    
@<TRIPOS>SUBSTRUCTURE
     1 UNK         1 GROUP             0       ****    0 ROOT    
