@<TRIPOS>MOLECULE
3R207
157   159    1
SMALL
USER_CHARGES


@<TRIPOS>ATOM
      1 CA        -45.8196  -31.0013    8.3758 C.3       0 UNK        -0.1975 
      2 C         -46.1004  -29.5912    8.8842 C.2       0 UNK         0.4852 
      3 O         -45.9246  -29.3336   10.0731 O.2       0 UNK        -0.5216 
      4 N         -46.5225  -28.6465    8.0338 N.am      1 UNK        -0.4461 
      5 CA        -46.7734  -28.7780    6.5898 C.3       1 UNK         0.0864 
      6 C6        -48.1724  -28.2229    6.1998 C.3       14 UNK        -0.0898 
      7 S7        -49.5289  -28.8635    7.2330 S.3       14 UNK        -0.2598 
      8 C8        -50.9792  -28.2421    6.3290 C.3       14 UNK         0.0286 
      9 C9        -52.1862  -28.0677    7.2423 C.ar      14 UNK        -0.0844 
     10 C10       -52.7805  -26.8092    7.3908 C.ar      14 UNK        -0.0881 
     11 C11       -53.9211  -26.6503    8.1837 C.ar      14 UNK        -0.0643 
     12 C12       -54.4730  -27.7655    8.8169 C.ar      14 UNK        -0.0930 
     13 C13       -53.8704  -29.0198    8.7109 C.ar      14 UNK        -0.0827 
     14 C14       -52.7317  -29.1679    7.9138 C.ar      14 UNK        -0.1249 
     15 C15       -54.4753  -30.2104    9.4388 C.3       14 UNK         0.0141 
     16 S16       -54.4863  -29.9576   11.2473 S.3       14 UNK        -0.2313 
     17 C17       -56.2260  -30.3268   11.6635 C.3       14 UNK        -0.0915 
     18 CA        -57.0773  -29.0474   11.8857 C.3       13 UNK         0.0968 
     19 C         -58.5941  -29.3922   11.9441 C.2       13 UNK         0.5732 
     20 N         -59.2782  -29.2186   13.0691 N.am      13 UNK        -0.7310 
     21 O         -59.1634  -29.8183   10.9421 O.2       13 UNK        -0.5035 
     22 N         -56.5876  -28.2771   13.0382 N.am      13 UNK        -0.4233 
     23 C         -56.8246  -26.9846   13.2818 C.2       13 UNK         0.4989 
     24 O         -57.4532  -26.2534   12.5171 O.2       13 UNK        -0.4996 
     25 CA        -56.2533  -26.3857   14.5848 C.3       12 UNK         0.0216 
     26 CB        -57.2707  -26.5039   15.7358 C.3       12 UNK        -0.1964 
     27 N         -54.9305  -26.8950   14.9852 N.am      12 UNK        -0.4276 
     28 C         -54.5751  -28.1410   15.3373 C.2       12 UNK         0.5020 
     29 O         -55.3686  -29.0796   15.4187 O.2       12 UNK        -0.5489 
     30 CA        -53.0827  -28.4188   15.5790 C.3       11 UNK         0.0294 
     31 CB        -52.5053  -29.2582   14.4271 C.3       11 UNK        -0.2019 
     32 N         -52.2675  -27.2137   15.7445 N.am      11 UNK        -0.4493 
     33 C         -52.2372  -26.4723   16.8624 C.2       11 UNK         0.4932 
     34 O         -52.9773  -26.6719   17.8270 O.2       11 UNK        -0.5029 
     35 CA        -51.1957  -25.3345   16.9168 C.3       10 UNK         0.0280 
     36 CB        -50.8589  -24.8988   18.3581 C.3       10 UNK        -0.1976 
     37 N         -49.9692  -25.6387   16.1703 N.am      10 UNK        -0.4242 
     38 C         -49.1418  -26.6863   16.3328 C.2       10 UNK         0.5072 
     39 O         -49.2564  -27.5192   17.2329 O.2       10 UNK        -0.5224 
     40 CA        -48.0102  -26.8570   15.3023 C.3       9 UNK         0.0343 
     41 CB        -48.0655  -28.2487   14.6453 C.3       9 UNK        -0.2003 
     42 N         -48.0831  -25.8370   14.2531 N.am      9 UNK        -0.4272 
     43 C         -47.2395  -24.8040   14.1374 C.2       9 UNK         0.4988 
     44 O         -46.2477  -24.6404   14.8488 O.2       9 UNK        -0.5108 
     45 CA        -47.5612  -23.7594   13.0579 C.3       8 UNK         0.0248 
     46 CB        -46.9123  -24.1506   11.7212 C.3       8 UNK        -0.2001 
     47 N         -48.9935  -23.5123   12.8561 N.am      8 UNK        -0.4140 
     48 C         -49.8169  -22.9701   13.7663 C.2       8 UNK         0.5028 
     49 O         -49.4981  -22.7641   14.9366 O.2       8 UNK        -0.5428 
     50 CA        -51.2328  -22.5988   13.3047 C.3       7 UNK         0.0264 
     51 CB        -51.2000  -21.3376   12.4257 C.3       7 UNK        -0.1988 
     52 N         -51.8466  -23.6897   12.5545 N.am      7 UNK        -0.4454 
     53 C         -52.7896  -24.5139   13.0308 C.2       7 UNK         0.5027 
     54 O         -53.2837  -24.4363   14.1570 O.2       7 UNK        -0.5083 
     55 CA        -53.2300  -25.6678   12.1064 C.3       6 UNK         0.0844 
     56 C56       -54.3924  -25.2244   11.1812 C.3       14 UNK        -0.0967 
     57 S57       -53.8570  -24.3068    9.6912 S.3       14 UNK        -0.2604 
     58 C58       -54.5803  -25.2860    8.3341 C.3       14 UNK         0.0134 
     59 N         -52.1161  -26.2861   11.3831 N.am      6 UNK        -0.4116 
     60 C         -50.9728  -26.7197   11.9323 C.2       5 UNK         0.5034 
     61 O         -50.7467  -26.7323   13.1446 O.2       5 UNK        -0.5045 
     62 CA        -49.8617  -27.1546   10.9683 C.3       5 UNK         0.0224 
     63 CB        -49.9187  -28.6749   10.7597 C.3       5 UNK        -0.1978 
     64 N         -49.8577  -26.4708    9.6665 N.am      5 UNK        -0.4737 
     65 C         -49.8099  -25.1439    9.4672 C.2       4 UNK         0.5027 
     66 O         -49.9014  -24.3054   10.3663 O.2       4 UNK        -0.5211 
     67 CA        -49.6182  -24.6689    8.0159 C.3       4 UNK         0.0297 
     68 CB        -50.6509  -23.5901    7.6489 C.3       4 UNK        -0.1993 
     69 N         -48.2761  -24.1358    7.7539 N.am      4 UNK        -0.4486 
     70 C         -47.1187  -24.7765    7.9579 C.2       3 UNK         0.4961 
     71 O         -47.0248  -25.8938    8.4759 O.2       3 UNK        -0.5105 
     72 CA        -45.8433  -24.0733    7.4684 C.3       3 UNK         0.0299 
     73 CB        -45.2913  -23.1042    8.5252 C.3       3 UNK        -0.1972 
     74 N         -44.8753  -25.1329    7.2246 N.am      3 UNK        -0.4305 
     75 C         -44.1358  -25.3199    6.1265 C.2       2 UNK         0.5006 
     76 O         -43.9478  -24.4665    5.2592 O.2       2 UNK        -0.5106 
     77 CA        -43.5667  -26.7420    5.9493 C.3       2 UNK         0.0296 
     78 CB        -42.2362  -26.8993    6.7033 C.3       2 UNK        -0.2002 
     79 N         -44.5274  -27.7483    6.4221 N.am      2 UNK        -0.4032 
     80 C         -45.6685  -28.0559    5.7818 C.2       1 UNK         0.5000 
     81 O         -45.8847  -27.7373    4.6107 O.2       1 UNK        -0.5238 
     82 H82       -45.0853  -30.9892    7.5709 H         1 UNK         0.0889 
     83 H83       -46.7361  -31.4673    8.0142 H         1 UNK         0.0889 
     84 H84       -45.4232  -31.6252    9.1767 H         1 UNK         0.0889 
     85 H85       -46.7278  -27.7184    8.4005 H         1 UNK         0.3028 
     86 H86       -46.7452  -29.8234    6.2827 H         1 UNK         0.0864 
     87 H87       -48.1884  -27.1341    6.2708 H         1 UNK         0.0720 
     88 H88       -48.3968  -28.4647    5.1589 H         1 UNK         0.0720 
     89 H89       -51.2280  -28.9412    5.5295 H         1 UNK         0.0814 
     90 H90       -50.7291  -27.2976    5.8436 H         1 UNK         0.0814 
     91 H91       -52.3710  -25.9552    6.8708 H         1 UNK         0.1469 
     92 H92       -55.3737  -27.6631    9.4037 H         1 UNK         0.1381 
     93 H93       -52.2701  -30.1402    7.8071 H         1 UNK         0.1206 
     94 H94       -55.4858  -30.3636    9.0588 H         1 UNK         0.0813 
     95 H95       -53.9227  -31.1247    9.2179 H         1 UNK         0.0813 
     96 H96       -56.2314  -30.9391   12.5670 H         1 UNK         0.0638 
     97 H97       -56.6545  -30.9563   10.8820 H         1 UNK         0.0638 
     98 H98       -56.9610  -28.4170   11.0030 H         1 UNK         0.0568 
     99 H99       -58.8209  -28.8768   13.8984 H         1 UNK         0.3450 
    100 H100      -60.2606  -29.4423   13.0883 H         1 UNK         0.3450 
    101 H101      -56.1009  -28.8031   13.7603 H         1 UNK         0.2987 
    102 H102      -56.1041  -25.3221   14.3910 H         1 UNK         0.0766 
    103 H103      -56.9092  -26.0046   16.6349 H         1 UNK         0.0798 
    104 H104      -57.4812  -27.5424   15.9926 H         1 UNK         0.0798 
    105 H105      -58.2196  -26.0382   15.4663 H         1 UNK         0.0798 
    106 H106      -54.1887  -26.2034   14.9485 H         1 UNK         0.3198 
    107 H107      -53.0087  -29.0081   16.4957 H         1 UNK         0.0843 
    108 H108      -53.0299  -30.2105   14.3371 H         1 UNK         0.0831 
    109 H109      -51.4506  -29.4836   14.5854 H         1 UNK         0.0831 
    110 H110      -52.6005  -28.7490   13.4681 H         1 UNK         0.0831 
    111 H111      -51.6366  -26.9815   14.9832 H         1 UNK         0.3133 
    112 H112      -51.6519  -24.4813   16.4130 H         1 UNK         0.0566 
    113 H113      -50.1357  -24.0833   18.3659 H         1 UNK         0.0814 
    114 H114      -51.7492  -24.5447   18.8791 H         1 UNK         0.0814 
    115 H115      -50.4450  -25.7211   18.9426 H         1 UNK         0.0814 
    116 H116      -49.7403  -24.9767   15.4408 H         1 UNK         0.3091 
    117 H117      -47.0685  -26.7805   15.8493 H         1 UNK         0.0702 
    118 H118      -47.2784  -28.3674   13.9004 H         1 UNK         0.0785 
    119 H119      -49.0212  -28.4307   14.1541 H         1 UNK         0.0785 
    120 H120      -47.9288  -29.0363   15.3873 H         1 UNK         0.0785 
    121 H121      -48.8872  -25.8953   13.6390 H         1 UNK         0.2998 
    122 H122      -47.1172  -22.8153   13.3804 H         1 UNK         0.0697 
    123 H123      -47.2982  -25.0966   11.3409 H         1 UNK         0.0825 
    124 H124      -45.8325  -24.2607   11.8288 H         1 UNK         0.0825 
    125 H125      -47.0885  -23.3901   10.9608 H         1 UNK         0.0825 
    126 H126      -49.3479  -23.6924   11.9165 H         1 UNK         0.3029 
    127 H127      -51.8244  -22.3730   14.1950 H         1 UNK         0.0897 
    128 H128      -52.2071  -21.0244   12.1498 H         1 UNK         0.0792 
    129 H129      -50.7348  -20.5044   12.9542 H         1 UNK         0.0792 
    130 H130      -50.6375  -21.4973   11.5046 H         1 UNK         0.0792 
    131 H131      -51.4679  -23.8747   11.6307 H         1 UNK         0.3086 
    132 H132      -53.6166  -26.4550   12.7517 H         1 UNK         0.0583 
    133 H133      -55.1118  -24.6066   11.7234 H         1 UNK         0.1020 
    134 H134      -54.9654  -26.1006   10.8891 H         1 UNK         0.1020 
    135 H135      -55.6534  -25.3954    8.4991 H         1 UNK         0.0694 
    136 H136      -54.4743  -24.7246    7.4046 H         1 UNK         0.0694 
    137 H137      -52.1977  -26.3024   10.3762 H         1 UNK         0.2989 
    138 H138      -48.9123  -26.9200   11.4524 H         1 UNK         0.1055 
    139 H139      -49.9386  -29.2031   11.7143 H         1 UNK         0.0806 
    140 H140      -49.0438  -29.0324   10.2167 H         1 UNK         0.0806 
    141 H141      -50.8087  -28.9729   10.2037 H         1 UNK         0.0806 
    142 H142      -49.7653  -27.0767    8.8607 H         1 UNK         0.3061 
    143 H143      -49.7690  -25.5205    7.3510 H         1 UNK         0.0734 
    144 H144      -51.6663  -23.9389    7.8281 H         1 UNK         0.0832 
    145 H145      -50.5153  -22.6835    8.2403 H         1 UNK         0.0832 
    146 H146      -50.5871  -23.3176    6.5954 H         1 UNK         0.0832 
    147 H147      -48.2412  -23.2110    7.3501 H         1 UNK         0.3156 
    148 H148      -46.0637  -23.5354    6.5438 H         1 UNK         0.0589 
    149 H149      -45.0408  -23.6194    9.4529 H         1 UNK         0.0808 
    150 H150      -44.3888  -22.6077    8.1681 H         1 UNK         0.0808 
    151 H151      -46.0172  -22.3261    8.7645 H         1 UNK         0.0808 
    152 H152      -45.0040  -25.9178    7.8492 H         1 UNK         0.3098 
    153 H153      -43.3807  -26.9037    4.8852 H         1 UNK         0.0720 
    154 H154      -41.8069  -27.8890    6.5460 H         1 UNK         0.0791 
    155 H155      -42.3557  -26.7518    7.7774 H         1 UNK         0.0791 
    156 H156      -41.5037  -26.1702    6.3539 H         1 UNK         0.0791 
    157 H157      -44.4156  -28.0785    7.3698 H         1 UNK         0.3028 
@<TRIPOS>BOND
     1    1    2 1    
     2    1   82 1    
     3    1   83 1    
     4    1   84 1    
     5    2    3 2    
     6    2    4 am   BACKBONE|DICT|INTERRES
     7    4    5 1    
     8    4   85 1    
     9    5    6 1    
    10    5   80 1    
    11    5   86 1    
    12    6    7 1    
    13    6   87 1    
    14    6   88 1    
    15    7    8 1    
    16    8    9 1    
    17    8   89 1    
    18    8   90 1    
    19    9   10 ar   
    20    9   14 ar   
    21   10   11 ar   
    22   10   91 1    
    23   11   12 ar   
    24   11   58 1    
    25   12   13 ar   
    26   12   92 1    
    27   13   14 ar   
    28   13   15 1    
    29   14   93 1    
    30   15   16 1    
    31   15   94 1    
    32   15   95 1    
    33   16   17 1    
    34   17   18 1    
    35   17   96 1    
    36   17   97 1    
    37   18   19 1    
    38   18   22 1    
    39   18   98 1    
    40   19   20 am   BACKBONE|DICT|INTERRES
    41   19   21 2    
    42   20   99 1    
    43   20  100 1    
    44   22   23 am   BACKBONE|DICT|INTERRES
    45   22  101 1    
    46   23   24 2    
    47   23   25 1    
    48   25   26 1    
    49   25   27 1    
    50   25  102 1    
    51   26  103 1    
    52   26  104 1    
    53   26  105 1    
    54   27   28 am   BACKBONE|DICT|INTERRES
    55   27  106 1    
    56   28   29 2    
    57   28   30 1    
    58   30   31 1    
    59   30   32 1    
    60   30  107 1    
    61   31  108 1    
    62   31  109 1    
    63   31  110 1    
    64   32   33 am   BACKBONE|DICT|INTERRES
    65   32  111 1    
    66   33   34 2    
    67   33   35 1    
    68   35   36 1    
    69   35   37 1    
    70   35  112 1    
    71   36  113 1    
    72   36  114 1    
    73   36  115 1    
    74   37   38 am   BACKBONE|DICT|INTERRES
    75   37  116 1    
    76   38   39 2    
    77   38   40 1    
    78   40   41 1    
    79   40   42 1    
    80   40  117 1    
    81   41  118 1    
    82   41  119 1    
    83   41  120 1    
    84   42   43 am   BACKBONE|DICT|INTERRES
    85   42  121 1    
    86   43   44 2    
    87   43   45 1    
    88   45   46 1    
    89   45   47 1    
    90   45  122 1    
    91   46  123 1    
    92   46  124 1    
    93   46  125 1    
    94   47   48 am   BACKBONE|DICT|INTERRES
    95   47  126 1    
    96   48   49 2    
    97   48   50 1    
    98   50   51 1    
    99   50   52 1    
   100   50  127 1    
   101   51  128 1    
   102   51  129 1    
   103   51  130 1    
   104   52   53 am   BACKBONE|DICT|INTERRES
   105   52  131 1    
   106   53   54 2    
   107   53   55 1    
   108   55   56 1    
   109   55   59 1    
   110   55  132 1    
   111   56   57 1    
   112   56  133 1    
   113   56  134 1    
   114   57   58 1    
   115   58  135 1    
   116   58  136 1    
   117   59   60 am   BACKBONE|DICT|INTERRES
   118   59  137 1    
   119   60   61 2    
   120   60   62 1    
   121   62   63 1    
   122   62   64 1    
   123   62  138 1    
   124   63  139 1    
   125   63  140 1    
   126   63  141 1    
   127   64   65 am   BACKBONE|DICT|INTERRES
   128   64  142 1    
   129   65   66 2    
   130   65   67 1    
   131   67   68 1    
   132   67   69 1    
   133   67  143 1    
   134   68  144 1    
   135   68  145 1    
   136   68  146 1    
   137   69   70 am   BACKBONE|DICT|INTERRES
   138   69  147 1    
   139   70   71 2    
   140   70   72 1    
   141   72   73 1    
   142   72   74 1    
   143   72  148 1    
   144   73  149 1    
   145   73  150 1    
   146   73  151 1    
   147   74   75 am   BACKBONE|DICT|INTERRES
   148   74  152 1    
   149   75   76 2    
   150   75   77 1    
   151   77   78 1    
   152   77   79 1    
   153   77  153 1    
   154   78  154 1    
   155   78  155 1    
   156   78  156 1    
   157   79   80 am   BACKBONE|DICT|INTERRES
   158   79  157 1    
   159   80   81 2    
@<TRIPOS>SUBSTRUCTURE
     1 UNK         1 GROUP             0       ****    0 ROOT    
