@<TRIPOS>MOLECULE
3R207
157   159    1
SMALL
USER_CHARGES


@<TRIPOS>ATOM
      1 CA        -48.9238  -26.0666    3.6505 C.3       0 UNK        -0.1975 
      2 C         -48.9337  -27.5790    3.8610 C.2       0 UNK         0.4852 
      3 O         -47.9705  -28.2458    3.4857 O.2       0 UNK        -0.5216 
      4 N         -49.9935  -28.1681    4.4319 N.am      1 UNK        -0.4461 
      5 CA        -51.1757  -27.5107    4.9995 C.3       1 UNK         0.0864 
      6 C6        -52.3948  -28.4728    5.0156 C.3       14 UNK        -0.0898 
      7 S7        -52.1773  -29.9549    6.0640 S.3       14 UNK        -0.2598 
      8 C8        -53.1405  -29.4581    7.5275 C.3       14 UNK         0.0286 
      9 C9        -52.6766  -30.1679    8.7878 C.ar      14 UNK        -0.0844 
     10 C10       -51.3947  -29.9339    9.2965 C.ar      14 UNK        -0.0881 
     11 C11       -50.9810  -30.5270   10.4979 C.ar      14 UNK        -0.0643 
     12 C12       -51.8813  -31.3468   11.1874 C.ar      14 UNK        -0.0930 
     13 C13       -53.1687  -31.5795   10.6936 C.ar      14 UNK        -0.0827 
     14 C14       -53.5496  -31.0094    9.4783 C.ar      14 UNK        -0.1249 
     15 C15       -54.1533  -32.4224   11.4892 C.3       14 UNK         0.0141 
     16 S16       -55.0852  -31.3857   12.6640 S.3       14 UNK        -0.2313 
     17 C17       -56.7439  -31.2898   11.9008 C.3       14 UNK        -0.0915 
     18 CA        -56.9258  -30.1351   10.8778 C.3       13 UNK         0.0968 
     19 C         -58.3895  -30.0918   10.3593 C.2       13 UNK         0.5732 
     20 N         -58.7069  -30.8657    9.3301 N.am      13 UNK        -0.7310 
     21 O         -59.2464  -29.4003   10.9076 O.2       13 UNK        -0.5035 
     22 N         -56.4681  -28.8472   11.4133 N.am      13 UNK        -0.4233 
     23 C         -56.3188  -27.7197   10.7046 C.2       13 UNK         0.4989 
     24 O         -56.5353  -27.6302    9.4954 O.2       13 UNK        -0.4996 
     25 CA        -55.8330  -26.4764   11.4730 C.3       12 UNK         0.0216 
     26 CB        -57.0257  -25.6057   11.8999 C.3       12 UNK        -0.1964 
     27 N         -55.0298  -26.8113   12.6525 N.am      12 UNK        -0.4276 
     28 C         -53.7865  -27.3055   12.6022 C.2       12 UNK         0.5020 
     29 O         -53.1382  -27.4299   11.5624 O.2       12 UNK        -0.5489 
     30 CA        -53.1639  -27.6793   13.9535 C.3       11 UNK         0.0294 
     31 CB        -52.0447  -28.7260   13.8172 C.3       11 UNK        -0.2019 
     32 N         -52.6142  -26.4788   14.5690 N.am      11 UNK        -0.4493 
     33 C         -53.2796  -25.6350   15.3662 C.2       11 UNK         0.4932 
     34 O         -54.4619  -25.7883   15.6797 O.2       11 UNK        -0.5029 
     35 CA        -52.4842  -24.4202   15.8892 C.3       10 UNK         0.0280 
     36 CB        -53.1416  -23.7444   17.1109 C.3       10 UNK        -0.1976 
     37 N         -51.0738  -24.7380   16.1507 N.am      10 UNK        -0.4242 
     38 C         -50.5868  -25.6350   17.0241 C.2       10 UNK         0.5072 
     39 O         -51.2815  -26.2494   17.8351 O.2       10 UNK        -0.5224 
     40 CA        -49.0760  -25.9405   16.9734 C.3       9 UNK         0.0343 
     41 CB        -48.8459  -27.3636   16.4360 C.3       9 UNK        -0.2003 
     42 N         -48.3034  -25.0005   16.1570 N.am      9 UNK        -0.4272 
     43 C         -47.9783  -23.7530   16.5232 C.2       9 UNK         0.4988 
     44 O         -48.2362  -23.2737   17.6276 O.2       9 UNK        -0.5108 
     45 CA        -47.2810  -22.8788   15.4642 C.3       8 UNK         0.0248 
     46 CB        -45.7664  -23.1386   15.4567 C.3       8 UNK        -0.2001 
     47 N         -47.8210  -23.0638   14.1123 N.am      8 UNK        -0.4140 
     48 C         -49.0912  -22.8177   13.7567 C.2       8 UNK         0.5028 
     49 O         -49.9462  -22.3775   14.5245 O.2       8 UNK        -0.5428 
     50 CA        -49.4960  -23.1789   12.3196 C.3       7 UNK         0.0264 
     51 CB        -49.0549  -22.0882   11.3324 C.3       7 UNK        -0.1988 
     52 N         -48.9772  -24.4873   11.9111 N.am      7 UNK        -0.4454 
     53 C         -49.3785  -25.6476   12.4527 C.2       7 UNK         0.5027 
     54 O         -50.2588  -25.7284   13.3076 O.2       7 UNK        -0.5083 
     55 CA        -48.6374  -26.9249   12.0190 C.3       6 UNK         0.0844 
     56 C56       -49.2757  -27.5329   10.7481 C.3       14 UNK        -0.0967 
     57 S57       -48.5005  -29.1125   10.2682 S.3       14 UNK        -0.2604 
     58 C58       -49.5864  -30.3252   11.0998 C.3       14 UNK         0.0134 
     59 N         -47.1982  -26.6795   11.8885 N.am      6 UNK        -0.4116 
     60 C         -46.3859  -26.4456   12.9298 C.2       5 UNK         0.5034 
     61 O         -46.7640  -26.4296   14.1005 O.2       5 UNK        -0.5045 
     62 CA        -44.9123  -26.1334   12.6221 C.3       5 UNK         0.0224 
     63 CB        -44.0962  -27.4322   12.5284 C.3       5 UNK        -0.1978 
     64 N         -44.7193  -25.3455   11.4026 N.am      5 UNK        -0.4737 
     65 C         -45.2221  -24.1225   11.1871 C.2       4 UNK         0.5027 
     66 O         -45.9085  -23.5146   12.0097 O.2       4 UNK        -0.5211 
     67 CA        -44.9500  -23.4760    9.8143 C.3       4 UNK         0.0297 
     68 CB        -43.9500  -24.2609    8.9340 C.3       4 UNK        -0.1993 
     69 N         -46.1865  -23.2262    9.0625 N.am      4 UNK        -0.4486 
     70 C         -47.1452  -24.1161    8.7691 C.2       3 UNK         0.4961 
     71 O         -47.1490  -25.2875    9.1577 O.2       3 UNK        -0.5105 
     72 CA        -48.2840  -23.6058    7.8782 C.3       3 UNK         0.0299 
     73 CB        -47.8197  -23.5055    6.4152 C.3       3 UNK        -0.1972 
     74 N         -49.4060  -24.5367    7.9541 N.am      3 UNK        -0.4305 
     75 C         -50.6881  -24.2214    8.1582 C.2       2 UNK         0.5006 
     76 O         -51.1028  -23.0671    8.2730 O.2       2 UNK        -0.5106 
     77 CA        -51.6728  -25.4061    8.1993 C.3       2 UNK         0.0296 
     78 CB        -53.0820  -24.9998    8.6684 C.3       2 UNK        -0.2002 
     79 N         -51.7719  -26.0554    6.8889 N.am      2 UNK        -0.4032 
     80 C         -50.8732  -26.9189    6.3962 C.2       1 UNK         0.5000 
     81 O         -49.8524  -27.2493    7.0068 O.2       1 UNK        -0.5238 
     82 H82       -49.6735  -25.7771    2.9147 H         1 UNK         0.0889 
     83 H83       -47.9519  -25.7389    3.2817 H         1 UNK         0.0889 
     84 H84       -49.1179  -25.5333    4.5791 H         1 UNK         0.0889 
     85 H85       -49.9585  -29.1648    4.5917 H         1 UNK         0.3028 
     86 H86       -51.4422  -26.6748    4.3500 H         1 UNK         0.0864 
     87 H87       -53.3014  -27.9425    5.3128 H         1 UNK         0.0720 
     88 H88       -52.5923  -28.8179    3.9994 H         1 UNK         0.0720 
     89 H89       -54.1978  -29.6477    7.3351 H         1 UNK         0.0814 
     90 H90       -53.0541  -28.3857    7.6997 H         1 UNK         0.0814 
     91 H91       -50.7314  -29.2822    8.7455 H         1 UNK         0.1469 
     92 H92       -51.5834  -31.7951   12.1255 H         1 UNK         0.1381 
     93 H93       -54.5353  -31.1990    9.0812 H         1 UNK         0.1206 
     94 H94       -53.6162  -33.1902   12.0480 H         1 UNK         0.0813 
     95 H95       -54.8294  -32.9547   10.8189 H         1 UNK         0.0813 
     96 H96       -56.9760  -32.2506   11.4381 H         1 UNK         0.0638 
     97 H97       -57.4593  -31.1761   12.7175 H         1 UNK         0.0638 
     98 H98       -56.2945  -30.3459   10.0171 H         1 UNK         0.0568 
     99 H99       -58.0188  -31.4493    8.8810 H         1 UNK         0.3450 
    100 H100      -59.6565  -30.8622    8.9918 H         1 UNK         0.3450 
    101 H101      -56.2677  -28.8293   12.4006 H         1 UNK         0.2987 
    102 H102      -55.2108  -25.8915   10.7926 H         1 UNK         0.0766 
    103 H103      -56.6939  -24.6876   12.3852 H         1 UNK         0.0798 
    104 H104      -57.6857  -26.1327   12.5903 H         1 UNK         0.0798 
    105 H105      -57.6246  -25.3153   11.0354 H         1 UNK         0.0798 
    106 H106      -55.4552  -26.6702   13.5598 H         1 UNK         0.3198 
    107 H107      -53.9409  -28.1047   14.5926 H         1 UNK         0.0843 
    108 H108      -51.2346  -28.3739   13.1791 H         1 UNK         0.0831 
    109 H109      -52.4329  -29.6445   13.3773 H         1 UNK         0.0831 
    110 H110      -51.6199  -28.9827   14.7876 H         1 UNK         0.0831 
    111 H111      -51.6783  -26.2147   14.2602 H         1 UNK         0.3133 
    112 H112      -52.4789  -23.6932   15.0760 H         1 UNK         0.0566 
    113 H113      -52.5598  -22.8872   17.4495 H         1 UNK         0.0814 
    114 H114      -54.1400  -23.3808   16.8651 H         1 UNK         0.0814 
    115 H115      -53.2456  -24.4332   17.9496 H         1 UNK         0.0814 
    116 H116      -50.4150  -24.2757   15.5352 H         1 UNK         0.3091 
    117 H117      -48.7003  -25.8971   17.9978 H         1 UNK         0.0702 
    118 H118      -49.3732  -28.1032   17.0399 H         1 UNK         0.0785 
    119 H119      -49.2011  -27.4671   15.4098 H         1 UNK         0.0785 
    120 H120      -47.7884  -27.6279   16.4524 H         1 UNK         0.0785 
    121 H121      -47.9777  -25.3460   15.2591 H         1 UNK         0.2998 
    122 H122      -47.4452  -21.8347   15.7387 H         1 UNK         0.0697 
    123 H123      -45.5363  -24.1726   15.2006 H         1 UNK         0.0825 
    124 H124      -45.3327  -22.9422   16.4381 H         1 UNK         0.0825 
    125 H125      -45.2556  -22.4945   14.7406 H         1 UNK         0.0825 
    126 H126      -47.1681  -23.3730   13.3945 H         1 UNK         0.3029 
    127 H127      -50.5871  -23.2302   12.2927 H         1 UNK         0.0897 
    128 H128      -49.4812  -22.2594   10.3460 H         1 UNK         0.0792 
    129 H129      -47.9710  -22.0352   11.2331 H         1 UNK         0.0792 
    130 H130      -49.3991  -21.1060   11.6594 H         1 UNK         0.0792 
    131 H131      -48.2052  -24.4994   11.2584 H         1 UNK         0.3086 
    132 H132      -48.7688  -27.6511   12.8243 H         1 UNK         0.0583 
    133 H133      -50.3478  -27.6878   10.8907 H         1 UNK         0.1020 
    134 H134      -49.1799  -26.8484    9.9048 H         1 UNK         0.1020 
    135 H135      -49.0737  -31.2879   11.0905 H         1 UNK         0.0694 
    136 H136      -49.6824  -30.0413   12.1486 H         1 UNK         0.0694 
    137 H137      -46.8316  -26.6206   10.9463 H         1 UNK         0.2989 
    138 H138      -44.5239  -25.5460   13.4565 H         1 UNK         0.1055 
    139 H139      -43.0328  -27.2259   12.4060 H         1 UNK         0.0806 
    140 H140      -44.4179  -28.0534   11.6914 H         1 UNK         0.0806 
    141 H141      -44.2058  -28.0273   13.4364 H         1 UNK         0.0806 
    142 H142      -44.1876  -25.7773   10.6606 H         1 UNK         0.3061 
    143 H143      -44.5099  -22.5001   10.0252 H         1 UNK         0.0734 
    144 H144      -43.7330  -23.7170    8.0146 H         1 UNK         0.0832 
    145 H145      -42.9973  -24.4055    9.4455 H         1 UNK         0.0832 
    146 H146      -44.3322  -25.2417    8.6479 H         1 UNK         0.0832 
    147 H147      -46.2998  -22.2800    8.7256 H         1 UNK         0.3156 
    148 H148      -48.5819  -22.6159    8.2274 H         1 UNK         0.0589 
    149 H149      -47.4480  -24.4620    6.0451 H         1 UNK         0.0808 
    150 H150      -48.6323  -23.1851    5.7628 H         1 UNK         0.0808 
    151 H151      -47.0135  -22.7793    6.3052 H         1 UNK         0.0808 
    152 H152      -49.1596  -25.5200    7.8739 H         1 UNK         0.3098 
    153 H153      -51.2911  -26.1282    8.9240 H         1 UNK         0.0720 
    154 H154      -53.7367  -25.8684    8.7456 H         1 UNK         0.0791 
    155 H155      -53.5482  -24.2843    7.9900 H         1 UNK         0.0791 
    156 H156      -53.0440  -24.5392    9.6567 H         1 UNK         0.0791 
    157 H157      -52.5671  -25.7955    6.3229 H         1 UNK         0.3028 
@<TRIPOS>BOND
     1    1    2 1    
     2    1   82 1    
     3    1   83 1    
     4    1   84 1    
     5    2    3 2    
     6    2    4 am   BACKBONE|DICT|INTERRES
     7    4    5 1    
     8    4   85 1    
     9    5    6 1    
    10    5   80 1    
    11    5   86 1    
    12    6    7 1    
    13    6   87 1    
    14    6   88 1    
    15    7    8 1    
    16    8    9 1    
    17    8   89 1    
    18    8   90 1    
    19    9   10 ar   
    20    9   14 ar   
    21   10   11 ar   
    22   10   91 1    
    23   11   12 ar   
    24   11   58 1    
    25   12   13 ar   
    26   12   92 1    
    27   13   14 ar   
    28   13   15 1    
    29   14   93 1    
    30   15   16 1    
    31   15   94 1    
    32   15   95 1    
    33   16   17 1    
    34   17   18 1    
    35   17   96 1    
    36   17   97 1    
    37   18   19 1    
    38   18   22 1    
    39   18   98 1    
    40   19   20 am   BACKBONE|DICT|INTERRES
    41   19   21 2    
    42   20   99 1    
    43   20  100 1    
    44   22   23 am   BACKBONE|DICT|INTERRES
    45   22  101 1    
    46   23   24 2    
    47   23   25 1    
    48   25   26 1    
    49   25   27 1    
    50   25  102 1    
    51   26  103 1    
    52   26  104 1    
    53   26  105 1    
    54   27   28 am   BACKBONE|DICT|INTERRES
    55   27  106 1    
    56   28   29 2    
    57   28   30 1    
    58   30   31 1    
    59   30   32 1    
    60   30  107 1    
    61   31  108 1    
    62   31  109 1    
    63   31  110 1    
    64   32   33 am   BACKBONE|DICT|INTERRES
    65   32  111 1    
    66   33   34 2    
    67   33   35 1    
    68   35   36 1    
    69   35   37 1    
    70   35  112 1    
    71   36  113 1    
    72   36  114 1    
    73   36  115 1    
    74   37   38 am   BACKBONE|DICT|INTERRES
    75   37  116 1    
    76   38   39 2    
    77   38   40 1    
    78   40   41 1    
    79   40   42 1    
    80   40  117 1    
    81   41  118 1    
    82   41  119 1    
    83   41  120 1    
    84   42   43 am   BACKBONE|DICT|INTERRES
    85   42  121 1    
    86   43   44 2    
    87   43   45 1    
    88   45   46 1    
    89   45   47 1    
    90   45  122 1    
    91   46  123 1    
    92   46  124 1    
    93   46  125 1    
    94   47   48 am   BACKBONE|DICT|INTERRES
    95   47  126 1    
    96   48   49 2    
    97   48   50 1    
    98   50   51 1    
    99   50   52 1    
   100   50  127 1    
   101   51  128 1    
   102   51  129 1    
   103   51  130 1    
   104   52   53 am   BACKBONE|DICT|INTERRES
   105   52  131 1    
   106   53   54 2    
   107   53   55 1    
   108   55   56 1    
   109   55   59 1    
   110   55  132 1    
   111   56   57 1    
   112   56  133 1    
   113   56  134 1    
   114   57   58 1    
   115   58  135 1    
   116   58  136 1    
   117   59   60 am   BACKBONE|DICT|INTERRES
   118   59  137 1    
   119   60   61 2    
   120   60   62 1    
   121   62   63 1    
   122   62   64 1    
   123   62  138 1    
   124   63  139 1    
   125   63  140 1    
   126   63  141 1    
   127   64   65 am   BACKBONE|DICT|INTERRES
   128   64  142 1    
   129   65   66 2    
   130   65   67 1    
   131   67   68 1    
   132   67   69 1    
   133   67  143 1    
   134   68  144 1    
   135   68  145 1    
   136   68  146 1    
   137   69   70 am   BACKBONE|DICT|INTERRES
   138   69  147 1    
   139   70   71 2    
   140   70   72 1    
   141   72   73 1    
   142   72   74 1    
   143   72  148 1    
   144   73  149 1    
   145   73  150 1    
   146   73  151 1    
   147   74   75 am   BACKBONE|DICT|INTERRES
   148   74  152 1    
   149   75   76 2    
   150   75   77 1    
   151   77   78 1    
   152   77   79 1    
   153   77  153 1    
   154   78  154 1    
   155   78  155 1    
   156   78  156 1    
   157   79   80 am   BACKBONE|DICT|INTERRES
   158   79  157 1    
   159   80   81 2    
@<TRIPOS>SUBSTRUCTURE
     1 UNK         1 GROUP             0       ****    0 ROOT    
