@<TRIPOS>MOLECULE
3R207
157   159    1
SMALL
USER_CHARGES


@<TRIPOS>ATOM
      1 CA        -45.9049  -28.7597    1.9778 C.3       0 UNK        -0.1975 
      2 C         -47.1433  -27.9971    2.4247 C.2       0 UNK         0.4852 
      3 O         -47.3482  -26.8604    1.9973 O.2       0 UNK        -0.5216 
      4 N         -47.9697  -28.6136    3.2820 N.am      1 UNK        -0.4461 
      5 CA        -49.2023  -28.0287    3.8296 C.3       1 UNK         0.0864 
      6 C6        -50.1137  -29.1244    4.4410 C.3       14 UNK        -0.0898 
      7 S7        -51.8880  -28.7523    4.2455 S.3       14 UNK        -0.2598 
      8 C8        -52.6434  -30.0428    5.2859 C.3       14 UNK         0.0286 
      9 C9        -52.5498  -29.6930    6.7631 C.ar      14 UNK        -0.0844 
     10 C10       -51.4970  -30.1831    7.5421 C.ar      14 UNK        -0.0881 
     11 C11       -51.3832  -29.8228    8.8871 C.ar      14 UNK        -0.0643 
     12 C12       -52.3515  -28.9923    9.4577 C.ar      14 UNK        -0.0930 
     13 C13       -53.4212  -28.5135    8.6984 C.ar      14 UNK        -0.0827 
     14 C14       -53.5131  -28.8657    7.3488 C.ar      14 UNK        -0.1249 
     15 C15       -54.4558  -27.5851    9.3190 C.3       14 UNK         0.0141 
     16 S16       -55.8969  -28.5002    9.9479 S.3       14 UNK        -0.2313 
     17 C17       -55.4202  -28.8342   11.6792 C.3       14 UNK        -0.0915 
     18 CA        -56.0797  -27.8470   12.6849 C.3       13 UNK         0.0968 
     19 C         -57.6097  -28.0922   12.8446 C.2       13 UNK         0.5732 
     20 N         -58.0426  -28.9889   13.7200 N.am      13 UNK        -0.7310 
     21 O         -58.4147  -27.4421   12.1820 O.2       13 UNK        -0.5035 
     22 N         -55.3395  -27.7463   13.9559 N.am      13 UNK        -0.4233 
     23 C         -55.1103  -28.7147   14.8567 C.2       13 UNK         0.4989 
     24 O         -55.4886  -29.8781   14.7127 O.2       13 UNK        -0.4996 
     25 CA        -54.3437  -28.3439   16.1439 C.3       12 UNK         0.0216 
     26 CB        -53.1117  -29.2429   16.3414 C.3       12 UNK        -0.1964 
     27 N         -53.9341  -26.9363   16.1952 N.am      12 UNK        -0.4276 
     28 C         -54.7288  -25.9365   16.6017 C.2       12 UNK         0.5020 
     29 O         -55.8707  -26.1016   17.0326 O.2       12 UNK        -0.5489 
     30 CA        -54.1773  -24.5081   16.4707 C.3       11 UNK         0.0294 
     31 CB        -53.3983  -24.1168   17.7354 C.3       11 UNK        -0.2019 
     32 N         -53.3303  -24.3181   15.2890 N.am      11 UNK        -0.4493 
     33 C         -53.7577  -24.4023   14.0188 C.2       11 UNK         0.4932 
     34 O         -54.9162  -24.6967   13.7217 O.2       11 UNK        -0.5029 
     35 CA        -52.7361  -24.1637   12.8860 C.3       10 UNK         0.0280 
     36 CB        -53.3584  -23.4567   11.6645 C.3       10 UNK        -0.1976 
     37 N         -51.5048  -23.4921   13.3125 N.am      10 UNK        -0.4242 
     38 C         -51.3675  -22.2584   13.8272 C.2       10 UNK         0.5072 
     39 O         -52.2905  -21.4499   13.9351 O.2       10 UNK        -0.5224 
     40 CA        -49.9547  -21.8822   14.3281 C.3       9 UNK         0.0343 
     41 CB        -49.9796  -20.8056   15.4350 C.3       9 UNK        -0.2003 
     42 N         -49.1718  -23.0572   14.7450 N.am      9 UNK        -0.4272 
     43 C         -49.4766  -23.9030   15.7393 C.2       9 UNK         0.4988 
     44 O         -50.4318  -23.7445   16.5001 O.2       9 UNK        -0.5108 
     45 CA        -48.6017  -25.1642   15.8503 C.3       8 UNK         0.0248 
     46 CB        -48.5765  -25.7223   17.2886 C.3       8 UNK        -0.2001 
     47 N         -49.0035  -26.2179   14.9052 N.am      8 UNK        -0.4140 
     48 C         -50.2138  -26.7895   14.7743 C.2       8 UNK         0.5028 
     49 O         -51.2141  -26.4526   15.4089 O.2       8 UNK        -0.5428 
     50 CA        -50.3381  -27.9719   13.8002 C.3       7 UNK         0.0264 
     51 CB        -51.6610  -27.9668   13.0138 C.3       7 UNK        -0.1988 
     52 N         -49.2153  -28.0670   12.8641 N.am      7 UNK        -0.4454 
     53 C         -48.3977  -29.1260   12.7761 C.2       7 UNK         0.5027 
     54 O         -48.5152  -30.1360   13.4724 O.2       7 UNK        -0.5083 
     55 CA        -47.2376  -29.0695   11.7610 C.3       6 UNK         0.0844 
     56 C56       -47.5002  -29.9618   10.5201 C.3       14 UNK        -0.0967 
     57 S57       -48.7284  -29.3000    9.3490 S.3       14 UNK        -0.2604 
     58 C58       -50.1988  -30.3057    9.7104 C.3       14 UNK         0.0134 
     59 N         -46.7880  -27.7108   11.4250 N.am      6 UNK        -0.4116 
     60 C         -46.1379  -26.9111   12.2857 C.2       5 UNK         0.5034 
     61 O         -45.9949  -27.1652   13.4821 O.2       5 UNK        -0.5045 
     62 CA        -45.5445  -25.6127   11.7269 C.3       5 UNK         0.0224 
     63 CB        -44.4434  -25.8994   10.6904 C.3       5 UNK        -0.1978 
     64 N         -46.5857  -24.7866   11.1265 N.am      5 UNK        -0.4737 
     65 C         -47.2715  -23.8430   11.7828 C.2       4 UNK         0.5027 
     66 O         -47.0719  -23.5430   12.9598 O.2       4 UNK        -0.5211 
     67 CA        -48.3902  -23.1193   11.0121 C.3       4 UNK         0.0297 
     68 CB        -47.8559  -21.8313   10.3687 C.3       4 UNK        -0.1993 
     69 N         -49.0341  -23.9460    9.9939 N.am      4 UNK        -0.4486 
     70 C         -49.6957  -25.0841   10.2418 C.2       3 UNK         0.4961 
     71 O         -49.8821  -25.5363   11.3726 O.2       3 UNK        -0.5105 
     72 CA        -50.1838  -25.8692    9.0136 C.3       3 UNK         0.0299 
     73 CB        -51.5867  -25.3956    8.6072 C.3       3 UNK        -0.1972 
     74 N         -49.2914  -25.7982    7.8466 N.am      3 UNK        -0.4305 
     75 C         -47.9744  -26.0527    7.8254 C.2       2 UNK         0.5006 
     76 O         -47.3154  -26.3502    8.8243 O.2       2 UNK        -0.5106 
     77 CA        -47.2768  -25.9361    6.4578 C.3       2 UNK         0.0296 
     78 CB        -45.7448  -26.0585    6.5693 C.3       2 UNK        -0.2002 
     79 N         -47.7609  -26.9361    5.5048 N.am      2 UNK        -0.4032 
     80 C         -48.9238  -26.8879    4.8374 C.2       1 UNK         0.5000 
     81 O         -49.7478  -25.9817    4.9831 O.2       1 UNK        -0.5238 
     82 H82       -45.0057  -28.2114    2.2577 H         1 UNK         0.0889 
     83 H83       -45.9084  -28.8783    0.8946 H         1 UNK         0.0889 
     84 H84       -45.8510  -29.7512    2.4269 H         1 UNK         0.0889 
     85 H85       -47.7535  -29.5530    3.5854 H         1 UNK         0.3028 
     86 H86       -49.7275  -27.5765    2.9849 H         1 UNK         0.0864 
     87 H87       -49.8749  -29.2924    5.4919 H         1 UNK         0.0720 
     88 H88       -49.9473  -30.0806    3.9420 H         1 UNK         0.0720 
     89 H89       -52.1714  -31.0057    5.0842 H         1 UNK         0.0814 
     90 H90       -53.6912  -30.1540    5.0030 H         1 UNK         0.0814 
     91 H91       -50.7468  -30.8223    7.0973 H         1 UNK         0.1469 
     92 H92       -52.2652  -28.7039   10.4902 H         1 UNK         0.1381 
     93 H93       -54.3288  -28.4847    6.7494 H         1 UNK         0.1206 
     94 H94       -54.7975  -26.8695    8.5697 H         1 UNK         0.0813 
     95 H95       -54.0145  -26.9913   10.1208 H         1 UNK         0.0813 
     96 H96       -55.6812  -29.8660   11.9203 H         1 UNK         0.0638 
     97 H97       -54.3344  -28.7804   11.7569 H         1 UNK         0.0638 
     98 H98       -55.9843  -26.8478   12.2572 H         1 UNK         0.0568 
     99 H99       -59.0306  -29.1476   13.8358 H         1 UNK         0.3450 
    100 H100      -57.3638  -29.5307   14.2427 H         1 UNK         0.3450 
    101 H101      -55.0500  -26.8049   14.1898 H         1 UNK         0.2987 
    102 H102      -55.0222  -28.5387   16.9772 H         1 UNK         0.0766 
    103 H103      -52.4253  -29.1808   15.5002 H         1 UNK         0.0798 
    104 H104      -53.4040  -30.2890   16.4414 H         1 UNK         0.0798 
    105 H105      -52.5624  -28.9736   17.2438 H         1 UNK         0.0798 
    106 H106      -52.9877  -26.7121   15.8831 H         1 UNK         0.3198 
    107 H107      -55.0304  -23.8332   16.3741 H         1 UNK         0.0843 
    108 H108      -53.0402  -23.0886   17.6800 H         1 UNK         0.0831 
    109 H109      -52.5335  -24.7639   17.8898 H         1 UNK         0.0831 
    110 H110      -54.0279  -24.1955   18.6226 H         1 UNK         0.0831 
    111 H111      -52.3449  -24.1518   15.4666 H         1 UNK         0.3133 
    112 H112      -52.4268  -25.1549   12.5581 H         1 UNK         0.0566 
    113 H113      -54.1678  -24.0507   11.2381 H         1 UNK         0.0814 
    114 H114      -53.7746  -22.4843   11.9290 H         1 UNK         0.0814 
    115 H115      -52.6208  -23.3034   10.8769 H         1 UNK         0.0814 
    116 H116      -50.6763  -24.0699   13.2640 H         1 UNK         0.3091 
    117 H117      -49.4307  -21.4463   13.4777 H         1 UNK         0.0702 
    118 H118      -48.9739  -20.5726   15.7846 H         1 UNK         0.0785 
    119 H119      -50.5708  -21.1188   16.2960 H         1 UNK         0.0785 
    120 H120      -50.4162  -19.8770   15.0656 H         1 UNK         0.0785 
    121 H121      -48.3552  -23.2655   14.1689 H         1 UNK         0.2998 
    122 H122      -47.5812  -24.8790   15.5884 H         1 UNK         0.0697 
    123 H123      -47.8928  -26.5667   17.3740 H         1 UNK         0.0825 
    124 H124      -48.2441  -24.9612   17.9955 H         1 UNK         0.0825 
    125 H125      -49.5630  -26.0565   17.6129 H         1 UNK         0.0825 
    126 H126      -48.2560  -26.5872   14.3327 H         1 UNK         0.3029 
    127 H127      -50.3574  -28.8459   14.4533 H         1 UNK         0.0897 
    128 H128      -51.8797  -28.9689   12.6475 H         1 UNK         0.0792 
    129 H129      -52.5101  -27.6670   13.6251 H         1 UNK         0.0792 
    130 H130      -51.6236  -27.2904   12.1621 H         1 UNK         0.0792 
    131 H131      -49.0901  -27.2770   12.2380 H         1 UNK         0.3086 
    132 H132      -46.3957  -29.5357   12.2784 H         1 UNK         0.0583 
    133 H133      -46.5663  -30.0845    9.9697 H         1 UNK         0.1020 
    134 H134      -47.7858  -30.9715   10.8225 H         1 UNK         0.1020 
    135 H135      -49.9908  -31.3529    9.4861 H         1 UNK         0.0694 
    136 H136      -50.4271  -30.2515   10.7759 H         1 UNK         0.0694 
    137 H137      -46.9268  -27.4052   10.4652 H         1 UNK         0.2989 
    138 H138      -45.0817  -25.0750   12.5580 H         1 UNK         0.1055 
    139 H139      -44.8246  -26.4251    9.8145 H         1 UNK         0.0806 
    140 H140      -43.6538  -26.5160   11.1220 H         1 UNK         0.0806 
    141 H141      -43.9790  -24.9755   10.3454 H         1 UNK         0.0806 
    142 H142      -46.8755  -25.0444   10.1875 H         1 UNK         0.3061 
    143 H143      -49.1632  -22.8478   11.7278 H         1 UNK         0.0734 
    144 H144      -48.6553  -21.2609    9.8954 H         1 UNK         0.0832 
    145 H145      -47.3980  -21.1830   11.1174 H         1 UNK         0.0832 
    146 H146      -47.0976  -22.0413    9.6132 H         1 UNK         0.0832 
    147 H147      -48.9269  -23.6587    9.0321 H         1 UNK         0.3156 
    148 H148      -50.2565  -26.9148    9.3092 H         1 UNK         0.0589 
    149 H149      -51.5796  -24.3658    8.2484 H         1 UNK         0.0808 
    150 H150      -52.0019  -26.0238    7.8186 H         1 UNK         0.0808 
    151 H151      -52.2727  -25.4416    9.4533 H         1 UNK         0.0808 
    152 H152      -49.7317  -25.6190    6.9486 H         1 UNK         0.3098 
    153 H153      -47.5005  -24.9424    6.0637 H         1 UNK         0.0720 
    154 H154      -45.3410  -25.3061    7.2483 H         1 UNK         0.0791 
    155 H155      -45.4435  -27.0353    6.9502 H         1 UNK         0.0791 
    156 H156      -45.2631  -25.9112    5.6025 H         1 UNK         0.0791 
    157 H157      -47.1571  -27.7282    5.3417 H         1 UNK         0.3028 
@<TRIPOS>BOND
     1    1    2 1    
     2    1   82 1    
     3    1   83 1    
     4    1   84 1    
     5    2    3 2    
     6    2    4 am   BACKBONE|DICT|INTERRES
     7    4    5 1    
     8    4   85 1    
     9    5    6 1    
    10    5   80 1    
    11    5   86 1    
    12    6    7 1    
    13    6   87 1    
    14    6   88 1    
    15    7    8 1    
    16    8    9 1    
    17    8   89 1    
    18    8   90 1    
    19    9   10 ar   
    20    9   14 ar   
    21   10   11 ar   
    22   10   91 1    
    23   11   12 ar   
    24   11   58 1    
    25   12   13 ar   
    26   12   92 1    
    27   13   14 ar   
    28   13   15 1    
    29   14   93 1    
    30   15   16 1    
    31   15   94 1    
    32   15   95 1    
    33   16   17 1    
    34   17   18 1    
    35   17   96 1    
    36   17   97 1    
    37   18   19 1    
    38   18   22 1    
    39   18   98 1    
    40   19   20 am   BACKBONE|DICT|INTERRES
    41   19   21 2    
    42   20   99 1    
    43   20  100 1    
    44   22   23 am   BACKBONE|DICT|INTERRES
    45   22  101 1    
    46   23   24 2    
    47   23   25 1    
    48   25   26 1    
    49   25   27 1    
    50   25  102 1    
    51   26  103 1    
    52   26  104 1    
    53   26  105 1    
    54   27   28 am   BACKBONE|DICT|INTERRES
    55   27  106 1    
    56   28   29 2    
    57   28   30 1    
    58   30   31 1    
    59   30   32 1    
    60   30  107 1    
    61   31  108 1    
    62   31  109 1    
    63   31  110 1    
    64   32   33 am   BACKBONE|DICT|INTERRES
    65   32  111 1    
    66   33   34 2    
    67   33   35 1    
    68   35   36 1    
    69   35   37 1    
    70   35  112 1    
    71   36  113 1    
    72   36  114 1    
    73   36  115 1    
    74   37   38 am   BACKBONE|DICT|INTERRES
    75   37  116 1    
    76   38   39 2    
    77   38   40 1    
    78   40   41 1    
    79   40   42 1    
    80   40  117 1    
    81   41  118 1    
    82   41  119 1    
    83   41  120 1    
    84   42   43 am   BACKBONE|DICT|INTERRES
    85   42  121 1    
    86   43   44 2    
    87   43   45 1    
    88   45   46 1    
    89   45   47 1    
    90   45  122 1    
    91   46  123 1    
    92   46  124 1    
    93   46  125 1    
    94   47   48 am   BACKBONE|DICT|INTERRES
    95   47  126 1    
    96   48   49 2    
    97   48   50 1    
    98   50   51 1    
    99   50   52 1    
   100   50  127 1    
   101   51  128 1    
   102   51  129 1    
   103   51  130 1    
   104   52   53 am   BACKBONE|DICT|INTERRES
   105   52  131 1    
   106   53   54 2    
   107   53   55 1    
   108   55   56 1    
   109   55   59 1    
   110   55  132 1    
   111   56   57 1    
   112   56  133 1    
   113   56  134 1    
   114   57   58 1    
   115   58  135 1    
   116   58  136 1    
   117   59   60 am   BACKBONE|DICT|INTERRES
   118   59  137 1    
   119   60   61 2    
   120   60   62 1    
   121   62   63 1    
   122   62   64 1    
   123   62  138 1    
   124   63  139 1    
   125   63  140 1    
   126   63  141 1    
   127   64   65 am   BACKBONE|DICT|INTERRES
   128   64  142 1    
   129   65   66 2    
   130   65   67 1    
   131   67   68 1    
   132   67   69 1    
   133   67  143 1    
   134   68  144 1    
   135   68  145 1    
   136   68  146 1    
   137   69   70 am   BACKBONE|DICT|INTERRES
   138   69  147 1    
   139   70   71 2    
   140   70   72 1    
   141   72   73 1    
   142   72   74 1    
   143   72  148 1    
   144   73  149 1    
   145   73  150 1    
   146   73  151 1    
   147   74   75 am   BACKBONE|DICT|INTERRES
   148   74  152 1    
   149   75   76 2    
   150   75   77 1    
   151   77   78 1    
   152   77   79 1    
   153   77  153 1    
   154   78  154 1    
   155   78  155 1    
   156   78  156 1    
   157   79   80 am   BACKBONE|DICT|INTERRES
   158   79  157 1    
   159   80   81 2    
@<TRIPOS>SUBSTRUCTURE
     1 UNK         1 GROUP             0       ****    0 ROOT    
