@<TRIPOS>MOLECULE
3R207
157   159    1
SMALL
USER_CHARGES


@<TRIPOS>ATOM
      1 CA        -49.7751  -31.8284    8.5492 C.3       0 UNK        -0.1975 
      2 C         -50.1110  -30.7603    7.5195 C.2       0 UNK         0.4852 
      3 O         -49.5161  -30.7412    6.4403 O.2       0 UNK        -0.5216 
      4 N         -51.0580  -29.8699    7.8427 N.am      1 UNK        -0.4461 
      5 CA        -51.4570  -28.7255    7.0179 C.3       1 UNK         0.0864 
      6 C6        -52.6642  -27.9851    7.6383 C.3       14 UNK        -0.0898 
      7 S7        -53.5264  -26.9038    6.4455 S.3       14 UNK        -0.2598 
      8 C8        -54.8516  -26.1930    7.4773 C.3       14 UNK         0.0286 
      9 C9        -54.3062  -25.2161    8.5095 C.ar      14 UNK        -0.0844 
     10 C10       -54.1433  -23.8618    8.1963 C.ar      14 UNK        -0.0881 
     11 C11       -53.6131  -22.9733    9.1398 C.ar      14 UNK        -0.0643 
     12 C12       -53.2545  -23.4492   10.4042 C.ar      14 UNK        -0.0930 
     13 C13       -53.3597  -24.8089   10.7034 C.ar      14 UNK        -0.0827 
     14 C14       -53.9276  -25.6780    9.7717 C.ar      14 UNK        -0.1249 
     15 C15       -52.7609  -25.3647   11.9809 C.3       14 UNK         0.0141 
     16 S16       -51.0561  -25.9102   11.6409 S.3       14 UNK        -0.2313 
     17 C17       -50.7721  -27.1984   12.8961 C.3       14 UNK        -0.0915 
     18 CA        -51.1014  -28.6160   12.3604 C.3       13 UNK         0.0968 
     19 C         -50.5061  -29.7331   13.2669 C.2       13 UNK         0.5732 
     20 N         -51.2911  -30.6576   13.8104 N.am      13 UNK        -0.7310 
     21 O         -49.2947  -29.7790   13.4635 O.2       13 UNK        -0.5035 
     22 N         -52.5405  -28.7644   12.1190 N.am      13 UNK        -0.4233 
     23 C         -53.0878  -29.5363   11.1739 C.2       13 UNK         0.4989 
     24 O         -52.4325  -30.1242   10.3124 O.2       13 UNK        -0.4996 
     25 CA        -54.6276  -29.6680   11.1847 C.3       12 UNK         0.0216 
     26 CB        -55.0951  -31.0478   10.6751 C.3       12 UNK        -0.1964 
     27 N         -55.2515  -29.3540   12.4820 N.am      12 UNK        -0.4276 
     28 C         -55.0058  -29.9515   13.6575 C.2       12 UNK         0.5020 
     29 O         -54.2263  -30.8964   13.8044 O.2       12 UNK        -0.5489 
     30 CA        -55.7279  -29.3690   14.8840 C.3       11 UNK         0.0294 
     31 CB        -56.9643  -30.2134   15.2312 C.3       11 UNK        -0.2019 
     32 N         -54.8419  -29.3024   16.0498 N.am      11 UNK        -0.4493 
     33 C         -53.7306  -28.5584   16.1249 C.2       11 UNK         0.4932 
     34 O         -53.3537  -27.7881   15.2357 O.2       11 UNK        -0.5029 
     35 CA        -52.9000  -28.7143   17.4055 C.3       10 UNK         0.0280 
     36 CB        -52.1541  -30.0618   17.4287 C.3       10 UNK        -0.1976 
     37 N         -51.9408  -27.6184   17.4786 N.am      10 UNK        -0.4242 
     38 C         -51.3582  -27.1407   18.5851 C.2       10 UNK         0.5072 
     39 O         -51.5559  -27.5961   19.7126 O.2       10 UNK        -0.5224 
     40 CA        -50.3825  -25.9594   18.4141 C.3       9 UNK         0.0343 
     41 CB        -48.9273  -26.4481   18.4970 C.3       9 UNK        -0.2003 
     42 N         -50.5700  -25.2503   17.1471 N.am      9 UNK        -0.4272 
     43 C         -51.5555  -24.3885   16.8789 C.2       9 UNK         0.4988 
     44 O         -52.3523  -23.9879   17.7294 O.2       9 UNK        -0.5108 
     45 CA        -51.6985  -23.9386   15.4089 C.3       8 UNK         0.0248 
     46 CB        -52.8509  -22.9343   15.2123 C.3       8 UNK        -0.2001 
     47 N         -50.4878  -23.3812   14.7932 N.am      8 UNK        -0.4140 
     48 C         -49.3403  -24.0151   14.5158 C.2       8 UNK         0.5028 
     49 O         -49.1029  -25.1794   14.8422 O.2       8 UNK        -0.5428 
     50 CA        -48.3025  -23.2142   13.7063 C.3       7 UNK         0.0264 
     51 CB        -46.9007  -23.8485   13.7674 C.3       7 UNK        -0.1988 
     52 N         -48.7139  -23.0843   12.3031 N.am      7 UNK        -0.4454 
     53 C         -49.6611  -22.2382   11.8643 C.2       7 UNK         0.5027 
     54 O         -50.2410  -21.4519   12.6172 O.2       7 UNK        -0.5083 
     55 CA        -50.0149  -22.2579   10.3594 C.3       6 UNK         0.0844 
     56 C56       -50.8245  -21.0034    9.9145 C.3       14 UNK        -0.0967 
     57 S57       -51.6583  -21.1819    8.2979 S.3       14 UNK        -0.2604 
     58 C58       -53.3902  -21.5098    8.7815 C.3       14 UNK         0.0134 
     59 N         -48.7932  -22.4699    9.5846 N.am      6 UNK        -0.4116 
     60 C         -48.6659  -23.3209    8.5597 C.2       5 UNK         0.5034 
     61 O         -49.6039  -23.8932    8.0055 O.2       5 UNK        -0.5045 
     62 CA        -47.2327  -23.6461    8.0983 C.3       5 UNK         0.0224 
     63 CB        -46.1513  -22.6659    8.6103 C.3       5 UNK        -0.1978 
     64 N         -46.8891  -25.0296    8.4493 N.am      5 UNK        -0.4737 
     65 C         -46.9155  -25.5831    9.6743 C.2       4 UNK         0.5027 
     66 O         -47.1365  -24.9384   10.7002 O.2       4 UNK        -0.5211 
     67 CA        -46.6772  -27.1020    9.7848 C.3       4 UNK         0.0297 
     68 CB        -47.6957  -27.7522   10.7376 C.3       4 UNK        -0.1993 
     69 N         -46.7785  -27.7574    8.4804 N.am      4 UNK        -0.4486 
     70 C         -45.7448  -28.1858    7.7422 C.2       3 UNK         0.4961 
     71 O         -44.5742  -28.1580    8.1223 O.2       3 UNK        -0.5105 
     72 CA        -46.0561  -28.7138    6.3265 C.3       3 UNK         0.0299 
     73 CB        -46.0929  -30.2500    6.3247 C.3       3 UNK        -0.1972 
     74 N         -47.3094  -28.1938    5.7686 N.am      3 UNK        -0.4305 
     75 C         -47.5358  -26.9009    5.4851 C.2       2 UNK         0.5006 
     76 O         -46.6715  -26.0286    5.5759 O.2       2 UNK        -0.5106 
     77 CA        -48.9658  -26.4847    5.0884 C.3       2 UNK         0.0296 
     78 CB        -49.0648  -26.2951    3.5663 C.3       2 UNK        -0.2002 
     79 N         -50.0304  -27.3927    5.5310 N.am      2 UNK        -0.4032 
     80 C         -50.2640  -27.7718    6.7962 C.2       1 UNK         0.5000 
     81 O         -49.5666  -27.4359    7.7568 O.2       1 UNK        -0.5238 
     82 H82       -48.7261  -31.7554    8.8348 H         1 UNK         0.0889 
     83 H83       -49.9482  -32.8198    8.1318 H         1 UNK         0.0889 
     84 H84       -50.3794  -31.7289    9.4509 H         1 UNK         0.0889 
     85 H85       -51.5126  -29.9385    8.7520 H         1 UNK         0.3028 
     86 H86       -51.7639  -29.1360    6.0534 H         1 UNK         0.0864 
     87 H87       -53.3958  -28.7054    8.0079 H         1 UNK         0.0720 
     88 H88       -52.3388  -27.4059    8.5034 H         1 UNK         0.0720 
     89 H89       -55.5668  -25.6834    6.8299 H         1 UNK         0.0814 
     90 H90       -55.4049  -26.9961    7.9667 H         1 UNK         0.0814 
     91 H91       -54.4096  -23.5042    7.2111 H         1 UNK         0.1469 
     92 H92       -52.8258  -22.7742   11.1309 H         1 UNK         0.1381 
     93 H93       -54.0118  -26.7289   10.0067 H         1 UNK         0.1206 
     94 H94       -53.3693  -26.1875   12.3556 H         1 UNK         0.0813 
     95 H95       -52.7537  -24.6010   12.7555 H         1 UNK         0.0813 
     96 H96       -49.7180  -27.1332   13.1695 H         1 UNK         0.0638 
     97 H97       -51.3334  -26.9697   13.8015 H         1 UNK         0.0638 
     98 H98       -50.5864  -28.7284   11.4048 H         1 UNK         0.0568 
     99 H99       -52.2971  -30.6543   13.6709 H         1 UNK         0.3450 
    100 H100      -50.8714  -31.3782   14.3740 H         1 UNK         0.3450 
    101 H101      -53.1395  -28.3580   12.8230 H         1 UNK         0.2987 
    102 H102      -54.9948  -28.9197   10.4813 H         1 UNK         0.0766 
    103 H103      -56.1825  -31.1213   10.6686 H         1 UNK         0.0798 
    104 H104      -54.7546  -31.2263    9.6543 H         1 UNK         0.0798 
    105 H105      -54.7076  -31.8589   11.2926 H         1 UNK         0.0798 
    106 H106      -55.9081  -28.5846   12.4700 H         1 UNK         0.3198 
    107 H107      -56.0527  -28.3512   14.6566 H         1 UNK         0.0843 
    108 H108      -56.6936  -31.2397   15.4835 H         1 UNK         0.0831 
    109 H109      -57.6561  -30.2581   14.3889 H         1 UNK         0.0831 
    110 H110      -57.5110  -29.7920   16.0751 H         1 UNK         0.0831 
    111 H111      -55.0541  -29.9308   16.8111 H         1 UNK         0.3133 
    112 H112      -53.5789  -28.6541   18.2587 H         1 UNK         0.0566 
    113 H113      -51.4349  -30.1337   16.6124 H         1 UNK         0.0814 
    114 H114      -52.8431  -30.9016   17.3322 H         1 UNK         0.0814 
    115 H115      -51.6102  -30.1983   18.3635 H         1 UNK         0.0814 
    116 H116      -51.7725  -27.1606   16.5918 H         1 UNK         0.3091 
    117 H117      -50.5590  -25.2620   19.2358 H         1 UNK         0.0702 
    118 H118      -48.2260  -25.6155   18.4382 H         1 UNK         0.0785 
    119 H119      -48.6896  -27.1439   17.6911 H         1 UNK         0.0785 
    120 H120      -48.7404  -26.9632   19.4403 H         1 UNK         0.0785 
    121 H121      -49.9317  -25.4744   16.3827 H         1 UNK         0.2998 
    122 H122      -51.9514  -24.8438   14.8564 H         1 UNK         0.0697 
    123 H123      -52.6782  -22.0130   15.7700 H         1 UNK         0.0825 
    124 H124      -53.7984  -23.3517   15.5560 H         1 UNK         0.0825 
    125 H125      -52.9798  -22.6676   14.1633 H         1 UNK         0.0825 
    126 H126      -50.5740  -22.4387   14.4290 H         1 UNK         0.3029 
    127 H127      -48.2306  -22.2181   14.1489 H         1 UNK         0.0897 
    128 H128      -46.1730  -23.2601   13.2084 H         1 UNK         0.0792 
    129 H129      -46.5472  -23.9132   14.7971 H         1 UNK         0.0792 
    130 H130      -46.8963  -24.8599   13.3588 H         1 UNK         0.0792 
    131 H131      -48.2891  -23.7457   11.6541 H         1 UNK         0.3086 
    132 H132      -50.6439  -23.1391   10.2382 H         1 UNK         0.0583 
    133 H133      -51.5883  -20.7424   10.6483 H         1 UNK         0.1020 
    134 H134      -50.1656  -20.1350    9.8660 H         1 UNK         0.1020 
    135 H135      -53.6809  -20.8669    9.6134 H         1 UNK         0.0694 
    136 H136      -54.0377  -21.2310    7.9488 H         1 UNK         0.0694 
    137 H137      -47.9528  -22.0701    9.9769 H         1 UNK         0.2989 
    138 H138      -47.2430  -23.5912    7.0083 H         1 UNK         0.1055 
    139 H139      -45.1811  -22.8991    8.1714 H         1 UNK         0.0806 
    140 H140      -46.0324  -22.6985    9.6938 H         1 UNK         0.0806 
    141 H141      -46.3866  -21.6383    8.3298 H         1 UNK         0.0806 
    142 H142      -46.7173  -25.6386    7.6576 H         1 UNK         0.3061 
    143 H143      -45.6799  -27.2406   10.2064 H         1 UNK         0.0734 
    144 H144      -47.6176  -27.3366   11.7432 H         1 UNK         0.0832 
    145 H145      -48.7177  -27.5858   10.3959 H         1 UNK         0.0832 
    146 H146      -47.5390  -28.8276   10.8199 H         1 UNK         0.0832 
    147 H147      -47.7175  -27.7800    8.0851 H         1 UNK         0.3156 
    148 H148      -45.2443  -28.3925    5.6706 H         1 UNK         0.0589 
    149 H149      -46.8642  -30.6358    6.9918 H         1 UNK         0.0808 
    150 H150      -46.2830  -30.6445    5.3264 H         1 UNK         0.0808 
    151 H151      -45.1399  -30.6620    6.6595 H         1 UNK         0.0808 
    152 H152      -48.0765  -28.8494    5.6899 H         1 UNK         0.3098 
    153 H153      -49.1558  -25.5209    5.5658 H         1 UNK         0.0720 
    154 H154      -50.0337  -25.8865    3.2783 H         1 UNK         0.0791 
    155 H155      -48.3045  -25.5991    3.2086 H         1 UNK         0.0791 
    156 H156      -48.9225  -27.2356    3.0324 H         1 UNK         0.0791 
    157 H157      -50.6527  -27.7294    4.8103 H         1 UNK         0.3028 
@<TRIPOS>BOND
     1    1    2 1    
     2    1   82 1    
     3    1   83 1    
     4    1   84 1    
     5    2    3 2    
     6    2    4 am   BACKBONE|DICT|INTERRES
     7    4    5 1    
     8    4   85 1    
     9    5    6 1    
    10    5   80 1    
    11    5   86 1    
    12    6    7 1    
    13    6   87 1    
    14    6   88 1    
    15    7    8 1    
    16    8    9 1    
    17    8   89 1    
    18    8   90 1    
    19    9   10 ar   
    20    9   14 ar   
    21   10   11 ar   
    22   10   91 1    
    23   11   12 ar   
    24   11   58 1    
    25   12   13 ar   
    26   12   92 1    
    27   13   14 ar   
    28   13   15 1    
    29   14   93 1    
    30   15   16 1    
    31   15   94 1    
    32   15   95 1    
    33   16   17 1    
    34   17   18 1    
    35   17   96 1    
    36   17   97 1    
    37   18   19 1    
    38   18   22 1    
    39   18   98 1    
    40   19   20 am   BACKBONE|DICT|INTERRES
    41   19   21 2    
    42   20   99 1    
    43   20  100 1    
    44   22   23 am   BACKBONE|DICT|INTERRES
    45   22  101 1    
    46   23   24 2    
    47   23   25 1    
    48   25   26 1    
    49   25   27 1    
    50   25  102 1    
    51   26  103 1    
    52   26  104 1    
    53   26  105 1    
    54   27   28 am   BACKBONE|DICT|INTERRES
    55   27  106 1    
    56   28   29 2    
    57   28   30 1    
    58   30   31 1    
    59   30   32 1    
    60   30  107 1    
    61   31  108 1    
    62   31  109 1    
    63   31  110 1    
    64   32   33 am   BACKBONE|DICT|INTERRES
    65   32  111 1    
    66   33   34 2    
    67   33   35 1    
    68   35   36 1    
    69   35   37 1    
    70   35  112 1    
    71   36  113 1    
    72   36  114 1    
    73   36  115 1    
    74   37   38 am   BACKBONE|DICT|INTERRES
    75   37  116 1    
    76   38   39 2    
    77   38   40 1    
    78   40   41 1    
    79   40   42 1    
    80   40  117 1    
    81   41  118 1    
    82   41  119 1    
    83   41  120 1    
    84   42   43 am   BACKBONE|DICT|INTERRES
    85   42  121 1    
    86   43   44 2    
    87   43   45 1    
    88   45   46 1    
    89   45   47 1    
    90   45  122 1    
    91   46  123 1    
    92   46  124 1    
    93   46  125 1    
    94   47   48 am   BACKBONE|DICT|INTERRES
    95   47  126 1    
    96   48   49 2    
    97   48   50 1    
    98   50   51 1    
    99   50   52 1    
   100   50  127 1    
   101   51  128 1    
   102   51  129 1    
   103   51  130 1    
   104   52   53 am   BACKBONE|DICT|INTERRES
   105   52  131 1    
   106   53   54 2    
   107   53   55 1    
   108   55   56 1    
   109   55   59 1    
   110   55  132 1    
   111   56   57 1    
   112   56  133 1    
   113   56  134 1    
   114   57   58 1    
   115   58  135 1    
   116   58  136 1    
   117   59   60 am   BACKBONE|DICT|INTERRES
   118   59  137 1    
   119   60   61 2    
   120   60   62 1    
   121   62   63 1    
   122   62   64 1    
   123   62  138 1    
   124   63  139 1    
   125   63  140 1    
   126   63  141 1    
   127   64   65 am   BACKBONE|DICT|INTERRES
   128   64  142 1    
   129   65   66 2    
   130   65   67 1    
   131   67   68 1    
   132   67   69 1    
   133   67  143 1    
   134   68  144 1    
   135   68  145 1    
   136   68  146 1    
   137   69   70 am   BACKBONE|DICT|INTERRES
   138   69  147 1    
   139   70   71 2    
   140   70   72 1    
   141   72   73 1    
   142   72   74 1    
   143   72  148 1    
   144   73  149 1    
   145   73  150 1    
   146   73  151 1    
   147   74   75 am   BACKBONE|DICT|INTERRES
   148   74  152 1    
   149   75   76 2    
   150   75   77 1    
   151   77   78 1    
   152   77   79 1    
   153   77  153 1    
   154   78  154 1    
   155   78  155 1    
   156   78  156 1    
   157   79   80 am   BACKBONE|DICT|INTERRES
   158   79  157 1    
   159   80   81 2    
@<TRIPOS>SUBSTRUCTURE
     1 UNK         1 GROUP             0       ****    0 ROOT    
