@<TRIPOS>MOLECULE
3R207
157   159    1
SMALL
USER_CHARGES


@<TRIPOS>ATOM
      1 CA        -44.1807  -30.2599    6.0472 C.3       0 UNK        -0.1975 
      2 C         -45.5526  -29.6398    5.8283 C.2       0 UNK         0.4852 
      3 O         -45.7057  -28.7814    4.9577 O.2       0 UNK        -0.5216 
      4 N         -46.5556  -30.0655    6.6086 N.am      1 UNK        -0.4461 
      5 CA        -47.9273  -29.5527    6.5586 C.3       1 UNK         0.0864 
      6 C6        -48.8803  -30.4037    7.4347 C.3       14 UNK        -0.0898 
      7 S7        -50.6366  -29.9607    7.2036 S.3       14 UNK        -0.2598 
      8 C8        -50.9472  -29.0603    8.7531 C.3       14 UNK         0.0286 
      9 C9        -52.1337  -28.1205    8.6257 C.ar      14 UNK        -0.0844 
     10 C10       -51.9605  -26.8488    8.0710 C.ar      14 UNK        -0.0881 
     11 C11       -53.0325  -25.9525    7.9933 C.ar      14 UNK        -0.0643 
     12 C12       -54.2873  -26.3515    8.4658 C.ar      14 UNK        -0.0930 
     13 C13       -54.4785  -27.6279    9.0042 C.ar      14 UNK        -0.0827 
     14 C14       -53.3964  -28.5095    9.0801 C.ar      14 UNK        -0.1249 
     15 C15       -55.8599  -28.0538    9.4834 C.3       14 UNK         0.0141 
     16 S16       -56.0536  -27.8292   11.2798 S.3       14 UNK        -0.2313 
     17 C17       -55.2659  -29.3421   11.9305 C.3       14 UNK        -0.0915 
     18 CA        -56.0692  -29.9935   13.0875 C.3       13 UNK         0.0968 
     19 C         -55.4659  -31.3649   13.5141 C.2       13 UNK         0.5732 
     20 N         -55.2493  -31.6425   14.7956 N.am      13 UNK        -0.7310 
     21 O         -55.2032  -32.2109   12.6625 O.2       13 UNK        -0.5035 
     22 N         -56.2466  -29.0659   14.2144 N.am      13 UNK        -0.4233 
     23 C         -57.3666  -28.9558   14.9391 C.2       13 UNK         0.4989 
     24 O         -58.4044  -29.5730   14.6904 O.2       13 UNK        -0.4996 
     25 CA        -57.3187  -27.9986   16.1477 C.3       12 UNK         0.0216 
     26 CB        -58.4573  -28.2524   17.1589 C.3       12 UNK        -0.1964 
     27 N         -56.0207  -27.9777   16.8341 N.am      12 UNK        -0.4276 
     28 C         -55.3719  -29.0153   17.3896 C.2       12 UNK         0.5020 
     29 O         -55.7993  -30.1706   17.3690 O.2       12 UNK        -0.5489 
     30 CA        -54.0057  -28.7347   18.0482 C.3       11 UNK         0.0294 
     31 CB        -52.9780  -29.8259   17.6942 C.3       11 UNK        -0.2019 
     32 N         -53.4688  -27.4367   17.6385 N.am      11 UNK        -0.4493 
     33 C         -53.5319  -26.3022   18.3492 C.2       11 UNK         0.4932 
     34 O         -53.9690  -26.2368   19.4978 O.2       11 UNK        -0.5029 
     35 CA        -53.0627  -25.0117   17.6487 C.3       10 UNK         0.0280 
     36 CB        -51.6425  -24.6386   18.1015 C.3       10 UNK        -0.1976 
     37 N         -53.1047  -25.1052   16.1844 N.am      10 UNK        -0.4242 
     38 C         -54.2369  -25.1798   15.4644 C.2       10 UNK         0.5072 
     39 O         -55.3609  -25.1066   15.9612 O.2       10 UNK        -0.5224 
     40 CA        -54.1072  -25.4654   13.9567 C.3       9 UNK         0.0343 
     41 CB        -54.1451  -24.1603   13.1485 C.3       9 UNK        -0.2003 
     42 N         -52.9018  -26.2295   13.6206 N.am      9 UNK        -0.4272 
     43 C         -52.6770  -27.4878   14.0331 C.2       9 UNK         0.4988 
     44 O         -53.4990  -28.1336   14.6840 O.2       9 UNK        -0.5108 
     45 CA        -51.3140  -28.1339   13.7180 C.3       8 UNK         0.0248 
     46 CB        -51.4446  -29.1312   12.5576 C.3       8 UNK        -0.2001 
     47 N         -50.2511  -27.1751   13.4093 N.am      8 UNK        -0.4140 
     48 C         -49.7748  -26.2492   14.2535 C.2       8 UNK         0.5028 
     49 O         -50.1656  -26.1156   15.4132 O.2       8 UNK        -0.5428 
     50 CA        -48.7346  -25.2670   13.6862 C.3       7 UNK         0.0264 
     51 CB        -47.3092  -25.7815   13.9397 C.3       7 UNK        -0.1988 
     52 N         -48.9002  -24.9786   12.2554 N.am      7 UNK        -0.4454 
     53 C         -49.9988  -24.4576   11.6895 C.2       7 UNK         0.5027 
     54 O         -51.0257  -24.2088   12.3220 O.2       7 UNK        -0.5083 
     55 CA        -49.9321  -24.1625   10.1749 C.3       6 UNK         0.0844 
     56 C56       -51.3068  -23.7192    9.6090 C.3       14 UNK        -0.0967 
     57 S57       -51.3027  -23.7141    7.7859 S.3       14 UNK        -0.2604 
     58 C58       -52.8723  -24.5592    7.3846 C.3       14 UNK         0.0134 
     59 N         -48.8899  -23.1672    9.8942 N.am      6 UNK        -0.4116 
     60 C         -47.5725  -23.4021    9.8694 C.2       5 UNK         0.5034 
     61 O         -47.0714  -24.5167   10.0359 O.2       5 UNK        -0.5045 
     62 CA        -46.6651  -22.1760    9.7263 C.3       5 UNK         0.0224 
     63 CB        -46.4217  -21.5325   11.1066 C.3       5 UNK        -0.1978 
     64 N         -45.3981  -22.5793    9.1207 N.am      5 UNK        -0.4737 
     65 C         -44.4950  -21.7560    8.5786 C.2       4 UNK         0.5027 
     66 O         -44.6080  -20.5299    8.5711 O.2       4 UNK        -0.5211 
     67 CA        -43.2720  -22.3956    7.8969 C.3       4 UNK         0.0297 
     68 CB        -42.3074  -23.0336    8.9178 C.3       4 UNK        -0.1993 
     69 N         -43.6450  -23.3161    6.8140 N.am      4 UNK        -0.4486 
     70 C         -44.2391  -24.5127    6.9080 C.2       3 UNK         0.4961 
     71 O         -44.4453  -25.1079    7.9674 O.2       3 UNK        -0.5105 
     72 CA        -44.6938  -25.1430    5.5801 C.3       3 UNK         0.0299 
     73 CB        -43.6986  -26.2243    5.1326 C.3       3 UNK        -0.1972 
     74 N         -46.0420  -25.7147    5.6749 N.am      3 UNK        -0.4305 
     75 C         -47.1462  -25.0160    5.9923 C.2       2 UNK         0.5006 
     76 O         -47.1461  -23.7965    6.1705 O.2       2 UNK        -0.5106 
     77 CA        -48.4879  -25.7662    6.1061 C.3       2 UNK         0.0296 
     78 CB        -49.4892  -25.2546    5.0554 C.3       2 UNK        -0.2002 
     79 N         -48.3832  -27.2196    5.9745 N.am      2 UNK        -0.4032 
     80 C         -47.9597  -28.0542    6.9318 C.2       1 UNK         0.5000 
     81 O         -47.6034  -27.6967    8.0560 O.2       1 UNK        -0.5238 
     82 H82       -43.8096  -30.6860    5.1156 H         1 UNK         0.0889 
     83 H83       -44.2062  -31.0521    6.7952 H         1 UNK         0.0889 
     84 H84       -43.4739  -29.5009    6.3803 H         1 UNK         0.0889 
     85 H85       -46.3684  -30.7523    7.3250 H         1 UNK         0.3028 
     86 H86       -48.2592  -29.6574    5.5228 H         1 UNK         0.0864 
     87 H87       -48.7790  -31.4570    7.1683 H         1 UNK         0.0720 
     88 H88       -48.6072  -30.3371    8.4897 H         1 UNK         0.0720 
     89 H89       -50.0674  -28.4825    9.0394 H         1 UNK         0.0814 
     90 H90       -51.1107  -29.7828    9.5539 H         1 UNK         0.0814 
     91 H91       -50.9867  -26.5571    7.7048 H         1 UNK         0.1469 
     92 H92       -55.1241  -25.6690    8.4057 H         1 UNK         0.1381 
     93 H93       -53.5342  -29.4974    9.4965 H         1 UNK         0.1206 
     94 H94       -56.0569  -29.0902    9.2058 H         1 UNK         0.0813 
     95 H95       -56.6255  -27.4621    8.9793 H         1 UNK         0.0813 
     96 H96       -54.2595  -29.0876   12.2524 H         1 UNK         0.0638 
     97 H97       -55.1503  -30.0562   11.1144 H         1 UNK         0.0638 
     98 H98       -57.0512  -30.2384   12.6795 H         1 UNK         0.0568 
     99 H99       -55.4922  -30.9871   15.5298 H         1 UNK         0.3450 
    100 H100      -54.8653  -32.5409   15.0394 H         1 UNK         0.3450 
    101 H101      -55.4068  -28.5752   14.5053 H         1 UNK         0.2987 
    102 H102      -57.4603  -26.9972   15.7384 H         1 UNK         0.0766 
    103 H103      -59.4344  -28.1397   16.6874 H         1 UNK         0.0798 
    104 H104      -58.4169  -27.5453   17.9873 H         1 UNK         0.0798 
    105 H105      -58.4106  -29.2596   17.5747 H         1 UNK         0.0798 
    106 H106      -55.5753  -27.0681   16.8672 H         1 UNK         0.3198 
    107 H107      -54.1613  -28.7523   19.1288 H         1 UNK         0.0843 
    108 H108      -52.8359  -29.9141   16.6165 H         1 UNK         0.0831 
    109 H109      -53.3003  -30.8018   18.0596 H         1 UNK         0.0831 
    110 H110      -52.0075  -29.6188   18.1453 H         1 UNK         0.0831 
    111 H111      -53.1302  -27.3934   16.6848 H         1 UNK         0.3133 
    112 H112      -53.7368  -24.2080   17.9526 H         1 UNK         0.0566 
    113 H113      -51.3008  -23.7184   17.6274 H         1 UNK         0.0814 
    114 H114      -50.9238  -25.4248   17.8677 H         1 UNK         0.0814 
    115 H115      -51.6080  -24.4795   19.1801 H         1 UNK         0.0814 
    116 H116      -52.2142  -25.2158   15.7125 H         1 UNK         0.3091 
    117 H117      -54.9697  -26.0672   13.6626 H         1 UNK         0.0702 
    118 H118      -54.0698  -24.3539   12.0781 H         1 UNK         0.0785 
    119 H119      -53.3330  -23.4881   13.4276 H         1 UNK         0.0785 
    120 H120      -55.0813  -23.6266   13.3171 H         1 UNK         0.0785 
    121 H121      -52.1801  -25.7320   13.1094 H         1 UNK         0.2998 
    122 H122      -51.0065  -28.6854   14.6089 H         1 UNK         0.0697 
    123 H123      -51.8172  -28.6461   11.6550 H         1 UNK         0.0825 
    124 H124      -52.1382  -29.9338   12.8118 H         1 UNK         0.0825 
    125 H125      -50.4892  -29.6002   12.3217 H         1 UNK         0.0825 
    126 H126      -49.8706  -27.2007   12.4750 H         1 UNK         0.3029 
    127 H127      -48.8587  -24.3244   14.2236 H         1 UNK         0.0897 
    128 H128      -47.1115  -26.7077   13.3986 H         1 UNK         0.0792 
    129 H129      -47.1491  -25.9818   15.0002 H         1 UNK         0.0792 
    130 H130      -46.5625  -25.0482   13.6338 H         1 UNK         0.0792 
    131 H131      -48.0912  -25.1184   11.6562 H         1 UNK         0.3086 
    132 H132      -49.6576  -25.1018    9.6888 H         1 UNK         0.0583 
    133 H133      -52.0985  -24.3836    9.9601 H         1 UNK         0.1020 
    134 H134      -51.5762  -22.7242    9.9678 H         1 UNK         0.1020 
    135 H135      -53.6914  -23.9117    7.7016 H         1 UNK         0.0694 
    136 H136      -52.9504  -24.6456    6.3002 H         1 UNK         0.0694 
    137 H137      -49.2153  -22.2191    9.7755 H         1 UNK         0.2989 
    138 H138      -47.1531  -21.4577    9.0635 H         1 UNK         0.1055 
    139 H139      -45.9015  -22.2152   11.7800 H         1 UNK         0.0806 
    140 H140      -47.3624  -21.2568   11.5850 H         1 UNK         0.0806 
    141 H141      -45.8261  -20.6231   11.0282 H         1 UNK         0.0806 
    142 H142      -45.2589  -23.5848    9.0332 H         1 UNK         0.3061 
    143 H143      -42.7266  -21.5848    7.4107 H         1 UNK         0.0734 
    144 H144      -42.7796  -23.8272    9.4970 H         1 UNK         0.0832 
    145 H145      -41.4306  -23.4540    8.4256 H         1 UNK         0.0832 
    146 H146      -41.9531  -22.2872    9.6298 H         1 UNK         0.0832 
    147 H147      -43.5429  -22.9277    5.8859 H         1 UNK         0.3156 
    148 H148      -44.7256  -24.3679    4.8116 H         1 UNK         0.0589 
    149 H149      -43.6247  -27.0277    5.8661 H         1 UNK         0.0808 
    150 H150      -43.9896  -26.6651    4.1789 H         1 UNK         0.0808 
    151 H151      -42.6987  -25.8074    5.0055 H         1 UNK         0.0808 
    152 H152      -46.1165  -26.7165    5.5422 H         1 UNK         0.3098 
    153 H153      -48.8860  -25.5383    7.0969 H         1 UNK         0.0720 
    154 H154      -50.4683  -25.7173    5.1816 H         1 UNK         0.0791 
    155 H155      -49.1478  -25.4557    4.0393 H         1 UNK         0.0791 
    156 H156      -49.6331  -24.1767    5.1428 H         1 UNK         0.0791 
    157 H157      -48.6298  -27.6042    5.0734 H         1 UNK         0.3028 
@<TRIPOS>BOND
     1    1    2 1    
     2    1   82 1    
     3    1   83 1    
     4    1   84 1    
     5    2    3 2    
     6    2    4 am   BACKBONE|DICT|INTERRES
     7    4    5 1    
     8    4   85 1    
     9    5    6 1    
    10    5   80 1    
    11    5   86 1    
    12    6    7 1    
    13    6   87 1    
    14    6   88 1    
    15    7    8 1    
    16    8    9 1    
    17    8   89 1    
    18    8   90 1    
    19    9   10 ar   
    20    9   14 ar   
    21   10   11 ar   
    22   10   91 1    
    23   11   12 ar   
    24   11   58 1    
    25   12   13 ar   
    26   12   92 1    
    27   13   14 ar   
    28   13   15 1    
    29   14   93 1    
    30   15   16 1    
    31   15   94 1    
    32   15   95 1    
    33   16   17 1    
    34   17   18 1    
    35   17   96 1    
    36   17   97 1    
    37   18   19 1    
    38   18   22 1    
    39   18   98 1    
    40   19   20 am   BACKBONE|DICT|INTERRES
    41   19   21 2    
    42   20   99 1    
    43   20  100 1    
    44   22   23 am   BACKBONE|DICT|INTERRES
    45   22  101 1    
    46   23   24 2    
    47   23   25 1    
    48   25   26 1    
    49   25   27 1    
    50   25  102 1    
    51   26  103 1    
    52   26  104 1    
    53   26  105 1    
    54   27   28 am   BACKBONE|DICT|INTERRES
    55   27  106 1    
    56   28   29 2    
    57   28   30 1    
    58   30   31 1    
    59   30   32 1    
    60   30  107 1    
    61   31  108 1    
    62   31  109 1    
    63   31  110 1    
    64   32   33 am   BACKBONE|DICT|INTERRES
    65   32  111 1    
    66   33   34 2    
    67   33   35 1    
    68   35   36 1    
    69   35   37 1    
    70   35  112 1    
    71   36  113 1    
    72   36  114 1    
    73   36  115 1    
    74   37   38 am   BACKBONE|DICT|INTERRES
    75   37  116 1    
    76   38   39 2    
    77   38   40 1    
    78   40   41 1    
    79   40   42 1    
    80   40  117 1    
    81   41  118 1    
    82   41  119 1    
    83   41  120 1    
    84   42   43 am   BACKBONE|DICT|INTERRES
    85   42  121 1    
    86   43   44 2    
    87   43   45 1    
    88   45   46 1    
    89   45   47 1    
    90   45  122 1    
    91   46  123 1    
    92   46  124 1    
    93   46  125 1    
    94   47   48 am   BACKBONE|DICT|INTERRES
    95   47  126 1    
    96   48   49 2    
    97   48   50 1    
    98   50   51 1    
    99   50   52 1    
   100   50  127 1    
   101   51  128 1    
   102   51  129 1    
   103   51  130 1    
   104   52   53 am   BACKBONE|DICT|INTERRES
   105   52  131 1    
   106   53   54 2    
   107   53   55 1    
   108   55   56 1    
   109   55   59 1    
   110   55  132 1    
   111   56   57 1    
   112   56  133 1    
   113   56  134 1    
   114   57   58 1    
   115   58  135 1    
   116   58  136 1    
   117   59   60 am   BACKBONE|DICT|INTERRES
   118   59  137 1    
   119   60   61 2    
   120   60   62 1    
   121   62   63 1    
   122   62   64 1    
   123   62  138 1    
   124   63  139 1    
   125   63  140 1    
   126   63  141 1    
   127   64   65 am   BACKBONE|DICT|INTERRES
   128   64  142 1    
   129   65   66 2    
   130   65   67 1    
   131   67   68 1    
   132   67   69 1    
   133   67  143 1    
   134   68  144 1    
   135   68  145 1    
   136   68  146 1    
   137   69   70 am   BACKBONE|DICT|INTERRES
   138   69  147 1    
   139   70   71 2    
   140   70   72 1    
   141   72   73 1    
   142   72   74 1    
   143   72  148 1    
   144   73  149 1    
   145   73  150 1    
   146   73  151 1    
   147   74   75 am   BACKBONE|DICT|INTERRES
   148   74  152 1    
   149   75   76 2    
   150   75   77 1    
   151   77   78 1    
   152   77   79 1    
   153   77  153 1    
   154   78  154 1    
   155   78  155 1    
   156   78  156 1    
   157   79   80 am   BACKBONE|DICT|INTERRES
   158   79  157 1    
   159   80   81 2    
@<TRIPOS>SUBSTRUCTURE
     1 UNK         1 GROUP             0       ****    0 ROOT    
