@<TRIPOS>MOLECULE
3R207
157   159    1
SMALL
USER_CHARGES


@<TRIPOS>ATOM
      1 CA        -50.6091  -27.0663   11.2825 C.3       0 UNK        -0.1975 
      2 C         -50.5809  -27.2197    9.7725 C.2       0 UNK         0.4852 
      3 O         -49.5053  -27.2408    9.1728 O.2       0 UNK        -0.5216 
      4 N         -51.7688  -27.3524    9.1750 N.am      1 UNK        -0.4461 
      5 CA        -52.0282  -27.6121    7.7577 C.3       1 UNK         0.0864 
      6 C6        -53.4949  -28.0942    7.5822 C.3       14 UNK        -0.0898 
      7 S7        -53.9204  -29.1261    6.1362 S.3       14 UNK        -0.2598 
      8 C8        -52.4675  -30.1792    5.8019 C.3       14 UNK         0.0286 
      9 C9        -51.9024  -30.9389    7.0033 C.ar      14 UNK        -0.0844 
     10 C10       -50.5139  -31.0483    7.1180 C.ar      14 UNK        -0.0881 
     11 C11       -49.9321  -31.7474    8.1755 C.ar      14 UNK        -0.0643 
     12 C12       -50.7528  -32.3514    9.1311 C.ar      14 UNK        -0.0930 
     13 C13       -52.1459  -32.2765    9.0224 C.ar      14 UNK        -0.0827 
     14 C14       -52.7177  -31.5629    7.9594 C.ar      14 UNK        -0.1249 
     15 C15       -53.0144  -33.0391   10.0167 C.3       14 UNK         0.0141 
     16 S16       -53.3891  -32.0769   11.5218 S.3       14 UNK        -0.2313 
     17 C17       -55.0757  -31.4700   11.1780 C.3       14 UNK        -0.0915 
     18 CA        -55.0851  -29.9534   10.8646 C.3       13 UNK         0.0968 
     19 C         -56.3471  -29.5320   10.0507 C.2       13 UNK         0.5732 
     20 N         -57.1283  -28.5467   10.4783 N.am      13 UNK        -0.7310 
     21 O         -56.6191  -30.1060    8.9996 O.2       13 UNK        -0.5035 
     22 N         -54.8401  -29.1412   12.0698 N.am      13 UNK        -0.4233 
     23 C         -54.3189  -27.9103   12.0439 C.2       13 UNK         0.4989 
     24 O         -53.8726  -27.3793   11.0238 O.2       13 UNK        -0.4996 
     25 CA        -54.2898  -27.1448   13.3792 C.3       12 UNK         0.0216 
     26 CB        -53.0575  -27.5235   14.2130 C.3       12 UNK        -0.1964 
     27 N         -54.2806  -25.6994   13.1493 N.am      12 UNK        -0.4276 
     28 C         -55.3261  -24.9990   12.6903 C.2       12 UNK         0.5020 
     29 O         -56.4543  -25.4796   12.5600 O.2       12 UNK        -0.5489 
     30 CA        -55.0718  -23.5397   12.2616 C.3       11 UNK         0.0294 
     31 CB        -56.2444  -22.6040   12.6268 C.3       11 UNK        -0.2019 
     32 N         -53.7853  -22.9848   12.7054 N.am      11 UNK        -0.4493 
     33 C         -53.4046  -22.6886   13.9549 C.2       11 UNK         0.4932 
     34 O         -54.0960  -22.8658   14.9600 O.2       11 UNK        -0.5029 
     35 CA        -52.0159  -22.0463   14.0873 C.3       10 UNK         0.0280 
     36 CB        -52.1230  -20.5133   14.0723 C.3       10 UNK        -0.1976 
     37 N         -51.3249  -22.4731   15.3024 N.am      10 UNK        -0.4242 
     38 C         -50.8031  -23.6921   15.4765 C.2       10 UNK         0.5072 
     39 O         -50.8497  -24.5904   14.6316 O.2       10 UNK        -0.5224 
     40 CA        -50.1106  -23.9543   16.8240 C.3       9 UNK         0.0343 
     41 CB        -50.9413  -24.9256   17.6779 C.3       9 UNK        -0.2003 
     42 N         -48.7853  -24.5256   16.5997 N.am      9 UNK        -0.4272 
     43 C         -47.7294  -23.8647   16.1082 C.2       9 UNK         0.4988 
     44 O         -47.6901  -22.6391   15.9943 O.2       9 UNK        -0.5108 
     45 CA        -46.5311  -24.7002   15.6141 C.3       8 UNK         0.0248 
     46 CB        -45.4696  -24.8873   16.7163 C.3       8 UNK        -0.2001 
     47 N         -46.9237  -25.9708   14.9812 N.am      8 UNK        -0.4140 
     48 C         -47.4385  -27.0639   15.5619 C.2       8 UNK         0.5028 
     49 O         -47.5528  -27.1915   16.7812 O.2       8 UNK        -0.5428 
     50 CA        -48.0116  -28.1698   14.6663 C.3       7 UNK         0.0264 
     51 CB        -49.5474  -28.0965   14.6783 C.3       7 UNK        -0.1988 
     52 N         -47.5531  -28.1406   13.2703 N.am      7 UNK        -0.4454 
     53 C         -47.1706  -29.2443   12.6078 C.2       7 UNK         0.5027 
     54 O         -47.0059  -30.3348   13.1586 O.2       7 UNK        -0.5083 
     55 CA        -46.9734  -29.1764   11.0775 C.3       6 UNK         0.0844 
     56 C56       -48.0037  -30.0852   10.3620 C.3       14 UNK        -0.0967 
     57 S57       -47.6102  -30.2895    8.5948 S.3       14 UNK        -0.2604 
     58 C58       -48.4177  -31.8819    8.2450 C.3       14 UNK         0.0134 
     59 N         -46.9903  -27.8132   10.5385 N.am      6 UNK        -0.4116 
     60 C         -45.9347  -26.9919   10.5469 C.2       5 UNK         0.5034 
     61 O         -44.8510  -27.2701   11.0620 O.2       5 UNK        -0.5045 
     62 CA        -46.1134  -25.6207    9.8713 C.3       5 UNK         0.0224 
     63 CB        -45.9315  -25.7645    8.3533 C.3       5 UNK        -0.1978 
     64 N         -47.3777  -24.9194   10.1441 N.am      5 UNK        -0.4737 
     65 C         -47.8957  -24.6921   11.3627 C.2       4 UNK         0.5027 
     66 O         -47.4822  -25.2444   12.3816 O.2       4 UNK        -0.5211 
     67 CA        -49.0465  -23.6813   11.5050 C.3       4 UNK         0.0297 
     68 CB        -48.5826  -22.4715   12.3360 C.3       4 UNK        -0.1993 
     69 N         -49.5533  -23.2048   10.2198 N.am      4 UNK        -0.4486 
     70 C         -50.8225  -22.8897    9.9470 C.2       3 UNK         0.4961 
     71 O         -51.7537  -23.0069   10.7436 O.2       3 UNK        -0.5105 
     72 CA        -51.1024  -22.3396    8.5389 C.3       3 UNK         0.0299 
     73 CB        -50.3600  -21.0123    8.2829 C.3       3 UNK        -0.1972 
     74 N         -50.8528  -23.3175    7.4749 N.am      3 UNK        -0.4305 
     75 C         -49.6998  -23.8946    7.1084 C.2       2 UNK         0.5006 
     76 O         -48.6050  -23.6584    7.6273 O.2       2 UNK        -0.5106 
     77 CA        -49.8282  -24.9801    6.0272 C.3       2 UNK         0.0296 
     78 CB        -48.4883  -25.3156    5.3494 C.3       2 UNK        -0.2002 
     79 N         -50.3855  -26.1885    6.6328 N.am      2 UNK        -0.4032 
     80 C         -51.6840  -26.3781    6.9014 C.2       1 UNK         0.5000 
     81 O         -52.5671  -25.5880    6.5565 O.2       1 UNK        -0.5238 
     82 H82       -51.1917  -26.1908   11.5695 H         1 UNK         0.0889 
     83 H83       -49.6061  -26.9607   11.6863 H         1 UNK         0.0889 
     84 H84       -51.0585  -27.9493   11.7355 H         1 UNK         0.0889 
     85 H85       -52.6008  -27.3064    9.7634 H         1 UNK         0.3028 
     86 H86       -51.3436  -28.4051    7.4671 H         1 UNK         0.0864 
     87 H87       -54.1973  -27.2603    7.6350 H         1 UNK         0.0720 
     88 H88       -53.7552  -28.7197    8.4296 H         1 UNK         0.0720 
     89 H89       -51.6990  -29.5525    5.3465 H         1 UNK         0.0814 
     90 H90       -52.7454  -30.9088    5.0403 H         1 UNK         0.0814 
     91 H91       -49.8720  -30.5911    6.3769 H         1 UNK         0.1469 
     92 H92       -50.3082  -32.9086    9.9444 H         1 UNK         0.1381 
     93 H93       -53.7940  -31.5093    7.8666 H         1 UNK         0.1206 
     94 H94       -53.9284  -33.3839    9.5323 H         1 UNK         0.0813 
     95 H95       -52.4941  -33.9483   10.3217 H         1 UNK         0.0813 
     96 H96       -55.7092  -31.6863   12.0397 H         1 UNK         0.0638 
     97 H97       -55.4960  -32.0488   10.3546 H         1 UNK         0.0638 
     98 H98       -54.2477  -29.7871   10.1907 H         1 UNK         0.0568 
     99 H99       -57.9349  -28.2904    9.9317 H         1 UNK         0.3450 
    100 H100      -56.9097  -28.0375   11.3201 H         1 UNK         0.3450 
    101 H101      -55.1794  -29.5220   12.9407 H         1 UNK         0.2987 
    102 H102      -55.1878  -27.4009   13.9456 H         1 UNK         0.0766 
    103 H103      -53.0896  -27.0593   15.1991 H         1 UNK         0.0798 
    104 H104      -52.1388  -27.1991   13.7293 H         1 UNK         0.0798 
    105 H105      -52.9905  -28.6019   14.3629 H         1 UNK         0.0798 
    106 H106      -53.3875  -25.2318   13.2099 H         1 UNK         0.3198 
    107 H107      -55.0102  -23.5688   11.1725 H         1 UNK         0.0843 
    108 H108      -56.0561  -21.5826   12.2961 H         1 UNK         0.0831 
    109 H109      -56.4276  -22.5823   13.7013 H         1 UNK         0.0831 
    110 H110      -57.1689  -22.9314   12.1497 H         1 UNK         0.0831 
    111 H111      -53.0949  -22.8585   11.9631 H         1 UNK         0.3133 
    112 H112      -51.4104  -22.3553   13.2358 H         1 UNK         0.0566 
    113 H113      -51.1391  -20.0458   14.1165 H         1 UNK         0.0814 
    114 H114      -52.6039  -20.1657   13.1568 H         1 UNK         0.0814 
    115 H115      -52.7124  -20.1411   14.9114 H         1 UNK         0.0814 
    116 H116      -51.2801  -21.8057   16.0585 H         1 UNK         0.3091 
    117 H117      -49.9980  -23.0150   17.3696 H         1 UNK         0.0702 
    118 H118      -50.4694  -25.1091   18.6433 H         1 UNK         0.0785 
    119 H119      -51.0733  -25.8878   17.1803 H         1 UNK         0.0785 
    120 H120      -51.9353  -24.5206   17.8727 H         1 UNK         0.0785 
    121 H121      -48.7006  -25.5324   16.6817 H         1 UNK         0.2998 
    122 H122      -46.0667  -24.1217   14.8138 H         1 UNK         0.0697 
    123 H123      -44.6173  -25.4614   16.3532 H         1 UNK         0.0825 
    124 H124      -45.0910  -23.9215   17.0532 H         1 UNK         0.0825 
    125 H125      -45.8701  -25.3964   17.5931 H         1 UNK         0.0825 
    126 H126      -46.9765  -25.9042   13.9664 H         1 UNK         0.3029 
    127 H127      -47.7177  -29.1068   15.1441 H         1 UNK         0.0897 
    128 H128      -49.9926  -28.9049   14.0981 H         1 UNK         0.0792 
    129 H129      -49.9400  -28.1729   15.6933 H         1 UNK         0.0792 
    130 H130      -49.8957  -27.1490   14.2667 H         1 UNK         0.0792 
    131 H131      -47.6101  -27.2572   12.7745 H         1 UNK         0.3086 
    132 H132      -45.9849  -29.6018   10.8891 H         1 UNK         0.0583 
    133 H133      -48.0223  -31.0763   10.8200 H         1 UNK         0.1020 
    134 H134      -49.0159  -29.6901   10.4579 H         1 UNK         0.1020 
    135 H135      -48.0521  -32.2545    7.2871 H         1 UNK         0.0694 
    136 H136      -48.1196  -32.6208    8.9904 H         1 UNK         0.0694 
    137 H137      -47.8357  -27.5246   10.0513 H         1 UNK         0.2989 
    138 H138      -45.3157  -24.9769   10.2475 H         1 UNK         0.1055 
    139 H139      -44.9584  -26.1960    8.1144 H         1 UNK         0.0806 
    140 H140      -45.9922  -24.8012    7.8464 H         1 UNK         0.0806 
    141 H141      -46.6906  -26.4216    7.9284 H         1 UNK         0.0806 
    142 H142      -47.8199  -24.5036    9.3331 H         1 UNK         0.3061 
    143 H143      -49.8479  -24.1888   12.0453 H         1 UNK         0.0734 
    144 H144      -49.3621  -21.7165   12.4272 H         1 UNK         0.0832 
    145 H145      -48.3099  -22.7774   13.3456 H         1 UNK         0.0832 
    146 H146      -47.7097  -21.9910   11.8927 H         1 UNK         0.0832 
    147 H147      -48.8899  -23.1143    9.4564 H         1 UNK         0.3156 
    148 H148      -52.1713  -22.1241    8.4958 H         1 UNK         0.0589 
    149 H149      -49.2768  -21.1350    8.2710 H         1 UNK         0.0808 
    150 H150      -50.6542  -20.5754    7.3286 H         1 UNK         0.0808 
    151 H151      -50.5938  -20.2814    9.0582 H         1 UNK         0.0808 
    152 H152      -51.6895  -23.6859    7.0339 H         1 UNK         0.3098 
    153 H153      -50.5058  -24.6112    5.2540 H         1 UNK         0.0720 
    154 H154      -47.7724  -25.7426    6.0489 H         1 UNK         0.0791 
    155 H155      -48.0333  -24.4212    4.9220 H         1 UNK         0.0791 
    156 H156      -48.6256  -26.0298    4.5374 H         1 UNK         0.0791 
    157 H157      -49.7265  -26.8032    7.0980 H         1 UNK         0.3028 
@<TRIPOS>BOND
     1    1    2 1    
     2    1   82 1    
     3    1   83 1    
     4    1   84 1    
     5    2    3 2    
     6    2    4 am   BACKBONE|DICT|INTERRES
     7    4    5 1    
     8    4   85 1    
     9    5    6 1    
    10    5   80 1    
    11    5   86 1    
    12    6    7 1    
    13    6   87 1    
    14    6   88 1    
    15    7    8 1    
    16    8    9 1    
    17    8   89 1    
    18    8   90 1    
    19    9   10 ar   
    20    9   14 ar   
    21   10   11 ar   
    22   10   91 1    
    23   11   12 ar   
    24   11   58 1    
    25   12   13 ar   
    26   12   92 1    
    27   13   14 ar   
    28   13   15 1    
    29   14   93 1    
    30   15   16 1    
    31   15   94 1    
    32   15   95 1    
    33   16   17 1    
    34   17   18 1    
    35   17   96 1    
    36   17   97 1    
    37   18   19 1    
    38   18   22 1    
    39   18   98 1    
    40   19   20 am   BACKBONE|DICT|INTERRES
    41   19   21 2    
    42   20   99 1    
    43   20  100 1    
    44   22   23 am   BACKBONE|DICT|INTERRES
    45   22  101 1    
    46   23   24 2    
    47   23   25 1    
    48   25   26 1    
    49   25   27 1    
    50   25  102 1    
    51   26  103 1    
    52   26  104 1    
    53   26  105 1    
    54   27   28 am   BACKBONE|DICT|INTERRES
    55   27  106 1    
    56   28   29 2    
    57   28   30 1    
    58   30   31 1    
    59   30   32 1    
    60   30  107 1    
    61   31  108 1    
    62   31  109 1    
    63   31  110 1    
    64   32   33 am   BACKBONE|DICT|INTERRES
    65   32  111 1    
    66   33   34 2    
    67   33   35 1    
    68   35   36 1    
    69   35   37 1    
    70   35  112 1    
    71   36  113 1    
    72   36  114 1    
    73   36  115 1    
    74   37   38 am   BACKBONE|DICT|INTERRES
    75   37  116 1    
    76   38   39 2    
    77   38   40 1    
    78   40   41 1    
    79   40   42 1    
    80   40  117 1    
    81   41  118 1    
    82   41  119 1    
    83   41  120 1    
    84   42   43 am   BACKBONE|DICT|INTERRES
    85   42  121 1    
    86   43   44 2    
    87   43   45 1    
    88   45   46 1    
    89   45   47 1    
    90   45  122 1    
    91   46  123 1    
    92   46  124 1    
    93   46  125 1    
    94   47   48 am   BACKBONE|DICT|INTERRES
    95   47  126 1    
    96   48   49 2    
    97   48   50 1    
    98   50   51 1    
    99   50   52 1    
   100   50  127 1    
   101   51  128 1    
   102   51  129 1    
   103   51  130 1    
   104   52   53 am   BACKBONE|DICT|INTERRES
   105   52  131 1    
   106   53   54 2    
   107   53   55 1    
   108   55   56 1    
   109   55   59 1    
   110   55  132 1    
   111   56   57 1    
   112   56  133 1    
   113   56  134 1    
   114   57   58 1    
   115   58  135 1    
   116   58  136 1    
   117   59   60 am   BACKBONE|DICT|INTERRES
   118   59  137 1    
   119   60   61 2    
   120   60   62 1    
   121   62   63 1    
   122   62   64 1    
   123   62  138 1    
   124   63  139 1    
   125   63  140 1    
   126   63  141 1    
   127   64   65 am   BACKBONE|DICT|INTERRES
   128   64  142 1    
   129   65   66 2    
   130   65   67 1    
   131   67   68 1    
   132   67   69 1    
   133   67  143 1    
   134   68  144 1    
   135   68  145 1    
   136   68  146 1    
   137   69   70 am   BACKBONE|DICT|INTERRES
   138   69  147 1    
   139   70   71 2    
   140   70   72 1    
   141   72   73 1    
   142   72   74 1    
   143   72  148 1    
   144   73  149 1    
   145   73  150 1    
   146   73  151 1    
   147   74   75 am   BACKBONE|DICT|INTERRES
   148   74  152 1    
   149   75   76 2    
   150   75   77 1    
   151   77   78 1    
   152   77   79 1    
   153   77  153 1    
   154   78  154 1    
   155   78  155 1    
   156   78  156 1    
   157   79   80 am   BACKBONE|DICT|INTERRES
   158   79  157 1    
   159   80   81 2    
@<TRIPOS>SUBSTRUCTURE
     1 UNK         1 GROUP             0       ****    0 ROOT    
