@<TRIPOS>MOLECULE
3R207
157   159    1
SMALL
USER_CHARGES


@<TRIPOS>ATOM
      1 CA        -49.9448  -28.0606    0.7116 C.3       0 UNK        -0.1975 
      2 C         -50.4634  -27.5274    2.0391 C.2       0 UNK         0.4852 
      3 O         -51.3738  -26.6975    2.0510 O.2       0 UNK        -0.5216 
      4 N         -49.8973  -28.0028    3.1562 N.am      1 UNK        -0.4461 
      5 CA        -50.2184  -27.5527    4.5130 C.3       1 UNK         0.0864 
      6 C6        -49.7003  -28.5619    5.5651 C.3       14 UNK        -0.0898 
      7 S7        -50.4099  -28.2781    7.2211 S.3       14 UNK        -0.2598 
      8 C8        -50.8886  -29.9575    7.7346 C.3       14 UNK         0.0286 
      9 C9        -50.7187  -30.1415    9.2354 C.ar      14 UNK        -0.0844 
     10 C10       -49.4605  -30.4588    9.7540 C.ar      14 UNK        -0.0881 
     11 C11       -49.2834  -30.6550   11.1259 C.ar      14 UNK        -0.0643 
     12 C12       -50.3802  -30.5350   11.9840 C.ar      14 UNK        -0.0930 
     13 C13       -51.6480  -30.2204   11.4798 C.ar      14 UNK        -0.0827 
     14 C14       -51.8076  -30.0127   10.1039 C.ar      14 UNK        -0.1249 
     15 C15       -52.8258  -30.0699   12.4363 C.3       14 UNK         0.0141 
     16 S16       -54.2757  -31.0622   11.9631 S.3       14 UNK        -0.2313 
     17 C17       -55.4276  -30.6577   13.3231 C.3       14 UNK        -0.0915 
     18 CA        -56.4721  -29.5819   12.9189 C.3       13 UNK         0.0968 
     19 C         -57.6386  -29.4704   13.9447 C.2       13 UNK         0.5732 
     20 N         -58.0407  -28.2833   14.3871 N.am      13 UNK        -0.7310 
     21 O         -58.2170  -30.4842   14.3297 O.2       13 UNK        -0.5035 
     22 N         -55.8269  -28.2893   12.6531 N.am      13 UNK        -0.4233 
     23 C         -56.0267  -27.5348   11.5664 C.2       13 UNK         0.4989 
     24 O         -56.7323  -27.8776   10.6158 O.2       13 UNK        -0.4996 
     25 CA        -55.3110  -26.1684   11.5246 C.3       12 UNK         0.0216 
     26 CB        -56.0774  -25.1233   10.6864 C.3       12 UNK        -0.1964 
     27 N         -54.9742  -25.6206   12.8453 N.am      12 UNK        -0.4276 
     28 C         -55.8114  -25.3180   13.8465 C.2       12 UNK         0.5020 
     29 O         -57.0299  -25.5026   13.7980 O.2       12 UNK        -0.5489 
     30 CA        -55.1603  -24.7611   15.1297 C.3       11 UNK         0.0294 
     31 CB        -56.1774  -24.5729   16.2747 C.3       11 UNK        -0.2019 
     32 N         -54.0139  -25.5495   15.6054 N.am      11 UNK        -0.4493 
     33 C         -53.9819  -26.8662   15.8664 C.2       11 UNK         0.4932 
     34 O         -54.9215  -27.6279   15.6339 O.2       11 UNK        -0.5029 
     35 CA        -52.6945  -27.4505   16.4826 C.3       10 UNK         0.0280 
     36 CB        -52.3015  -28.7702   15.8027 C.3       10 UNK        -0.1976 
     37 N         -51.5464  -26.5426   16.4264 N.am      10 UNK        -0.4242 
     38 C         -51.2143  -25.6478   17.3657 C.2       10 UNK         0.5072 
     39 O         -51.8572  -25.4663   18.4001 O.2       10 UNK        -0.5224 
     40 CA        -49.9649  -24.7903   17.0904 C.3       9 UNK         0.0343 
     41 CB        -48.6844  -25.5609   17.4501 C.3       9 UNK        -0.2003 
     42 N         -49.8789  -24.3232   15.7038 N.am      9 UNK        -0.4272 
     43 C         -50.7679  -23.5072   15.1174 C.2       9 UNK         0.4988 
     44 O         -51.7525  -23.0360   15.6873 O.2       9 UNK        -0.5108 
     45 CA        -50.5459  -23.2067   13.6273 C.3       8 UNK         0.0248 
     46 CB        -49.4476  -22.1496   13.4266 C.3       8 UNK        -0.2001 
     47 N         -50.2230  -24.4210   12.8761 N.am      8 UNK        -0.4140 
     48 C         -51.1025  -25.4049   12.6424 C.2       8 UNK         0.5028 
     49 O         -52.2805  -25.3622   12.9894 O.2       8 UNK        -0.5428 
     50 CA        -50.5853  -26.6601   11.9281 C.3       7 UNK         0.0264 
     51 CB        -50.6295  -26.4644   10.4093 C.3       7 UNK        -0.1988 
     52 N         -49.2336  -27.0439   12.3330 N.am      7 UNK        -0.4454 
     53 C         -48.8868  -27.4222   13.5715 C.2       7 UNK         0.5027 
     54 O         -49.6807  -27.5136   14.5058 O.2       7 UNK        -0.5083 
     55 CA        -47.3869  -27.6591   13.8326 C.3       6 UNK         0.0844 
     56 C56       -46.9744  -29.1299   13.5763 C.3       14 UNK        -0.0967 
     57 S57       -46.8152  -29.5841   11.8112 S.3       14 UNK        -0.2604 
     58 C58       -47.9102  -31.0315   11.6617 C.3       14 UNK         0.0134 
     59 N         -46.5455  -26.6899   13.1218 N.am      6 UNK        -0.4116 
     60 C         -46.5914  -25.3625   13.2972 C.2       5 UNK         0.5034 
     61 O         -47.2933  -24.8132   14.1480 O.2       5 UNK        -0.5045 
     62 CA        -45.7929  -24.4917   12.3134 C.3       5 UNK         0.0224 
     63 CB        -44.2948  -24.4559   12.6731 C.3       5 UNK        -0.1978 
     64 N         -46.0234  -24.8404   10.9007 N.am      5 UNK        -0.4737 
     65 C         -45.6332  -25.9316   10.2227 C.2       4 UNK         0.5027 
     66 O         -44.9631  -26.8351   10.7211 O.2       4 UNK        -0.5211 
     67 CA        -46.1008  -26.0677    8.7604 C.3       4 UNK         0.0297 
     68 CB        -47.0555  -27.2638    8.6069 C.3       4 UNK        -0.1993 
     69 N         -46.7685  -24.8655    8.2530 N.am      4 UNK        -0.4486 
     70 C         -46.1526  -23.7802    7.7719 C.2       3 UNK         0.4961 
     71 O         -44.9294  -23.6910    7.6551 O.2       3 UNK        -0.5105 
     72 CA        -47.0598  -22.5935    7.3788 C.3       3 UNK         0.0299 
     73 CB        -46.2615  -21.3977    6.8257 C.3       3 UNK        -0.1972 
     74 N         -48.1086  -22.9441    6.4148 N.am      3 UNK        -0.4305 
     75 C         -49.2112  -23.6642    6.6638 C.2       2 UNK         0.5006 
     76 O         -49.4500  -24.1830    7.7562 O.2       2 UNK        -0.5106 
     77 CA        -50.2407  -23.8153    5.5274 C.3       2 UNK         0.0296 
     78 CB        -49.9025  -23.0277    4.2388 C.3       2 UNK        -0.2002 
     79 N         -50.5176  -25.2240    5.2286 N.am      2 UNK        -0.4032 
     80 C         -49.6575  -26.1323    4.7442 C.2       1 UNK         0.5000 
     81 O         -48.4756  -25.8985    4.4745 O.2       1 UNK        -0.5238 
     82 H82       -49.1511  -28.7948    0.8486 H         1 UNK         0.0889 
     83 H83       -49.5502  -27.2435    0.1081 H         1 UNK         0.0889 
     84 H84       -50.7534  -28.5352    0.1563 H         1 UNK         0.0889 
     85 H85       -49.1310  -28.6565    3.0821 H         1 UNK         0.3028 
     86 H86       -51.3079  -27.5174    4.5896 H         1 UNK         0.0864 
     87 H87       -48.6112  -28.5358    5.6367 H         1 UNK         0.0720 
     88 H88       -49.9556  -29.5736    5.2464 H         1 UNK         0.0720 
     89 H89       -50.2784  -30.7000    7.2183 H         1 UNK         0.0814 
     90 H90       -51.9207  -30.1461    7.4355 H         1 UNK         0.0814 
     91 H91       -48.6144  -30.5536    9.0869 H         1 UNK         0.1469 
     92 H92       -50.2437  -30.6857   13.0461 H         1 UNK         0.1381 
     93 H93       -52.7819  -29.7582    9.7096 H         1 UNK         0.1206 
     94 H94       -53.1063  -29.0182   12.4951 H         1 UNK         0.0813 
     95 H95       -52.5318  -30.3828   13.4377 H         1 UNK         0.0813 
     96 H96       -54.8716  -30.3416   14.2073 H         1 UNK         0.0638 
     97 H97       -55.9236  -31.5903   13.5974 H         1 UNK         0.0638 
     98 H98       -56.9522  -29.9379   12.0059 H         1 UNK         0.0568 
     99 H99       -58.8022  -28.2412   15.0445 H         1 UNK         0.3450 
    100 H100      -57.5918  -27.4250   14.0857 H         1 UNK         0.3450 
    101 H101      -55.3000  -27.9041   13.4267 H         1 UNK         0.2987 
    102 H102      -54.3564  -26.3511   11.0288 H         1 UNK         0.0766 
    103 H103      -55.5408  -24.1753   10.6485 H         1 UNK         0.0798 
    104 H104      -57.0710  -24.9310   11.0927 H         1 UNK         0.0798 
    105 H105      -56.2061  -25.4608    9.6572 H         1 UNK         0.0798 
    106 H106      -53.9720  -25.4726   13.0016 H         1 UNK         0.3198 
    107 H107      -54.7679  -23.7768   14.8687 H         1 UNK         0.0843 
    108 H108      -56.6245  -25.5213   16.5754 H         1 UNK         0.0831 
    109 H109      -56.9900  -23.9111   15.9724 H         1 UNK         0.0831 
    110 H110      -55.7088  -24.1291   17.1530 H         1 UNK         0.0831 
    111 H111      -53.1678  -25.0211   15.7752 H         1 UNK         0.3133 
    112 H112      -52.9217  -27.6733   17.5269 H         1 UNK         0.0566 
    113 H113      -51.4221  -29.2121   16.2713 H         1 UNK         0.0814 
    114 H114      -53.1031  -29.5075   15.8597 H         1 UNK         0.0814 
    115 H115      -52.0703  -28.6045   14.7520 H         1 UNK         0.0814 
    116 H116      -50.9212  -26.6672   15.6324 H         1 UNK         0.3091 
    117 H117      -50.0218  -23.9080   17.7314 H         1 UNK         0.0702 
    118 H118      -47.7976  -24.9406   17.3177 H         1 UNK         0.0785 
    119 H119      -48.5626  -26.4528   16.8348 H         1 UNK         0.0785 
    120 H120      -48.7029  -25.8832   18.4921 H         1 UNK         0.0785 
    121 H121      -49.0812  -24.6398   15.1620 H         1 UNK         0.2998 
    122 H122      -51.4780  -22.8011   13.2272 H         1 UNK         0.0697 
    123 H123      -48.4844  -22.4770   13.8178 H         1 UNK         0.0825 
    124 H124      -49.7058  -21.2226   13.9404 H         1 UNK         0.0825 
    125 H125      -49.3174  -21.9077   12.3717 H         1 UNK         0.0825 
    126 H126      -49.2625  -24.5484   12.5960 H         1 UNK         0.3029 
    127 H127      -51.2528  -27.4820   12.1889 H         1 UNK         0.0897 
    128 H128      -49.9844  -25.6493   10.0796 H         1 UNK         0.0792 
    129 H129      -51.6417  -26.2412   10.0697 H         1 UNK         0.0792 
    130 H130      -50.3120  -27.3717    9.9008 H         1 UNK         0.0792 
    131 H131      -48.5180  -27.0341   11.6221 H         1 UNK         0.3086 
    132 H132      -47.2342  -27.4712   14.8975 H         1 UNK         0.0583 
    133 H133      -46.0036  -29.3095   14.0408 H         1 UNK         0.1020 
    134 H134      -47.6615  -29.8090   14.0847 H         1 UNK         0.1020 
    135 H135      -47.4452  -31.7418   10.9764 H         1 UNK         0.0694 
    136 H136      -47.9920  -31.5540   12.6157 H         1 UNK         0.0694 
    137 H137      -45.9563  -27.0503   12.3752 H         1 UNK         0.2989 
    138 H138      -46.1717  -23.4744   12.4292 H         1 UNK         0.1055 
    139 H139      -44.1495  -24.0767   13.6856 H         1 UNK         0.0806 
    140 H140      -43.7419  -23.8006   11.9999 H         1 UNK         0.0806 
    141 H141      -43.8346  -25.4433   12.6319 H         1 UNK         0.0806 
    142 H142      -46.5823  -24.1760   10.3841 H         1 UNK         0.3061 
    143 H143      -45.2137  -26.2625    8.1540 H         1 UNK         0.0734 
    144 H144      -47.3492  -27.4035    7.5666 H         1 UNK         0.0832 
    145 H145      -46.5824  -28.1906    8.9347 H         1 UNK         0.0832 
    146 H146      -47.9640  -27.1381    9.1951 H         1 UNK         0.0832 
    147 H147      -47.7869  -24.8503    8.2672 H         1 UNK         0.3156 
    148 H148      -47.5492  -22.2598    8.2963 H         1 UNK         0.0589 
    149 H149      -45.7423  -21.6521    5.9007 H         1 UNK         0.0808 
    150 H150      -46.9102  -20.5450    6.6239 H         1 UNK         0.0808 
    151 H151      -45.5085  -21.0637    7.5411 H         1 UNK         0.0808 
    152 H152      -47.9802  -22.5994    5.4744 H         1 UNK         0.3098 
    153 H153      -51.1717  -23.4037    5.9198 H         1 UNK         0.0720 
    154 H154      -50.6929  -23.1417    3.4965 H         1 UNK         0.0791 
    155 H155      -48.9728  -23.3614    3.7766 H         1 UNK         0.0791 
    156 H156      -49.8115  -21.9594    4.4400 H         1 UNK         0.0791 
    157 H157      -51.4513  -25.5345    5.4580 H         1 UNK         0.3028 
@<TRIPOS>BOND
     1    1    2 1    
     2    1   82 1    
     3    1   83 1    
     4    1   84 1    
     5    2    3 2    
     6    2    4 am   BACKBONE|DICT|INTERRES
     7    4    5 1    
     8    4   85 1    
     9    5    6 1    
    10    5   80 1    
    11    5   86 1    
    12    6    7 1    
    13    6   87 1    
    14    6   88 1    
    15    7    8 1    
    16    8    9 1    
    17    8   89 1    
    18    8   90 1    
    19    9   10 ar   
    20    9   14 ar   
    21   10   11 ar   
    22   10   91 1    
    23   11   12 ar   
    24   11   58 1    
    25   12   13 ar   
    26   12   92 1    
    27   13   14 ar   
    28   13   15 1    
    29   14   93 1    
    30   15   16 1    
    31   15   94 1    
    32   15   95 1    
    33   16   17 1    
    34   17   18 1    
    35   17   96 1    
    36   17   97 1    
    37   18   19 1    
    38   18   22 1    
    39   18   98 1    
    40   19   20 am   BACKBONE|DICT|INTERRES
    41   19   21 2    
    42   20   99 1    
    43   20  100 1    
    44   22   23 am   BACKBONE|DICT|INTERRES
    45   22  101 1    
    46   23   24 2    
    47   23   25 1    
    48   25   26 1    
    49   25   27 1    
    50   25  102 1    
    51   26  103 1    
    52   26  104 1    
    53   26  105 1    
    54   27   28 am   BACKBONE|DICT|INTERRES
    55   27  106 1    
    56   28   29 2    
    57   28   30 1    
    58   30   31 1    
    59   30   32 1    
    60   30  107 1    
    61   31  108 1    
    62   31  109 1    
    63   31  110 1    
    64   32   33 am   BACKBONE|DICT|INTERRES
    65   32  111 1    
    66   33   34 2    
    67   33   35 1    
    68   35   36 1    
    69   35   37 1    
    70   35  112 1    
    71   36  113 1    
    72   36  114 1    
    73   36  115 1    
    74   37   38 am   BACKBONE|DICT|INTERRES
    75   37  116 1    
    76   38   39 2    
    77   38   40 1    
    78   40   41 1    
    79   40   42 1    
    80   40  117 1    
    81   41  118 1    
    82   41  119 1    
    83   41  120 1    
    84   42   43 am   BACKBONE|DICT|INTERRES
    85   42  121 1    
    86   43   44 2    
    87   43   45 1    
    88   45   46 1    
    89   45   47 1    
    90   45  122 1    
    91   46  123 1    
    92   46  124 1    
    93   46  125 1    
    94   47   48 am   BACKBONE|DICT|INTERRES
    95   47  126 1    
    96   48   49 2    
    97   48   50 1    
    98   50   51 1    
    99   50   52 1    
   100   50  127 1    
   101   51  128 1    
   102   51  129 1    
   103   51  130 1    
   104   52   53 am   BACKBONE|DICT|INTERRES
   105   52  131 1    
   106   53   54 2    
   107   53   55 1    
   108   55   56 1    
   109   55   59 1    
   110   55  132 1    
   111   56   57 1    
   112   56  133 1    
   113   56  134 1    
   114   57   58 1    
   115   58  135 1    
   116   58  136 1    
   117   59   60 am   BACKBONE|DICT|INTERRES
   118   59  137 1    
   119   60   61 2    
   120   60   62 1    
   121   62   63 1    
   122   62   64 1    
   123   62  138 1    
   124   63  139 1    
   125   63  140 1    
   126   63  141 1    
   127   64   65 am   BACKBONE|DICT|INTERRES
   128   64  142 1    
   129   65   66 2    
   130   65   67 1    
   131   67   68 1    
   132   67   69 1    
   133   67  143 1    
   134   68  144 1    
   135   68  145 1    
   136   68  146 1    
   137   69   70 am   BACKBONE|DICT|INTERRES
   138   69  147 1    
   139   70   71 2    
   140   70   72 1    
   141   72   73 1    
   142   72   74 1    
   143   72  148 1    
   144   73  149 1    
   145   73  150 1    
   146   73  151 1    
   147   74   75 am   BACKBONE|DICT|INTERRES
   148   74  152 1    
   149   75   76 2    
   150   75   77 1    
   151   77   78 1    
   152   77   79 1    
   153   77  153 1    
   154   78  154 1    
   155   78  155 1    
   156   78  156 1    
   157   79   80 am   BACKBONE|DICT|INTERRES
   158   79  157 1    
   159   80   81 2    
@<TRIPOS>SUBSTRUCTURE
     1 UNK         1 GROUP             0       ****    0 ROOT    
