@<TRIPOS>MOLECULE
3R207
157   159    1
SMALL
USER_CHARGES


@<TRIPOS>ATOM
      1 CA        -50.2105  -28.5008    9.2379 C.3       0 UNK        -0.1975 
      2 C         -49.7247  -28.5460    7.7988 C.2       0 UNK         0.4852 
      3 O         -48.6680  -29.1182    7.5268 O.2       0 UNK        -0.5216 
      4 N         -50.4823  -27.9443    6.8725 N.am      1 UNK        -0.4461 
      5 CA        -50.1275  -27.8436    5.4526 C.3       1 UNK         0.0864 
      6 C6        -51.2864  -27.2790    4.5945 C.3       14 UNK        -0.0898 
      7 S7        -52.6088  -28.5141    4.3568 S.3       14 UNK        -0.2598 
      8 C8        -54.0450  -27.7298    5.1553 C.3       14 UNK         0.0286 
      9 C9        -53.8894  -27.6611    6.6664 C.ar      14 UNK        -0.0844 
     10 C10       -53.6835  -26.4321    7.2989 C.ar      14 UNK        -0.0881 
     11 C11       -53.5270  -26.3697    8.6856 C.ar      14 UNK        -0.0643 
     12 C12       -53.5811  -27.5429    9.4411 C.ar      14 UNK        -0.0930 
     13 C13       -53.8060  -28.7754    8.8221 C.ar      14 UNK        -0.0827 
     14 C14       -53.9575  -28.8282    7.4336 C.ar      14 UNK        -0.1249 
     15 C15       -53.8545  -30.0528    9.6479 C.3       14 UNK         0.0141 
     16 S16       -55.5353  -30.7490    9.7594 S.3       14 UNK        -0.2313 
     17 C17       -56.4866  -29.4446   10.6204 C.3       14 UNK        -0.0915 
     18 CA        -55.9050  -28.9818   11.9898 C.3       13 UNK         0.0968 
     19 C         -56.7726  -27.8913   12.6883 C.2       13 UNK         0.5732 
     20 N         -56.8172  -27.8245   14.0152 N.am      13 UNK        -0.7310 
     21 O         -57.3911  -27.0661   12.0206 O.2       13 UNK        -0.5035 
     22 N         -55.4986  -30.0843   12.8704 N.am      13 UNK        -0.4233 
     23 C         -56.2999  -31.0115   13.4125 C.2       13 UNK         0.4989 
     24 O         -57.4966  -31.1347   13.1491 O.2       13 UNK        -0.4996 
     25 CA        -55.6651  -31.9494   14.4589 C.3       12 UNK         0.0216 
     26 CB        -55.3275  -33.3083   13.8237 C.3       12 UNK        -0.1964 
     27 N         -54.4609  -31.4034   15.0983 N.am      12 UNK        -0.4276 
     28 C         -54.4081  -30.2691   15.8114 C.2       12 UNK         0.5020 
     29 O         -55.3954  -29.5725   16.0575 O.2       12 UNK        -0.5489 
     30 CA        -53.0235  -29.7916   16.2858 C.3       11 UNK         0.0294 
     31 CB        -51.8662  -30.7737   15.9898 C.3       11 UNK        -0.2019 
     32 N         -52.7169  -28.4628   15.7473 N.am      11 UNK        -0.4493 
     33 C         -52.6432  -28.0875   14.4621 C.2       11 UNK         0.4932 
     34 O         -52.8315  -28.8528   13.5146 O.2       11 UNK        -0.5029 
     35 CA        -52.2924  -26.6135   14.1664 C.3       10 UNK         0.0280 
     36 CB        -53.5755  -25.7851   13.9561 C.3       10 UNK        -0.1976 
     37 N         -51.3822  -25.9747   15.1374 N.am      10 UNK        -0.4242 
     38 C         -51.6084  -25.6871   16.4296 C.2       10 UNK         0.5072 
     39 O         -52.6848  -25.8960   16.9900 O.2       10 UNK        -0.5224 
     40 CA        -50.4437  -25.1590   17.2803 C.3       9 UNK         0.0343 
     41 CB        -49.8056  -26.3281   18.0597 C.3       9 UNK        -0.2003 
     42 N         -49.4184  -24.4349   16.5216 N.am      9 UNK        -0.4272 
     43 C         -48.5173  -23.6147   17.0813 C.2       9 UNK         0.4988 
     44 O         -48.4889  -23.3379   18.2814 O.2       9 UNK        -0.5108 
     45 CA        -47.4579  -23.0045   16.1528 C.3       8 UNK         0.0248 
     46 CB        -46.4029  -24.0528   15.7582 C.3       8 UNK        -0.2001 
     47 N         -48.0510  -22.4184   14.9523 N.am      8 UNK        -0.4140 
     48 C         -48.6401  -21.2155   14.9055 C.2       8 UNK         0.5028 
     49 O         -48.7432  -20.4635   15.8755 O.2       8 UNK        -0.5428 
     50 CA        -49.1897  -20.7571   13.5436 C.3       7 UNK         0.0264 
     51 CB        -48.1590  -19.8754   12.8196 C.3       7 UNK        -0.1988 
     52 N         -49.5573  -21.8739   12.6714 N.am      7 UNK        -0.4454 
     53 C         -50.6864  -22.5876   12.7942 C.2       7 UNK         0.5027 
     54 O         -51.5544  -22.3635   13.6377 O.2       7 UNK        -0.5083 
     55 CA        -50.8614  -23.7634   11.8133 C.3       6 UNK         0.0844 
     56 C56       -51.4297  -23.2482   10.4664 C.3       14 UNK        -0.0967 
     57 S57       -51.5380  -24.5630    9.2077 S.3       14 UNK        -0.2604 
     58 C58       -53.2808  -25.0378    9.3686 C.3       14 UNK         0.0134 
     59 N         -49.6273  -24.5268   11.6188 N.am      6 UNK        -0.4116 
     60 C         -48.8382  -25.0784   12.5485 C.2       5 UNK         0.5034 
     61 O         -49.0870  -25.0677   13.7550 O.2       5 UNK        -0.5045 
     62 CA        -47.5357  -25.7355   12.0544 C.3       5 UNK         0.0224 
     63 CB        -47.5666  -27.2493   12.3147 C.3       5 UNK        -0.1978 
     64 N         -47.2408  -25.4863   10.6354 N.am      5 UNK        -0.4737 
     65 C         -46.9160  -24.2932   10.1128 C.2       4 UNK         0.5027 
     66 O         -46.8395  -23.2641   10.7865 O.2       4 UNK        -0.5211 
     67 CA        -46.7124  -24.2280    8.5856 C.3       4 UNK         0.0297 
     68 CB        -45.7421  -23.1038    8.1658 C.3       4 UNK        -0.1993 
     69 N         -46.3323  -25.5076    7.9715 N.am      4 UNK        -0.4486 
     70 C         -45.2082  -26.2122    8.1907 C.2       3 UNK         0.4961 
     71 O         -44.3390  -25.8865    8.9993 O.2       3 UNK        -0.5105 
     72 CA        -45.0125  -27.5081    7.3794 C.3       3 UNK         0.0299 
     73 CB        -45.2914  -28.7372    8.2598 C.3       3 UNK        -0.1972 
     74 N         -45.8437  -27.5707    6.1730 N.am      3 UNK        -0.4305 
     75 C         -45.6562  -26.8065    5.0849 C.2       2 UNK         0.5006 
     76 O         -44.7019  -26.0391    4.9525 O.2       2 UNK        -0.5106 
     77 CA        -46.7024  -26.8838    3.9547 C.3       2 UNK         0.0296 
     78 CB        -46.1284  -27.6388    2.7440 C.3       2 UNK        -0.2002 
     79 N         -47.9845  -27.4909    4.3296 N.am      2 UNK        -0.4032 
     80 C         -48.8362  -27.0218    5.2530 C.2       1 UNK         0.5000 
     81 O         -48.6268  -26.0122    5.9330 O.2       1 UNK        -0.5238 
     82 H82       -50.6611  -27.5372    9.4731 H         1 UNK         0.0889 
     83 H83       -49.3792  -28.6628    9.9215 H         1 UNK         0.0889 
     84 H84       -50.9461  -29.2846    9.4117 H         1 UNK         0.0889 
     85 H85       -51.3510  -27.5029    7.1433 H         1 UNK         0.3028 
     86 H86       -49.9181  -28.8602    5.1113 H         1 UNK         0.0864 
     87 H87       -51.6862  -26.3627    5.0323 H         1 UNK         0.0720 
     88 H88       -50.9355  -27.0066    3.5969 H         1 UNK         0.0720 
     89 H89       -54.9389  -28.3076    4.9162 H         1 UNK         0.0814 
     90 H90       -54.2012  -26.7378    4.7286 H         1 UNK         0.0814 
     91 H91       -53.6320  -25.5229    6.7150 H         1 UNK         0.1469 
     92 H92       -53.4311  -27.4923   10.5101 H         1 UNK         0.1381 
     93 H93       -54.1207  -29.7808    6.9479 H         1 UNK         0.1206 
     94 H94       -53.4555  -29.8900   10.6501 H         1 UNK         0.0813 
     95 H95       -53.2034  -30.7965    9.1866 H         1 UNK         0.0813 
     96 H96       -57.5037  -29.8163   10.7527 H         1 UNK         0.0638 
     97 H97       -56.5665  -28.5940    9.9411 H         1 UNK         0.0638 
     98 H98       -54.9777  -28.4558   11.7802 H         1 UNK         0.0568 
     99 H99       -56.3132  -28.4862   14.5956 H         1 UNK         0.3450 
    100 H100      -57.3761  -27.1074   14.4482 H         1 UNK         0.3450 
    101 H101      -54.5349  -30.0375   13.1802 H         1 UNK         0.2987 
    102 H102      -56.4089  -32.1097   15.2422 H         1 UNK         0.0766 
    103 H103      -56.2118  -33.7558   13.3675 H         1 UNK         0.0798 
    104 H104      -54.9569  -34.0149   14.5666 H         1 UNK         0.0798 
    105 H105      -54.5728  -33.2120   13.0419 H         1 UNK         0.0798 
    106 H106      -53.5962  -31.8981   14.9324 H         1 UNK         0.3198 
    107 H107      -53.0958  -29.6796   17.3687 H         1 UNK         0.0843 
    108 H108      -51.7153  -30.9307   14.9211 H         1 UNK         0.0831 
    109 H109      -52.0421  -31.7459   16.4524 H         1 UNK         0.0831 
    110 H110      -50.9274  -30.3979   16.3972 H         1 UNK         0.0831 
    111 H111      -52.6620  -27.7110   16.4297 H         1 UNK         0.3133 
    112 H112      -51.7450  -26.6172   13.2229 H         1 UNK         0.0566 
    113 H113      -53.3537  -24.7323   13.7840 H         1 UNK         0.0814 
    114 H114      -54.2434  -25.8455   14.8162 H         1 UNK         0.0814 
    115 H115      -54.1326  -26.1472   13.0915 H         1 UNK         0.0814 
    116 H116      -50.4560  -25.7883   14.7636 H         1 UNK         0.3091 
    117 H117      -50.8841  -24.4642   17.9989 H         1 UNK         0.0702 
    118 H118      -49.0805  -25.9763   18.7934 H         1 UNK         0.0785 
    119 H119      -49.2951  -27.0228   17.3916 H         1 UNK         0.0785 
    120 H120      -50.5597  -26.8956   18.6071 H         1 UNK         0.0785 
    121 H121      -49.3693  -24.5938   15.5190 H         1 UNK         0.2998 
    122 H122      -46.9455  -22.2134   16.7052 H         1 UNK         0.0697 
    123 H123      -46.8388  -24.8949   15.2206 H         1 UNK         0.0825 
    124 H124      -45.9105  -24.4569   16.6437 H         1 UNK         0.0825 
    125 H125      -45.6269  -23.6176   15.1284 H         1 UNK         0.0825 
    126 H126      -48.0495  -22.9864   14.1183 H         1 UNK         0.3029 
    127 H127      -50.0802  -20.1537   13.7351 H         1 UNK         0.0897 
    128 H128      -47.2484  -20.4280   12.5833 H         1 UNK         0.0792 
    129 H129      -47.8725  -19.0224   13.4365 H         1 UNK         0.0792 
    130 H130      -48.5618  -19.4781   11.8877 H         1 UNK         0.0792 
    131 H131      -48.8923  -22.1312   11.9532 H         1 UNK         0.3086 
    132 H132      -51.5888  -24.4481   12.2473 H         1 UNK         0.0583 
    133 H133      -52.4136  -22.7964   10.6104 H         1 UNK         0.1020 
    134 H134      -50.7968  -22.4588   10.0552 H         1 UNK         0.1020 
    135 H135      -53.5493  -25.0994   10.4247 H         1 UNK         0.0694 
    136 H136      -53.9135  -24.2652    8.9290 H         1 UNK         0.0694 
    137 H137      -49.3396  -24.6279   10.6570 H         1 UNK         0.2989 
    138 H138      -46.7217  -25.3050   12.6417 H         1 UNK         0.1055 
    139 H139      -46.6424  -27.7294   11.9921 H         1 UNK         0.0806 
    140 H140      -48.3970  -27.7318   11.8007 H         1 UNK         0.0806 
    141 H141      -47.6821  -27.4586   13.3794 H         1 UNK         0.0806 
    142 H142      -47.2794  -26.2798   10.0121 H         1 UNK         0.3061 
    143 H143      -47.6909  -23.9833    8.1692 H         1 UNK         0.0734 
    144 H144      -44.7533  -23.2367    8.6057 H         1 UNK         0.0832 
    145 H145      -45.6255  -23.0641    7.0828 H         1 UNK         0.0832 
    146 H146      -46.1099  -22.1282    8.4864 H         1 UNK         0.0832 
    147 H147      -46.9903  -25.8617    7.2835 H         1 UNK         0.3156 
    148 H148      -43.9659  -27.5455    7.0697 H         1 UNK         0.0589 
    149 H149      -46.3104  -28.7364    8.6470 H         1 UNK         0.0808 
    150 H150      -44.6202  -28.7593    9.1194 H         1 UNK         0.0808 
    151 H151      -45.1409  -29.6658    7.7091 H         1 UNK         0.0808 
    152 H152      -46.6529  -28.1764    6.2107 H         1 UNK         0.3098 
    153 H153      -46.9092  -25.8564    3.6476 H         1 UNK         0.0720 
    154 H154      -45.1909  -27.1907    2.4110 H         1 UNK         0.0791 
    155 H155      -46.8138  -27.6126    1.8965 H         1 UNK         0.0791 
    156 H156      -45.9233  -28.6838    2.9802 H         1 UNK         0.0791 
    157 H157      -48.2359  -28.3319    3.8293 H         1 UNK         0.3028 
@<TRIPOS>BOND
     1    1    2 1    
     2    1   82 1    
     3    1   83 1    
     4    1   84 1    
     5    2    3 2    
     6    2    4 am   BACKBONE|DICT|INTERRES
     7    4    5 1    
     8    4   85 1    
     9    5    6 1    
    10    5   80 1    
    11    5   86 1    
    12    6    7 1    
    13    6   87 1    
    14    6   88 1    
    15    7    8 1    
    16    8    9 1    
    17    8   89 1    
    18    8   90 1    
    19    9   10 ar   
    20    9   14 ar   
    21   10   11 ar   
    22   10   91 1    
    23   11   12 ar   
    24   11   58 1    
    25   12   13 ar   
    26   12   92 1    
    27   13   14 ar   
    28   13   15 1    
    29   14   93 1    
    30   15   16 1    
    31   15   94 1    
    32   15   95 1    
    33   16   17 1    
    34   17   18 1    
    35   17   96 1    
    36   17   97 1    
    37   18   19 1    
    38   18   22 1    
    39   18   98 1    
    40   19   20 am   BACKBONE|DICT|INTERRES
    41   19   21 2    
    42   20   99 1    
    43   20  100 1    
    44   22   23 am   BACKBONE|DICT|INTERRES
    45   22  101 1    
    46   23   24 2    
    47   23   25 1    
    48   25   26 1    
    49   25   27 1    
    50   25  102 1    
    51   26  103 1    
    52   26  104 1    
    53   26  105 1    
    54   27   28 am   BACKBONE|DICT|INTERRES
    55   27  106 1    
    56   28   29 2    
    57   28   30 1    
    58   30   31 1    
    59   30   32 1    
    60   30  107 1    
    61   31  108 1    
    62   31  109 1    
    63   31  110 1    
    64   32   33 am   BACKBONE|DICT|INTERRES
    65   32  111 1    
    66   33   34 2    
    67   33   35 1    
    68   35   36 1    
    69   35   37 1    
    70   35  112 1    
    71   36  113 1    
    72   36  114 1    
    73   36  115 1    
    74   37   38 am   BACKBONE|DICT|INTERRES
    75   37  116 1    
    76   38   39 2    
    77   38   40 1    
    78   40   41 1    
    79   40   42 1    
    80   40  117 1    
    81   41  118 1    
    82   41  119 1    
    83   41  120 1    
    84   42   43 am   BACKBONE|DICT|INTERRES
    85   42  121 1    
    86   43   44 2    
    87   43   45 1    
    88   45   46 1    
    89   45   47 1    
    90   45  122 1    
    91   46  123 1    
    92   46  124 1    
    93   46  125 1    
    94   47   48 am   BACKBONE|DICT|INTERRES
    95   47  126 1    
    96   48   49 2    
    97   48   50 1    
    98   50   51 1    
    99   50   52 1    
   100   50  127 1    
   101   51  128 1    
   102   51  129 1    
   103   51  130 1    
   104   52   53 am   BACKBONE|DICT|INTERRES
   105   52  131 1    
   106   53   54 2    
   107   53   55 1    
   108   55   56 1    
   109   55   59 1    
   110   55  132 1    
   111   56   57 1    
   112   56  133 1    
   113   56  134 1    
   114   57   58 1    
   115   58  135 1    
   116   58  136 1    
   117   59   60 am   BACKBONE|DICT|INTERRES
   118   59  137 1    
   119   60   61 2    
   120   60   62 1    
   121   62   63 1    
   122   62   64 1    
   123   62  138 1    
   124   63  139 1    
   125   63  140 1    
   126   63  141 1    
   127   64   65 am   BACKBONE|DICT|INTERRES
   128   64  142 1    
   129   65   66 2    
   130   65   67 1    
   131   67   68 1    
   132   67   69 1    
   133   67  143 1    
   134   68  144 1    
   135   68  145 1    
   136   68  146 1    
   137   69   70 am   BACKBONE|DICT|INTERRES
   138   69  147 1    
   139   70   71 2    
   140   70   72 1    
   141   72   73 1    
   142   72   74 1    
   143   72  148 1    
   144   73  149 1    
   145   73  150 1    
   146   73  151 1    
   147   74   75 am   BACKBONE|DICT|INTERRES
   148   74  152 1    
   149   75   76 2    
   150   75   77 1    
   151   77   78 1    
   152   77   79 1    
   153   77  153 1    
   154   78  154 1    
   155   78  155 1    
   156   78  156 1    
   157   79   80 am   BACKBONE|DICT|INTERRES
   158   79  157 1    
   159   80   81 2    
@<TRIPOS>SUBSTRUCTURE
     1 UNK         1 GROUP             0       ****    0 ROOT    
