@<TRIPOS>MOLECULE
3R207
157   159    1
SMALL
USER_CHARGES


@<TRIPOS>ATOM
      1 CA        -46.2358  -29.2036    0.3624 C.3       0 UNK        -0.1975 
      2 C         -47.1019  -28.6784    1.4984 C.2       0 UNK         0.4852 
      3 O         -47.2287  -27.4630    1.6569 O.2       0 UNK        -0.5216 
      4 N         -47.7028  -29.5848    2.2807 N.am      1 UNK        -0.4461 
      5 CA        -48.5161  -29.2699    3.4599 C.3       1 UNK         0.0864 
      6 C6        -49.6307  -30.3327    3.6714 C.3       14 UNK        -0.0898 
      7 S7        -51.0553  -29.6870    4.6203 S.3       14 UNK        -0.2598 
      8 C8        -51.1307  -30.8746    6.0046 C.3       14 UNK         0.0286 
      9 C9        -51.9900  -30.3875    7.1677 C.ar      14 UNK        -0.0844 
     10 C10       -51.5318  -30.5327    8.4806 C.ar      14 UNK        -0.0881 
     11 C11       -52.3315  -30.1536    9.5630 C.ar      14 UNK        -0.0643 
     12 C12       -53.5952  -29.6053    9.3243 C.ar      14 UNK        -0.0930 
     13 C13       -54.0764  -29.4581    8.0156 C.ar      14 UNK        -0.0827 
     14 C14       -53.2655  -29.8568    6.9486 C.ar      14 UNK        -0.1249 
     15 C15       -55.4878  -28.9618    7.6952 C.3       14 UNK         0.0141 
     16 S16       -56.3882  -28.1544    9.0634 S.3       14 UNK        -0.2313 
     17 C17       -55.8765  -26.4092    8.9047 C.3       14 UNK        -0.0915 
     18 CA        -55.0501  -25.8636   10.1037 C.3       13 UNK         0.0968 
     19 C         -54.8251  -24.3407    9.9428 C.2       13 UNK         0.5732 
     20 N         -53.5970  -23.8897    9.7428 N.am      13 UNK        -0.7310 
     21 O         -55.7747  -23.5593    9.9718 O.2       13 UNK        -0.5035 
     22 N         -55.7205  -26.0917   11.3884 N.am      13 UNK        -0.4233 
     23 C         -55.3207  -26.9554   12.3253 C.2       13 UNK         0.4989 
     24 O         -54.3565  -27.7137   12.2065 O.2       13 UNK        -0.4996 
     25 CA        -56.1798  -27.0135   13.6011 C.3       12 UNK         0.0216 
     26 CB        -57.3349  -28.0126   13.4208 C.3       12 UNK        -0.1964 
     27 N         -55.3899  -27.4012   14.7730 N.am      12 UNK        -0.4276 
     28 C         -54.4282  -26.6455   15.3171 C.2       12 UNK         0.5020 
     29 O         -54.1794  -25.4942   14.9463 O.2       12 UNK        -0.5489 
     30 CA        -53.6253  -27.2879   16.4633 C.3       11 UNK         0.0294 
     31 CB        -52.8622  -28.5379   15.9863 C.3       11 UNK        -0.2019 
     32 N         -52.6581  -26.3234   16.9832 N.am      11 UNK        -0.4493 
     33 C         -52.8300  -25.5709   18.0762 C.2       11 UNK         0.4932 
     34 O         -53.7671  -25.7181   18.8636 O.2       11 UNK        -0.5029 
     35 CA        -51.8058  -24.4427   18.3122 C.3       10 UNK         0.0280 
     36 CB        -51.7335  -23.9838   19.7849 C.3       10 UNK        -0.1976 
     37 N         -50.4717  -24.7335   17.7736 N.am      10 UNK        -0.4242 
     38 C         -49.6048  -25.6718   18.1881 C.2       10 UNK         0.5072 
     39 O         -49.8230  -26.4291   19.1352 O.2       10 UNK        -0.5224 
     40 CA        -48.2656  -25.8096   17.4307 C.3       9 UNK         0.0343 
     41 CB        -48.0975  -27.2337   16.8722 C.3       9 UNK        -0.2003 
     42 N         -48.0995  -24.8519   16.3342 N.am      9 UNK        -0.4272 
     43 C         -47.7683  -23.5608   16.4708 C.2       9 UNK         0.4988 
     44 O         -47.4776  -23.0390   17.5474 O.2       9 UNK        -0.5108 
     45 CA        -47.8165  -22.6923   15.1986 C.3       8 UNK         0.0248 
     46 CB        -46.4638  -22.7197   14.4702 C.3       8 UNK        -0.2001 
     47 N         -48.8912  -23.0732   14.2720 N.am      8 UNK        -0.4140 
     48 C         -50.1988  -23.0317   14.5723 C.2       8 UNK         0.5028 
     49 O         -50.6364  -22.6266   15.6492 O.2       8 UNK        -0.5428 
     50 CA        -51.1840  -23.5801   13.5266 C.3       7 UNK         0.0264 
     51 CB        -51.4365  -22.5417   12.4243 C.3       7 UNK        -0.1988 
     52 N         -50.7531  -24.8534   12.9400 N.am      7 UNK        -0.4454 
     53 C         -50.5682  -25.9808   13.6449 C.2       7 UNK         0.5027 
     54 O         -50.7873  -26.0696   14.8529 O.2       7 UNK        -0.5083 
     55 CA        -49.9604  -27.1911   12.9063 C.3       6 UNK         0.0844 
     56 C56       -51.0294  -27.9706   12.1059 C.3       14 UNK        -0.0967 
     57 S57       -50.3515  -29.5179   11.4232 S.3       14 UNK        -0.2604 
     58 C58       -51.8659  -30.4269   10.9878 C.3       14 UNK         0.0134 
     59 N         -48.8086  -26.7982   12.0897 N.am      6 UNK        -0.4116 
     60 C         -47.6832  -26.2515   12.5718 C.2       5 UNK         0.5034 
     61 O         -47.4505  -26.1000   13.7700 O.2       5 UNK        -0.5045 
     62 CA        -46.6758  -25.7193   11.5428 C.3       5 UNK         0.0224 
     63 CB        -45.7239  -26.8289   11.0679 C.3       5 UNK        -0.1978 
     64 N         -47.3565  -25.1049   10.4003 N.am      5 UNK        -0.4737 
     65 C         -48.0078  -23.9343   10.4636 C.2       4 UNK         0.5027 
     66 O         -48.0333  -23.2259   11.4696 O.2       4 UNK        -0.5211 
     67 CA        -48.7930  -23.4994    9.2144 C.3       4 UNK         0.0297 
     68 CB        -47.8799  -22.7337    8.2445 C.3       4 UNK        -0.1993 
     69 N         -49.4164  -24.6268    8.5170 N.am      4 UNK        -0.4486 
     70 C         -50.4390  -25.3454    9.0012 C.2       3 UNK         0.4961 
     71 O         -51.0156  -25.0905   10.0586 O.2       3 UNK        -0.5105 
     72 CA        -50.8765  -26.5771    8.1902 C.3       3 UNK         0.0299 
     73 CB        -51.9867  -26.2056    7.1953 C.3       3 UNK        -0.1972 
     74 N         -49.7836  -27.2429    7.4736 N.am      3 UNK        -0.4305 
     75 C         -48.6980  -27.7812    8.0546 C.2       2 UNK         0.5006 
     76 O         -48.4532  -27.6627    9.2543 O.2       2 UNK        -0.5106 
     77 CA        -47.7175  -28.5688    7.1673 C.3       2 UNK         0.0296 
     78 CB        -47.2692  -29.8811    7.8408 C.3       2 UNK        -0.2002 
     79 N         -48.2965  -28.8515    5.8546 N.am      2 UNK        -0.4032 
     80 C         -47.6321  -29.0495    4.7126 C.2       1 UNK         0.5000 
     81 O         -46.4001  -29.0579    4.6316 O.2       1 UNK        -0.5238 
     82 H82       -46.6076  -28.8366   -0.5938 H         1 UNK         0.0889 
     83 H83       -46.2259  -30.2929    0.3265 H         1 UNK         0.0889 
     84 H84       -45.2092  -28.8593    0.4844 H         1 UNK         0.0889 
     85 H85       -47.5283  -30.5667    2.1199 H         1 UNK         0.3028 
     86 H86       -49.0102  -28.3148    3.2667 H         1 UNK         0.0864 
     87 H87       -49.2308  -31.2390    4.1302 H         1 UNK         0.0720 
     88 H88       -50.0290  -30.6463    2.7048 H         1 UNK         0.0720 
     89 H89       -50.1188  -31.0877    6.3522 H         1 UNK         0.0814 
     90 H90       -51.5353  -31.8192    5.6387 H         1 UNK         0.0814 
     91 H91       -50.5614  -30.9704    8.6708 H         1 UNK         0.1469 
     92 H92       -54.2139  -29.3371   10.1681 H         1 UNK         0.1381 
     93 H93       -53.6390  -29.7724    5.9370 H         1 UNK         0.1206 
     94 H94       -56.0758  -29.8257    7.3830 H         1 UNK         0.0813 
     95 H95       -55.4607  -28.2920    6.8345 H         1 UNK         0.0813 
     96 H96       -56.7928  -25.8292    8.7783 H         1 UNK         0.0638 
     97 H97       -55.3130  -26.2792    7.9796 H         1 UNK         0.0638 
     98 H98       -54.0753  -26.3567   10.0977 H         1 UNK         0.0568 
     99 H99       -53.4686  -22.8992    9.6168 H         1 UNK         0.3450 
    100 H100      -52.7827  -24.4920    9.8055 H         1 UNK         0.3450 
    101 H101      -56.5069  -25.4844   11.5705 H         1 UNK         0.2987 
    102 H102      -56.5983  -26.0220   13.7878 H         1 UNK         0.0766 
    103 H103      -57.9784  -28.0414   14.3004 H         1 UNK         0.0798 
    104 H104      -56.9683  -29.0236   13.2370 H         1 UNK         0.0798 
    105 H105      -57.9618  -27.7370   12.5714 H         1 UNK         0.0798 
    106 H106      -55.5187  -28.3434   15.1114 H         1 UNK         0.3198 
    107 H107      -54.3264  -27.5833   17.2467 H         1 UNK         0.0843 
    108 H108      -52.2057  -28.3159   15.1457 H         1 UNK         0.0831 
    109 H109      -53.5444  -29.3257   15.6661 H         1 UNK         0.0831 
    110 H110      -52.2474  -28.9526   16.7854 H         1 UNK         0.0831 
    111 H111      -51.9012  -26.0911   16.3420 H         1 UNK         0.3133 
    112 H112      -52.1725  -23.5950   17.7321 H         1 UNK         0.0566 
    113 H113      -51.0084  -23.1805   19.9151 H         1 UNK         0.0814 
    114 H114      -52.6985  -23.6047   20.1234 H         1 UNK         0.0814 
    115 H115      -51.4558  -24.8000   20.4523 H         1 UNK         0.0814 
    116 H116      -50.2144  -24.1698   16.9699 H         1 UNK         0.3091 
    117 H117      -47.4697  -25.6380   18.1582 H         1 UNK         0.0702 
    118 H118      -47.1370  -27.3521   16.3701 H         1 UNK         0.0785 
    119 H119      -48.8813  -27.4800   16.1556 H         1 UNK         0.0785 
    120 H120      -48.1392  -27.9771   17.6691 H         1 UNK         0.0785 
    121 H121      -48.2520  -25.2131   15.3974 H         1 UNK         0.2998 
    122 H122      -48.0098  -21.6643   15.5120 H         1 UNK         0.0697 
    123 H123      -46.2005  -23.7260   14.1455 H         1 UNK         0.0825 
    124 H124      -45.6634  -22.3697   15.1233 H         1 UNK         0.0825 
    125 H125      -46.4714  -22.0745   13.5915 H         1 UNK         0.0825 
    126 H126      -48.6129  -23.3590   13.3367 H         1 UNK         0.3029 
    127 H127      -52.1313  -23.7645   14.0387 H         1 UNK         0.0897 
    128 H128      -52.2372  -22.8630   11.7627 H         1 UNK         0.0792 
    129 H129      -51.7387  -21.5844   12.8511 H         1 UNK         0.0792 
    130 H130      -50.5487  -22.3636   11.8184 H         1 UNK         0.0792 
    131 H131      -50.6068  -24.8728   11.9342 H         1 UNK         0.3086 
    132 H132      -49.5787  -27.8633   13.6781 H         1 UNK         0.0583 
    133 H133      -51.8661  -28.2250   12.7577 H         1 UNK         0.1020 
    134 H134      -51.4463  -27.3704   11.2971 H         1 UNK         0.1020 
    135 H135      -51.6636  -31.4945   11.0839 H         1 UNK         0.0694 
    136 H136      -52.6532  -30.2043   11.7098 H         1 UNK         0.0694 
    137 H137      -48.8799  -26.9589   11.0897 H         1 UNK         0.2989 
    138 H138      -46.0753  -24.9503   12.0333 H         1 UNK         0.1055 
    139 H139      -45.1567  -27.2341   11.9069 H         1 UNK         0.0806 
    140 H140      -45.0030  -26.4509   10.3429 H         1 UNK         0.0806 
    141 H141      -46.2570  -27.6615   10.6094 H         1 UNK         0.0806 
    142 H142      -47.4524  -25.6746    9.5705 H         1 UNK         0.3061 
    143 H143      -49.5863  -22.8232    9.5403 H         1 UNK         0.0734 
    144 H144      -48.4391  -22.3523    7.3899 H         1 UNK         0.0832 
    145 H145      -47.4220  -21.8753    8.7385 H         1 UNK         0.0832 
    146 H146      -47.0714  -23.3605    7.8663 H         1 UNK         0.0832 
    147 H147      -49.0124  -24.9029    7.6342 H         1 UNK         0.3156 
    148 H148      -51.2870  -27.3033    8.8946 H         1 UNK         0.0589 
    149 H149      -51.6391  -25.4940    6.4456 H         1 UNK         0.0808 
    150 H150      -52.8357  -25.7519    7.7061 H         1 UNK         0.0808 
    151 H151      -52.3629  -27.0863    6.6745 H         1 UNK         0.0808 
    152 H152      -49.8903  -27.3107    6.4736 H         1 UNK         0.3098 
    153 H153      -46.8427  -27.9293    7.0337 H         1 UNK         0.0720 
    154 H154      -46.7985  -29.6880    8.8058 H         1 UNK         0.0791 
    155 H155      -46.5400  -30.4140    7.2306 H         1 UNK         0.0791 
    156 H156      -48.1121  -30.5494    8.0177 H         1 UNK         0.0791 
    157 H157      -49.3048  -28.9384    5.8193 H         1 UNK         0.3028 
@<TRIPOS>BOND
     1    1    2 1    
     2    1   82 1    
     3    1   83 1    
     4    1   84 1    
     5    2    3 2    
     6    2    4 am   BACKBONE|DICT|INTERRES
     7    4    5 1    
     8    4   85 1    
     9    5    6 1    
    10    5   80 1    
    11    5   86 1    
    12    6    7 1    
    13    6   87 1    
    14    6   88 1    
    15    7    8 1    
    16    8    9 1    
    17    8   89 1    
    18    8   90 1    
    19    9   10 ar   
    20    9   14 ar   
    21   10   11 ar   
    22   10   91 1    
    23   11   12 ar   
    24   11   58 1    
    25   12   13 ar   
    26   12   92 1    
    27   13   14 ar   
    28   13   15 1    
    29   14   93 1    
    30   15   16 1    
    31   15   94 1    
    32   15   95 1    
    33   16   17 1    
    34   17   18 1    
    35   17   96 1    
    36   17   97 1    
    37   18   19 1    
    38   18   22 1    
    39   18   98 1    
    40   19   20 am   BACKBONE|DICT|INTERRES
    41   19   21 2    
    42   20   99 1    
    43   20  100 1    
    44   22   23 am   BACKBONE|DICT|INTERRES
    45   22  101 1    
    46   23   24 2    
    47   23   25 1    
    48   25   26 1    
    49   25   27 1    
    50   25  102 1    
    51   26  103 1    
    52   26  104 1    
    53   26  105 1    
    54   27   28 am   BACKBONE|DICT|INTERRES
    55   27  106 1    
    56   28   29 2    
    57   28   30 1    
    58   30   31 1    
    59   30   32 1    
    60   30  107 1    
    61   31  108 1    
    62   31  109 1    
    63   31  110 1    
    64   32   33 am   BACKBONE|DICT|INTERRES
    65   32  111 1    
    66   33   34 2    
    67   33   35 1    
    68   35   36 1    
    69   35   37 1    
    70   35  112 1    
    71   36  113 1    
    72   36  114 1    
    73   36  115 1    
    74   37   38 am   BACKBONE|DICT|INTERRES
    75   37  116 1    
    76   38   39 2    
    77   38   40 1    
    78   40   41 1    
    79   40   42 1    
    80   40  117 1    
    81   41  118 1    
    82   41  119 1    
    83   41  120 1    
    84   42   43 am   BACKBONE|DICT|INTERRES
    85   42  121 1    
    86   43   44 2    
    87   43   45 1    
    88   45   46 1    
    89   45   47 1    
    90   45  122 1    
    91   46  123 1    
    92   46  124 1    
    93   46  125 1    
    94   47   48 am   BACKBONE|DICT|INTERRES
    95   47  126 1    
    96   48   49 2    
    97   48   50 1    
    98   50   51 1    
    99   50   52 1    
   100   50  127 1    
   101   51  128 1    
   102   51  129 1    
   103   51  130 1    
   104   52   53 am   BACKBONE|DICT|INTERRES
   105   52  131 1    
   106   53   54 2    
   107   53   55 1    
   108   55   56 1    
   109   55   59 1    
   110   55  132 1    
   111   56   57 1    
   112   56  133 1    
   113   56  134 1    
   114   57   58 1    
   115   58  135 1    
   116   58  136 1    
   117   59   60 am   BACKBONE|DICT|INTERRES
   118   59  137 1    
   119   60   61 2    
   120   60   62 1    
   121   62   63 1    
   122   62   64 1    
   123   62  138 1    
   124   63  139 1    
   125   63  140 1    
   126   63  141 1    
   127   64   65 am   BACKBONE|DICT|INTERRES
   128   64  142 1    
   129   65   66 2    
   130   65   67 1    
   131   67   68 1    
   132   67   69 1    
   133   67  143 1    
   134   68  144 1    
   135   68  145 1    
   136   68  146 1    
   137   69   70 am   BACKBONE|DICT|INTERRES
   138   69  147 1    
   139   70   71 2    
   140   70   72 1    
   141   72   73 1    
   142   72   74 1    
   143   72  148 1    
   144   73  149 1    
   145   73  150 1    
   146   73  151 1    
   147   74   75 am   BACKBONE|DICT|INTERRES
   148   74  152 1    
   149   75   76 2    
   150   75   77 1    
   151   77   78 1    
   152   77   79 1    
   153   77  153 1    
   154   78  154 1    
   155   78  155 1    
   156   78  156 1    
   157   79   80 am   BACKBONE|DICT|INTERRES
   158   79  157 1    
   159   80   81 2    
@<TRIPOS>SUBSTRUCTURE
     1 UNK         1 GROUP             0       ****    0 ROOT    
