@<TRIPOS>MOLECULE
3R207
157   159    1
SMALL
USER_CHARGES


@<TRIPOS>ATOM
      1 CA        -50.7944  -29.3549    1.0374 C.3       0 UNK        -0.1975 
      2 C         -50.7611  -28.6470    2.3841 C.2       0 UNK         0.4852 
      3 O         -50.8697  -27.4205    2.4327 O.2       0 UNK        -0.5216 
      4 N         -50.6210  -29.4110    3.4746 N.am      1 UNK        -0.4461 
      5 CA        -50.4946  -28.9061    4.8454 C.3       1 UNK         0.0864 
      6 C6        -51.0536  -29.9287    5.8669 C.3       14 UNK        -0.0898 
      7 S7        -50.0982  -31.4844    6.0062 S.3       14 UNK        -0.2598 
      8 C8        -51.1452  -32.4818    7.1286 C.3       14 UNK         0.0286 
      9 C9        -51.6332  -31.7108    8.3521 C.ar      14 UNK        -0.0844 
     10 C10       -50.7505  -30.9260    9.1006 C.ar      14 UNK        -0.0881 
     11 C11       -51.2216  -30.1256   10.1430 C.ar      14 UNK        -0.0643 
     12 C12       -52.5770  -30.1571   10.4821 C.ar      14 UNK        -0.0930 
     13 C13       -53.4615  -30.9775    9.7753 C.ar      14 UNK        -0.0827 
     14 C14       -52.9844  -31.7495    8.7108 C.ar      14 UNK        -0.1249 
     15 C15       -54.9332  -31.0257   10.1547 C.3       14 UNK         0.0141 
     16 S16       -55.9714  -30.1913    8.9152 S.3       14 UNK        -0.2313 
     17 C17       -57.6027  -30.2848    9.7289 C.3       14 UNK        -0.0915 
     18 CA        -58.2593  -28.8878    9.9534 C.3       13 UNK         0.0968 
     19 C         -59.6733  -28.9585   10.6099 C.2       13 UNK         0.5732 
     20 N         -60.4661  -29.9809   10.3155 N.am      13 UNK        -0.7310 
     21 O         -60.0873  -28.0651   11.3477 O.2       13 UNK        -0.5035 
     22 N         -57.3665  -27.9184   10.6127 N.am      13 UNK        -0.4233 
     23 C         -56.8647  -28.0161   11.8490 C.2       13 UNK         0.4989 
     24 O         -57.0452  -28.9725   12.6087 O.2       13 UNK        -0.4996 
     25 CA        -56.0184  -26.8284   12.3190 C.3       12 UNK         0.0216 
     26 CB        -56.9105  -25.6481   12.7509 C.3       12 UNK        -0.1964 
     27 N         -55.1833  -27.2605   13.4356 N.am      12 UNK        -0.4276 
     28 C         -54.0474  -26.6753   13.8235 C.2       12 UNK         0.5020 
     29 O         -53.5669  -25.6802   13.2750 O.2       12 UNK        -0.5489 
     30 CA        -53.3104  -27.3375   14.9955 C.3       11 UNK         0.0294 
     31 CB        -52.3500  -28.4213   14.4785 C.3       11 UNK        -0.2019 
     32 N         -52.5296  -26.3354   15.7145 N.am      11 UNK        -0.4493 
     33 C         -52.8502  -25.7888   16.8927 C.2       11 UNK         0.4932 
     34 O         -53.8497  -26.1008   17.5432 O.2       11 UNK        -0.5029 
     35 CA        -51.8808  -24.7139   17.4278 C.3       10 UNK         0.0280 
     36 CB        -52.1063  -24.3717   18.9160 C.3       10 UNK        -0.1976 
     37 N         -50.4756  -25.0465   17.1645 N.am      10 UNK        -0.4242 
     38 C         -49.7843  -26.1063   17.6136 C.2       10 UNK         0.5072 
     39 O         -50.2200  -26.9130   18.4365 O.2       10 UNK        -0.5224 
     40 CA        -48.3748  -26.3376   17.0310 C.3       9 UNK         0.0343 
     41 CB        -48.3744  -27.5792   16.1228 C.3       9 UNK        -0.2003 
     42 N         -47.8484  -25.1981   16.2734 N.am      9 UNK        -0.4272 
     43 C         -47.3819  -24.0667   16.8204 C.2       9 UNK         0.4988 
     44 O         -47.2839  -23.8832   18.0341 O.2       9 UNK        -0.5108 
     45 CA        -46.9833  -22.9372   15.8534 C.3       8 UNK         0.0248 
     46 CB        -45.5423  -23.1355   15.3569 C.3       8 UNK        -0.2001 
     47 N         -47.8886  -22.8071   14.7062 N.am      8 UNK        -0.4140 
     48 C         -49.1906  -22.4927   14.7919 C.2       8 UNK         0.5028 
     49 O         -49.7654  -22.2373   15.8499 O.2       8 UNK        -0.5428 
     50 CA        -50.0080  -22.5288   13.4885 C.3       7 UNK         0.0264 
     51 CB        -49.7696  -21.2631   12.6505 C.3       7 UNK        -0.1988 
     52 N         -49.7372  -23.7221   12.6827 N.am      7 UNK        -0.4454 
     53 C         -49.9462  -24.9809   13.0992 C.2       7 UNK         0.5027 
     54 O         -50.4212  -25.2725   14.1952 O.2       7 UNK        -0.5083 
     55 CA        -49.4879  -26.1074   12.1607 C.3       6 UNK         0.0844 
     56 C56       -50.5621  -26.3958   11.0841 C.3       14 UNK        -0.0967 
     57 S57       -50.0344  -27.6688    9.8954 S.3       14 UNK        -0.2604 
     58 C58       -50.2657  -29.1933   10.8618 C.3       14 UNK         0.0134 
     59 N         -48.1655  -25.8088   11.6077 N.am      6 UNK        -0.4116 
     60 C         -47.0310  -25.7937   12.3218 C.2       5 UNK         0.5034 
     61 O         -46.9681  -26.0739   13.5185 O.2       5 UNK        -0.5045 
     62 CA        -45.7600  -25.3386   11.5882 C.3       5 UNK         0.0224 
     63 CB        -45.1073  -26.5166   10.8520 C.3       5 UNK        -0.1978 
     64 N         -46.0266  -24.2470   10.6473 N.am      5 UNK        -0.4737 
     65 C         -46.3802  -23.0122   11.0337 C.2       4 UNK         0.5027 
     66 O         -46.4611  -22.6668   12.2117 O.2       4 UNK        -0.5211 
     67 CA        -46.7503  -22.0013    9.9365 C.3       4 UNK         0.0297 
     68 CB        -45.5129  -21.1944    9.5145 C.3       4 UNK        -0.1993 
     69 N         -47.3664  -22.6035    8.7525 N.am      4 UNK        -0.4486 
     70 C         -48.4925  -23.3307    8.7365 C.2       3 UNK         0.4961 
     71 O         -49.1483  -23.5997    9.7443 O.2       3 UNK        -0.5105 
     72 CA        -48.9626  -23.8529    7.3643 C.3       3 UNK         0.0299 
     73 CB        -48.3939  -23.0500    6.1725 C.3       3 UNK        -0.1972 
     74 N         -48.7131  -25.2852    7.1534 N.am      3 UNK        -0.4305 
     75 C         -47.5685  -25.9655    7.3392 C.2       2 UNK         0.5006 
     76 O         -46.5595  -25.4842    7.8586 O.2       2 UNK        -0.5106 
     77 CA        -47.5173  -27.4178    6.8243 C.3       2 UNK         0.0296 
     78 CB        -46.9306  -28.3910    7.8628 C.3       2 UNK        -0.2002 
     79 N         -48.8230  -27.9140    6.3644 N.am      2 UNK        -0.4032 
     80 C         -49.0460  -28.4484    5.1532 C.2       1 UNK         0.5000 
     81 O         -48.1618  -28.5877    4.3013 O.2       1 UNK        -0.5238 
     82 H82       -51.7308  -29.1400    0.5231 H         1 UNK         0.0889 
     83 H83       -50.7060  -30.4362    1.1428 H         1 UNK         0.0889 
     84 H84       -49.9732  -29.0072    0.4112 H         1 UNK         0.0889 
     85 H85       -50.4974  -30.4085    3.3737 H         1 UNK         0.3028 
     86 H86       -51.1154  -28.0109    4.9267 H         1 UNK         0.0864 
     87 H87       -52.0818  -30.1834    5.6039 H         1 UNK         0.0720 
     88 H88       -51.1183  -29.4594    6.8487 H         1 UNK         0.0720 
     89 H89       -50.5806  -33.3541    7.4597 H         1 UNK         0.0814 
     90 H90       -51.9924  -32.8616    6.5553 H         1 UNK         0.0814 
     91 H91       -49.7042  -30.8861    8.8293 H         1 UNK         0.1469 
     92 H92       -52.9433  -29.5343   11.2866 H         1 UNK         0.1381 
     93 H93       -53.6760  -32.3608    8.1468 H         1 UNK         0.1206 
     94 H94       -55.0917  -30.5618   11.1297 H         1 UNK         0.0813 
     95 H95       -55.2502  -32.0652   10.2510 H         1 UNK         0.0813 
     96 H96       -57.5159  -30.8209   10.6754 H         1 UNK         0.0638 
     97 H97       -58.2338  -30.9044    9.0905 H         1 UNK         0.0638 
     98 H98       -58.4437  -28.4615    8.9669 H         1 UNK         0.0568 
     99 H99       -61.3872  -30.0167   10.7236 H         1 UNK         0.3450 
    100 H100      -60.1642  -30.7153    9.6953 H         1 UNK         0.3450 
    101 H101      -57.1810  -27.0801   10.0822 H         1 UNK         0.2987 
    102 H102      -55.3746  -26.5197   11.4922 H         1 UNK         0.0766 
    103 H103      -56.3135  -24.7899   13.0603 H         1 UNK         0.0798 
    104 H104      -57.5606  -25.9208   13.5832 H         1 UNK         0.0798 
    105 H105      -57.5504  -25.3157   11.9326 H         1 UNK         0.0798 
    106 H106      -55.5045  -28.1117   13.8826 H         1 UNK         0.3198 
    107 H107      -54.0419  -27.8005   15.6615 H         1 UNK         0.0843 
    108 H108      -52.8839  -29.1906   13.9194 H         1 UNK         0.0831 
    109 H109      -51.8353  -28.9167   15.3021 H         1 UNK         0.0831 
    110 H110      -51.5912  -27.9997   13.8195 H         1 UNK         0.0831 
    111 H111      -51.7400  -25.9445   15.1994 H         1 UNK         0.3133 
    112 H112      -52.0847  -23.8112   16.8500 H         1 UNK         0.0566 
    113 H113      -51.4107  -23.6043   19.2554 H         1 UNK         0.0814 
    114 H114      -53.1146  -23.9895   19.0793 H         1 UNK         0.0814 
    115 H115      -51.9835  -25.2447   19.5575 H         1 UNK         0.0814 
    116 H116      -50.0248  -24.4621   16.4708 H         1 UNK         0.3091 
    117 H117      -47.7041  -26.5306   17.8708 H         1 UNK         0.0702 
    118 H118      -47.3743  -27.7963   15.7472 H         1 UNK         0.0785 
    119 H119      -49.0337  -27.4493   15.2640 H         1 UNK         0.0785 
    120 H120      -48.7155  -28.4625   16.6643 H         1 UNK         0.0785 
    121 H121      -47.8346  -25.2951   15.2636 H         1 UNK         0.2998 
    122 H122      -47.0241  -21.9986   16.4099 H         1 UNK         0.0697 
    123 H123      -45.4419  -24.0444   14.7627 H         1 UNK         0.0825 
    124 H124      -44.8470  -23.2129   16.1937 H         1 UNK         0.0825 
    125 H125      -45.2164  -22.2969   14.7412 H         1 UNK         0.0825 
    126 H126      -47.4766  -22.9398   13.7848 H         1 UNK         0.3029 
    127 H127      -51.0648  -22.5593   13.7632 H         1 UNK         0.0897 
    128 H128      -50.3523  -21.2789   11.7292 H         1 UNK         0.0792 
    129 H129      -50.0629  -20.3711   13.2056 H         1 UNK         0.0792 
    130 H130      -48.7201  -21.1459   12.3829 H         1 UNK         0.0792 
    131 H131      -49.3729  -23.5790   11.7450 H         1 UNK         0.3086 
    132 H132      -49.3835  -27.0078   12.7696 H         1 UNK         0.0583 
    133 H133      -51.5011  -26.7068   11.5468 H         1 UNK         0.1020 
    134 H134      -50.7977  -25.4932   10.5176 H         1 UNK         0.1020 
    135 H135      -49.2979  -29.6790   10.9949 H         1 UNK         0.0694 
    136 H136      -50.6345  -28.9712   11.8630 H         1 UNK         0.0694 
    137 H137      -48.1422  -25.5091   10.6430 H         1 UNK         0.2989 
    138 H138      -45.0566  -24.9744   12.3405 H         1 UNK         0.1055 
    139 H139      -44.8474  -27.3154   11.5480 H         1 UNK         0.0806 
    140 H140      -44.1901  -26.2131   10.3470 H         1 UNK         0.0806 
    141 H141      -45.7775  -26.9406   10.1059 H         1 UNK         0.0806 
    142 H142      -46.0260  -24.4737    9.6574 H         1 UNK         0.3061 
    143 H143      -47.4785  -21.3087   10.3616 H         1 UNK         0.0734 
    144 H144      -45.0482  -20.7149   10.3774 H         1 UNK         0.0832 
    145 H145      -44.7571  -21.8277    9.0482 H         1 UNK         0.0832 
    146 H146      -45.7733  -20.4045    8.8098 H         1 UNK         0.0832 
    147 H147      -46.8839  -22.4703    7.8757 H         1 UNK         0.3156 
    148 H148      -50.0462  -23.7258    7.3546 H         1 UNK         0.0589 
    149 H149      -47.3218  -23.2033    6.0432 H         1 UNK         0.0808 
    150 H150      -48.8774  -23.3442    5.2407 H         1 UNK         0.0808 
    151 H151      -48.5687  -21.9799    6.2939 H         1 UNK         0.0808 
    152 H152      -49.4818  -25.7868    6.7354 H         1 UNK         0.3098 
    153 H153      -46.8193  -27.3874    5.9855 H         1 UNK         0.0720 
    154 H154      -45.8952  -28.1360    8.0900 H         1 UNK         0.0791 
    155 H155      -46.9305  -29.4151    7.4890 H         1 UNK         0.0791 
    156 H156      -47.4856  -28.3779    8.7994 H         1 UNK         0.0791 
    157 H157      -49.5755  -27.8832    7.0391 H         1 UNK         0.3028 
@<TRIPOS>BOND
     1    1    2 1    
     2    1   82 1    
     3    1   83 1    
     4    1   84 1    
     5    2    3 2    
     6    2    4 am   BACKBONE|DICT|INTERRES
     7    4    5 1    
     8    4   85 1    
     9    5    6 1    
    10    5   80 1    
    11    5   86 1    
    12    6    7 1    
    13    6   87 1    
    14    6   88 1    
    15    7    8 1    
    16    8    9 1    
    17    8   89 1    
    18    8   90 1    
    19    9   10 ar   
    20    9   14 ar   
    21   10   11 ar   
    22   10   91 1    
    23   11   12 ar   
    24   11   58 1    
    25   12   13 ar   
    26   12   92 1    
    27   13   14 ar   
    28   13   15 1    
    29   14   93 1    
    30   15   16 1    
    31   15   94 1    
    32   15   95 1    
    33   16   17 1    
    34   17   18 1    
    35   17   96 1    
    36   17   97 1    
    37   18   19 1    
    38   18   22 1    
    39   18   98 1    
    40   19   20 am   BACKBONE|DICT|INTERRES
    41   19   21 2    
    42   20   99 1    
    43   20  100 1    
    44   22   23 am   BACKBONE|DICT|INTERRES
    45   22  101 1    
    46   23   24 2    
    47   23   25 1    
    48   25   26 1    
    49   25   27 1    
    50   25  102 1    
    51   26  103 1    
    52   26  104 1    
    53   26  105 1    
    54   27   28 am   BACKBONE|DICT|INTERRES
    55   27  106 1    
    56   28   29 2    
    57   28   30 1    
    58   30   31 1    
    59   30   32 1    
    60   30  107 1    
    61   31  108 1    
    62   31  109 1    
    63   31  110 1    
    64   32   33 am   BACKBONE|DICT|INTERRES
    65   32  111 1    
    66   33   34 2    
    67   33   35 1    
    68   35   36 1    
    69   35   37 1    
    70   35  112 1    
    71   36  113 1    
    72   36  114 1    
    73   36  115 1    
    74   37   38 am   BACKBONE|DICT|INTERRES
    75   37  116 1    
    76   38   39 2    
    77   38   40 1    
    78   40   41 1    
    79   40   42 1    
    80   40  117 1    
    81   41  118 1    
    82   41  119 1    
    83   41  120 1    
    84   42   43 am   BACKBONE|DICT|INTERRES
    85   42  121 1    
    86   43   44 2    
    87   43   45 1    
    88   45   46 1    
    89   45   47 1    
    90   45  122 1    
    91   46  123 1    
    92   46  124 1    
    93   46  125 1    
    94   47   48 am   BACKBONE|DICT|INTERRES
    95   47  126 1    
    96   48   49 2    
    97   48   50 1    
    98   50   51 1    
    99   50   52 1    
   100   50  127 1    
   101   51  128 1    
   102   51  129 1    
   103   51  130 1    
   104   52   53 am   BACKBONE|DICT|INTERRES
   105   52  131 1    
   106   53   54 2    
   107   53   55 1    
   108   55   56 1    
   109   55   59 1    
   110   55  132 1    
   111   56   57 1    
   112   56  133 1    
   113   56  134 1    
   114   57   58 1    
   115   58  135 1    
   116   58  136 1    
   117   59   60 am   BACKBONE|DICT|INTERRES
   118   59  137 1    
   119   60   61 2    
   120   60   62 1    
   121   62   63 1    
   122   62   64 1    
   123   62  138 1    
   124   63  139 1    
   125   63  140 1    
   126   63  141 1    
   127   64   65 am   BACKBONE|DICT|INTERRES
   128   64  142 1    
   129   65   66 2    
   130   65   67 1    
   131   67   68 1    
   132   67   69 1    
   133   67  143 1    
   134   68  144 1    
   135   68  145 1    
   136   68  146 1    
   137   69   70 am   BACKBONE|DICT|INTERRES
   138   69  147 1    
   139   70   71 2    
   140   70   72 1    
   141   72   73 1    
   142   72   74 1    
   143   72  148 1    
   144   73  149 1    
   145   73  150 1    
   146   73  151 1    
   147   74   75 am   BACKBONE|DICT|INTERRES
   148   74  152 1    
   149   75   76 2    
   150   75   77 1    
   151   77   78 1    
   152   77   79 1    
   153   77  153 1    
   154   78  154 1    
   155   78  155 1    
   156   78  156 1    
   157   79   80 am   BACKBONE|DICT|INTERRES
   158   79  157 1    
   159   80   81 2    
@<TRIPOS>SUBSTRUCTURE
     1 UNK         1 GROUP             0       ****    0 ROOT    
