@<TRIPOS>MOLECULE
3R207
157   159    1
SMALL
USER_CHARGES


@<TRIPOS>ATOM
      1 CA        -44.8654  -30.5705    6.3171 C.3       0 UNK        -0.1975 
      2 C         -45.8972  -29.9218    5.4064 C.2       0 UNK         0.4852 
      3 O         -45.6504  -29.7717    4.2094 O.2       0 UNK        -0.5216 
      4 N         -47.0500  -29.5318    5.9666 N.am      1 UNK        -0.4461 
      5 CA        -48.1725  -28.9089    5.2490 C.3       1 UNK         0.0864 
      6 C6        -49.4706  -28.9231    6.0932 C.3       14 UNK        -0.0898 
      7 S7        -49.9459  -30.5825    6.6844 S.3       14 UNK        -0.2598 
      8 C8        -51.7629  -30.4507    6.6952 C.3       14 UNK         0.0286 
      9 C9        -52.2599  -29.4956    7.7726 C.ar      14 UNK        -0.0844 
     10 C10       -52.4216  -28.1365    7.4920 C.ar      14 UNK        -0.0881 
     11 C11       -52.8752  -27.2526    8.4743 C.ar      14 UNK        -0.0643 
     12 C12       -53.2093  -27.7432    9.7408 C.ar      14 UNK        -0.0930 
     13 C13       -53.0758  -29.1067   10.0279 C.ar      14 UNK        -0.0827 
     14 C14       -52.5806  -29.9723    9.0462 C.ar      14 UNK        -0.1249 
     15 C15       -53.4709  -29.6522   11.3928 C.3       14 UNK         0.0141 
     16 S16       -54.8513  -30.8319   11.2573 S.3       14 UNK        -0.2313 
     17 C17       -55.1421  -31.2577   13.0064 C.3       14 UNK        -0.0915 
     18 CA        -56.5605  -30.8434   13.4784 C.3       13 UNK         0.0968 
     19 C         -56.8783  -31.4148   14.8915 C.2       13 UNK         0.5732 
     20 N         -57.1997  -30.5982   15.8881 N.am      13 UNK        -0.7310 
     21 O         -56.8448  -32.6279   15.0848 O.2       13 UNK        -0.5035 
     22 N         -56.7632  -29.3925   13.3512 N.am      13 UNK        -0.4233 
     23 C         -57.9387  -28.7804   13.1851 C.2       13 UNK         0.4989 
     24 O         -59.0157  -29.3730   13.0980 O.2       13 UNK        -0.4996 
     25 CA        -57.8910  -27.2395   13.1413 C.3       12 UNK         0.0216 
     26 CB        -59.2488  -26.6149   12.7678 C.3       12 UNK        -0.1964 
     27 N         -57.4412  -26.6742   14.4178 N.am      12 UNK        -0.4276 
     28 C         -56.1801  -26.6815   14.8673 C.2       12 UNK         0.5020 
     29 O         -55.2341  -27.1684   14.2398 O.2       12 UNK        -0.5489 
     30 CA        -55.9603  -26.1143   16.2779 C.3       11 UNK         0.0294 
     31 CB        -56.2718  -27.1831   17.3385 C.3       11 UNK        -0.2019 
     32 N         -54.5768  -25.6802   16.4454 N.am      11 UNK        -0.4493 
     33 C         -54.0728  -24.5227   16.0084 C.2       11 UNK         0.4932 
     34 O         -54.7551  -23.6193   15.5230 O.2       11 UNK        -0.5029 
     35 CA        -52.5501  -24.3394   16.1240 C.3       10 UNK         0.0280 
     36 CB        -52.1241  -24.0341   17.5730 C.3       10 UNK        -0.1976 
     37 N         -51.7681  -25.4414   15.5484 N.am      10 UNK        -0.4242 
     38 C         -51.6601  -26.7161   15.9529 C.2       10 UNK         0.5072 
     39 O         -52.2597  -27.1914   16.9191 O.2       10 UNK        -0.5224 
     40 CA        -50.7082  -27.6136   15.1435 C.3       9 UNK         0.0343 
     41 CB        -51.3978  -28.1288   13.8704 C.3       9 UNK        -0.2003 
     42 N         -49.4589  -26.9323   14.7934 N.am      9 UNK        -0.4272 
     43 C         -48.5260  -26.5625   15.6845 C.2       9 UNK         0.4988 
     44 O         -48.5710  -26.8442   16.8828 O.2       9 UNK        -0.5108 
     45 CA        -47.3485  -25.7236   15.1596 C.3       8 UNK         0.0248 
     46 CB        -46.2718  -26.6270   14.5376 C.3       8 UNK        -0.2001 
     47 N         -47.7644  -24.6991   14.1976 N.am      8 UNK        -0.4140 
     48 C         -48.5413  -23.6472   14.4989 C.2       8 UNK         0.5028 
     49 O         -48.9282  -23.3843   15.6377 O.2       8 UNK        -0.5428 
     50 CA        -48.9840  -22.7418   13.3366 C.3       7 UNK         0.0264 
     51 CB        -47.9061  -21.6922   13.0236 C.3       7 UNK        -0.1988 
     52 N         -49.3210  -23.4827   12.1181 N.am      7 UNK        -0.4454 
     53 C         -50.3286  -24.3629   12.0118 C.2       7 UNK         0.5027 
     54 O         -51.1061  -24.6234   12.9291 O.2       7 UNK        -0.5083 
     55 CA        -50.4663  -25.1080   10.6680 C.3       6 UNK         0.0844 
     56 C56       -51.1794  -24.2050    9.6320 C.3       14 UNK        -0.0967 
     57 S57       -51.3871  -24.9717    7.9915 S.3       14 UNK        -0.2604 
     58 C58       -53.0161  -25.7755    8.1398 C.3       14 UNK         0.0134 
     59 N         -49.1706  -25.6237   10.2118 N.am      6 UNK        -0.4116 
     60 C         -48.4282  -26.5098   10.8945 C.2       5 UNK         0.5034 
     61 O         -48.7908  -27.0537   11.9377 O.2       5 UNK        -0.5045 
     62 CA        -47.0106  -26.7792   10.3701 C.3       5 UNK         0.0224 
     63 CB        -47.0149  -27.8612    9.2779 C.3       5 UNK        -0.1978 
     64 N         -46.3812  -25.5512    9.8760 N.am      5 UNK        -0.4737 
     65 C         -45.9342  -24.5709   10.6756 C.2       4 UNK         0.5027 
     66 O         -45.9623  -24.6337   11.9033 O.2       4 UNK        -0.5211 
     67 CA        -45.3994  -23.2924   10.0054 C.3       4 UNK         0.0297 
     68 CB        -43.9027  -23.4392    9.6907 C.3       4 UNK        -0.1993 
     69 N         -46.1224  -22.9358    8.7836 N.am      4 UNK        -0.4486 
     70 C         -47.4174  -22.5921    8.7323 C.2       3 UNK         0.4961 
     71 O         -48.1276  -22.4567    9.7278 O.2       3 UNK        -0.5105 
     72 CA        -48.0404  -22.4351    7.3309 C.3       3 UNK         0.0299 
     73 CB        -47.9577  -20.9727    6.8672 C.3       3 UNK        -0.1972 
     74 N         -47.4401  -23.3111    6.3139 N.am      3 UNK        -0.4305 
     75 C         -47.3914  -24.6478    6.4011 C.2       2 UNK         0.5006 
     76 O         -47.8620  -25.2814    7.3489 O.2       2 UNK        -0.5106 
     77 CA        -46.6124  -25.3857    5.3006 C.3       2 UNK         0.0296 
     78 CB        -45.0999  -25.1552    5.4677 C.3       2 UNK        -0.2002 
     79 N         -46.8728  -26.8210    5.3918 N.am      2 UNK        -0.4032 
     80 C         -47.8840  -27.4603    4.7910 C.2       1 UNK         0.5000 
     81 O         -48.6010  -26.9457    3.9300 O.2       1 UNK        -0.5238 
     82 H82       -44.6468  -31.5817    5.9748 H         1 UNK         0.0889 
     83 H83       -43.9386  -29.9977    6.3023 H         1 UNK         0.0889 
     84 H84       -45.2111  -30.6295    7.3492 H         1 UNK         0.0889 
     85 H85       -47.2175  -29.7230    6.9441 H         1 UNK         0.3028 
     86 H86       -48.3513  -29.4952    4.3450 H         1 UNK         0.0864 
     87 H87       -50.2895  -28.5273    5.4907 H         1 UNK         0.0720 
     88 H88       -49.3849  -28.2656    6.9606 H         1 UNK         0.0720 
     89 H89       -52.1843  -31.4435    6.8597 H         1 UNK         0.0814 
     90 H90       -52.1162  -30.1344    5.7125 H         1 UNK         0.0814 
     91 H91       -52.1846  -27.7549    6.5090 H         1 UNK         0.1469 
     92 H92       -53.5790  -27.0659   10.4986 H         1 UNK         0.1381 
     93 H93       -52.4679  -31.0247    9.2691 H         1 UNK         0.1206 
     94 H94       -53.7609  -28.8416   12.0635 H         1 UNK         0.0813 
     95 H95       -52.6113  -30.1477   11.8460 H         1 UNK         0.0813 
     96 H96       -54.3792  -30.7965   13.6364 H         1 UNK         0.0638 
     97 H97       -55.0039  -32.3363   13.1007 H         1 UNK         0.0638 
     98 H98       -57.2741  -31.3305   12.8111 H         1 UNK         0.0568 
     99 H99       -57.2500  -29.6057   15.7361 H         1 UNK         0.3450 
    100 H100      -57.4088  -30.9864   16.7942 H         1 UNK         0.3450 
    101 H101      -55.9463  -28.8041   13.4890 H         1 UNK         0.2987 
    102 H102      -57.1743  -26.9609   12.3653 H         1 UNK         0.0766 
    103 H103      -59.6026  -26.9952   11.8085 H         1 UNK         0.0798 
    104 H104      -59.1751  -25.5310   12.6759 H         1 UNK         0.0798 
    105 H105      -60.0166  -26.8377   13.5099 H         1 UNK         0.0798 
    106 H106      -58.1624  -26.2901   15.0122 H         1 UNK         0.3198 
    107 H107      -56.6240  -25.2595   16.4266 H         1 UNK         0.0843 
    108 H108      -56.1186  -26.7961   18.3462 H         1 UNK         0.0831 
    109 H109      -55.6396  -28.0647   17.2207 H         1 UNK         0.0831 
    110 H110      -57.3097  -27.5123   17.2759 H         1 UNK         0.0831 
    111 H111      -53.9070  -26.3800   16.7585 H         1 UNK         0.3133 
    112 H112      -52.2929  -23.4665   15.5217 H         1 UNK         0.0566 
    113 H113      -52.6431  -23.1531   17.9525 H         1 UNK         0.0814 
    114 H114      -52.3477  -24.8585   18.2505 H         1 UNK         0.0814 
    115 H115      -51.0543  -23.8321   17.6332 H         1 UNK         0.0814 
    116 H116      -51.3054  -25.1991   14.6738 H         1 UNK         0.3091 
    117 H117      -50.4571  -28.4763   15.7641 H         1 UNK         0.0702 
    118 H118      -51.6582  -27.3164   13.1910 H         1 UNK         0.0785 
    119 H119      -52.3206  -28.6552   14.1182 H         1 UNK         0.0785 
    120 H120      -50.7588  -28.8251   13.3270 H         1 UNK         0.0785 
    121 H121      -49.3079  -26.7262   13.8098 H         1 UNK         0.2998 
    122 H122      -46.9027  -25.2099   16.0140 H         1 UNK         0.0697 
    123 H123      -45.4002  -26.0502   14.2277 H         1 UNK         0.0825 
    124 H124      -45.9278  -27.3735   15.2545 H         1 UNK         0.0825 
    125 H125      -46.6472  -27.1621   13.6655 H         1 UNK         0.0825 
    126 H126      -47.4073  -24.7890   13.2509 H         1 UNK         0.3029 
    127 H127      -49.8857  -22.2161   13.6581 H         1 UNK         0.0897 
    128 H128      -48.2359  -21.0040   12.2450 H         1 UNK         0.0792 
    129 H129      -47.6742  -21.0961   13.9073 H         1 UNK         0.0792 
    130 H130      -46.9775  -22.1549   12.6896 H         1 UNK         0.0792 
    131 H131      -48.7662  -23.2733   11.2902 H         1 UNK         0.3086 
    132 H132      -51.1041  -25.9762   10.8454 H         1 UNK         0.0583 
    133 H133      -52.1566  -23.8949   10.0070 H         1 UNK         0.1020 
    134 H134      -50.6206  -23.2798    9.4836 H         1 UNK         0.1020 
    135 H135      -53.6361  -25.2628    8.8763 H         1 UNK         0.0694 
    136 H136      -53.5386  -25.6769    7.1872 H         1 UNK         0.0694 
    137 H137      -48.8145  -25.2602    9.3355 H         1 UNK         0.2989 
    138 H138      -46.4148  -27.1533   11.2056 H         1 UNK         0.1055 
    139 H139      -47.4072  -28.8009    9.6693 H         1 UNK         0.0806 
    140 H140      -47.6388  -27.5823    8.4306 H         1 UNK         0.0806 
    141 H141      -46.0082  -28.0576    8.9091 H         1 UNK         0.0806 
    142 H142      -46.4287  -25.3892    8.8778 H         1 UNK         0.3061 
    143 H143      -45.5201  -22.4715   10.7152 H         1 UNK         0.0734 
    144 H144      -43.4871  -22.5134    9.2923 H         1 UNK         0.0832 
    145 H145      -43.3384  -23.6832   10.5921 H         1 UNK         0.0832 
    146 H146      -43.7160  -24.2325    8.9657 H         1 UNK         0.0832 
    147 H147      -45.6158  -23.0103    7.9141 H         1 UNK         0.3156 
    148 H148      -49.0947  -22.7075    7.4131 H         1 UNK         0.0589 
    149 H149      -48.4825  -20.8247    5.9232 H         1 UNK         0.0808 
    150 H150      -48.4177  -20.3060    7.5983 H         1 UNK         0.0808 
    151 H151      -46.9252  -20.6472    6.7341 H         1 UNK         0.0808 
    152 H152      -47.0261  -22.8586    5.5110 H         1 UNK         0.3098 
    153 H153      -46.9296  -25.0075    4.3265 H         1 UNK         0.0720 
    154 H154      -44.8431  -24.1014    5.3533 H         1 UNK         0.0791 
    155 H155      -44.7454  -25.4742    6.4490 H         1 UNK         0.0791 
    156 H156      -44.5331  -25.7044    4.7154 H         1 UNK         0.0791 
    157 H157      -46.3698  -27.3213    6.1084 H         1 UNK         0.3028 
@<TRIPOS>BOND
     1    1    2 1    
     2    1   82 1    
     3    1   83 1    
     4    1   84 1    
     5    2    3 2    
     6    2    4 am   BACKBONE|DICT|INTERRES
     7    4    5 1    
     8    4   85 1    
     9    5    6 1    
    10    5   80 1    
    11    5   86 1    
    12    6    7 1    
    13    6   87 1    
    14    6   88 1    
    15    7    8 1    
    16    8    9 1    
    17    8   89 1    
    18    8   90 1    
    19    9   10 ar   
    20    9   14 ar   
    21   10   11 ar   
    22   10   91 1    
    23   11   12 ar   
    24   11   58 1    
    25   12   13 ar   
    26   12   92 1    
    27   13   14 ar   
    28   13   15 1    
    29   14   93 1    
    30   15   16 1    
    31   15   94 1    
    32   15   95 1    
    33   16   17 1    
    34   17   18 1    
    35   17   96 1    
    36   17   97 1    
    37   18   19 1    
    38   18   22 1    
    39   18   98 1    
    40   19   20 am   BACKBONE|DICT|INTERRES
    41   19   21 2    
    42   20   99 1    
    43   20  100 1    
    44   22   23 am   BACKBONE|DICT|INTERRES
    45   22  101 1    
    46   23   24 2    
    47   23   25 1    
    48   25   26 1    
    49   25   27 1    
    50   25  102 1    
    51   26  103 1    
    52   26  104 1    
    53   26  105 1    
    54   27   28 am   BACKBONE|DICT|INTERRES
    55   27  106 1    
    56   28   29 2    
    57   28   30 1    
    58   30   31 1    
    59   30   32 1    
    60   30  107 1    
    61   31  108 1    
    62   31  109 1    
    63   31  110 1    
    64   32   33 am   BACKBONE|DICT|INTERRES
    65   32  111 1    
    66   33   34 2    
    67   33   35 1    
    68   35   36 1    
    69   35   37 1    
    70   35  112 1    
    71   36  113 1    
    72   36  114 1    
    73   36  115 1    
    74   37   38 am   BACKBONE|DICT|INTERRES
    75   37  116 1    
    76   38   39 2    
    77   38   40 1    
    78   40   41 1    
    79   40   42 1    
    80   40  117 1    
    81   41  118 1    
    82   41  119 1    
    83   41  120 1    
    84   42   43 am   BACKBONE|DICT|INTERRES
    85   42  121 1    
    86   43   44 2    
    87   43   45 1    
    88   45   46 1    
    89   45   47 1    
    90   45  122 1    
    91   46  123 1    
    92   46  124 1    
    93   46  125 1    
    94   47   48 am   BACKBONE|DICT|INTERRES
    95   47  126 1    
    96   48   49 2    
    97   48   50 1    
    98   50   51 1    
    99   50   52 1    
   100   50  127 1    
   101   51  128 1    
   102   51  129 1    
   103   51  130 1    
   104   52   53 am   BACKBONE|DICT|INTERRES
   105   52  131 1    
   106   53   54 2    
   107   53   55 1    
   108   55   56 1    
   109   55   59 1    
   110   55  132 1    
   111   56   57 1    
   112   56  133 1    
   113   56  134 1    
   114   57   58 1    
   115   58  135 1    
   116   58  136 1    
   117   59   60 am   BACKBONE|DICT|INTERRES
   118   59  137 1    
   119   60   61 2    
   120   60   62 1    
   121   62   63 1    
   122   62   64 1    
   123   62  138 1    
   124   63  139 1    
   125   63  140 1    
   126   63  141 1    
   127   64   65 am   BACKBONE|DICT|INTERRES
   128   64  142 1    
   129   65   66 2    
   130   65   67 1    
   131   67   68 1    
   132   67   69 1    
   133   67  143 1    
   134   68  144 1    
   135   68  145 1    
   136   68  146 1    
   137   69   70 am   BACKBONE|DICT|INTERRES
   138   69  147 1    
   139   70   71 2    
   140   70   72 1    
   141   72   73 1    
   142   72   74 1    
   143   72  148 1    
   144   73  149 1    
   145   73  150 1    
   146   73  151 1    
   147   74   75 am   BACKBONE|DICT|INTERRES
   148   74  152 1    
   149   75   76 2    
   150   75   77 1    
   151   77   78 1    
   152   77   79 1    
   153   77  153 1    
   154   78  154 1    
   155   78  155 1    
   156   78  156 1    
   157   79   80 am   BACKBONE|DICT|INTERRES
   158   79  157 1    
   159   80   81 2    
@<TRIPOS>SUBSTRUCTURE
     1 UNK         1 GROUP             0       ****    0 ROOT    
