@<TRIPOS>MOLECULE
3R207
157   159    1
SMALL
USER_CHARGES


@<TRIPOS>ATOM
      1 CA        -47.4621  -28.8714    4.2875 C.3       0 UNK        -0.1975 
      2 C         -48.5167  -27.8311    4.6313 C.2       0 UNK         0.4852 
      3 O         -48.6098  -26.8062    3.9540 O.2       0 UNK        -0.5216 
      4 N         -49.3027  -28.0743    5.6888 N.am      1 UNK        -0.4461 
      5 CA        -50.3513  -27.1772    6.1878 C.3       1 UNK         0.0864 
      6 C6        -51.1645  -27.8153    7.3379 C.3       14 UNK        -0.0898 
      7 S7        -52.1167  -29.2726    6.7841 S.3       14 UNK        -0.2598 
      8 C8        -51.2060  -30.6707    7.5179 C.3       14 UNK         0.0286 
      9 C9        -51.3114  -30.7013    9.0365 C.ar      14 UNK        -0.0844 
     10 C10       -50.2438  -30.2609    9.8222 C.ar      14 UNK        -0.0881 
     11 C11       -50.3208  -30.2909   11.2205 C.ar      14 UNK        -0.0643 
     12 C12       -51.4878  -30.7751   11.8222 C.ar      14 UNK        -0.0930 
     13 C13       -52.5609  -31.2311   11.0511 C.ar      14 UNK        -0.0827 
     14 C14       -52.4612  -31.1978    9.6562 C.ar      14 UNK        -0.1249 
     15 C15       -53.7964  -31.8199   11.7247 C.3       14 UNK         0.0141 
     16 S16       -55.3457  -31.0145   11.2033 S.3       14 UNK        -0.2313 
     17 C17       -55.4668  -29.5820   12.3333 C.3       14 UNK        -0.0915 
     18 CA        -54.7657  -28.2628   11.8829 C.3       13 UNK         0.0968 
     19 C         -54.9098  -27.9164   10.3693 C.2       13 UNK         0.5732 
     20 N         -53.9594  -28.3388    9.5492 N.am      13 UNK        -0.7310 
     21 O         -55.8587  -27.2753    9.9235 O.2       13 UNK        -0.5035 
     22 N         -55.1044  -27.1167   12.7461 N.am      13 UNK        -0.4233 
     23 C         -56.3081  -26.5540   12.9348 C.2       13 UNK         0.4989 
     24 O         -57.3785  -27.0230   12.5436 O.2       13 UNK        -0.4996 
     25 CA        -56.2874  -25.2133   13.6874 C.3       12 UNK         0.0216 
     26 CB        -57.6641  -24.5159   13.7656 C.3       12 UNK        -0.1964 
     27 N         -55.6567  -25.3467   15.0032 N.am      12 UNK        -0.4276 
     28 C         -56.1393  -25.9591   16.0929 C.2       12 UNK         0.5020 
     29 O         -57.2502  -26.4880   16.1665 O.2       12 UNK        -0.5489 
     30 CA        -55.1951  -25.9654   17.3073 C.3       11 UNK         0.0294 
     31 CB        -55.8274  -26.5790   18.5758 C.3       11 UNK        -0.2019 
     32 N         -53.9068  -26.5926   16.9949 N.am      11 UNK        -0.4493 
     33 C         -53.6756  -27.8762   16.6729 C.2       11 UNK         0.4932 
     34 O         -54.5580  -28.7314   16.5964 O.2       11 UNK        -0.5029 
     35 CA        -52.2188  -28.3012   16.3862 C.3       10 UNK         0.0280 
     36 CB        -52.1013  -28.9428   14.9946 C.3       10 UNK        -0.1976 
     37 N         -51.2419  -27.2143   16.4869 N.am      10 UNK        -0.4242 
     38 C         -50.8031  -26.6569   17.6235 C.2       10 UNK         0.5072 
     39 O         -51.1092  -27.0544   18.7478 O.2       10 UNK        -0.5224 
     40 CA        -49.9171  -25.4070   17.4770 C.3       9 UNK         0.0343 
     41 CB        -48.4310  -25.7954   17.4147 C.3       9 UNK        -0.2003 
     42 N         -50.2641  -24.5969   16.3033 N.am      9 UNK        -0.4272 
     43 C         -51.4194  -23.9337   16.1433 C.2       9 UNK         0.4988 
     44 O         -52.3229  -23.9191   16.9795 O.2       9 UNK        -0.5108 
     45 CA        -51.6191  -23.2070   14.8026 C.3       8 UNK         0.0248 
     46 CB        -50.7879  -21.9149   14.7479 C.3       8 UNK        -0.2001 
     47 N         -51.2894  -24.0565   13.6564 N.am      8 UNK        -0.4140 
     48 C         -51.9848  -25.1452   13.2986 C.2       8 UNK         0.5028 
     49 O         -53.0202  -25.5131   13.8532 O.2       8 UNK        -0.5428 
     50 CA        -51.4195  -25.9976   12.1509 C.3       7 UNK         0.0264 
     51 CB        -51.9711  -25.5194   10.7997 C.3       7 UNK        -0.1988 
     52 N         -49.9576  -26.0458   12.0895 N.am      7 UNK        -0.4454 
     53 C         -49.1365  -26.4161   13.0855 C.2       7 UNK         0.5027 
     54 O         -49.5281  -26.7104   14.2146 O.2       7 UNK        -0.5083 
     55 CA        -47.6270  -26.4967   12.7713 C.3       6 UNK         0.0844 
     56 C56       -47.1449  -27.9686   12.7126 C.3       14 UNK        -0.0967 
     57 S57       -47.8344  -28.9024   11.2994 S.3       14 UNK        -0.2604 
     58 C58       -49.1710  -29.8411   12.1239 C.3       14 UNK         0.0134 
     59 N         -47.2549  -25.7635   11.5587 N.am      6 UNK        -0.4116 
     60 C         -47.2593  -24.4329   11.4100 C.2       5 UNK         0.5034 
     61 O         -47.5639  -23.6531   12.3135 O.2       5 UNK        -0.5045 
     62 CA        -46.9327  -23.8751   10.0111 C.3       5 UNK         0.0224 
     63 CB        -45.8524  -22.7755   10.0641 C.3       5 UNK        -0.1978 
     64 N         -46.6109  -24.8939    8.9993 N.am      5 UNK        -0.4737 
     65 C         -45.5222  -25.6750    8.9121 C.2       4 UNK         0.5027 
     66 O         -44.6157  -25.6959    9.7431 O.2       4 UNK        -0.5211 
     67 CA        -45.4402  -26.5927    7.6820 C.3       4 UNK         0.0297 
     68 CB        -46.1919  -27.9114    7.9319 C.3       4 UNK        -0.1993 
     69 N         -45.9781  -25.9281    6.4927 N.am      4 UNK        -0.4486 
     70 C         -45.2952  -25.0404    5.7537 C.2       3 UNK         0.4961 
     71 O         -44.1025  -24.7849    5.9213 O.2       3 UNK        -0.5105 
     72 CA        -46.0658  -24.3015    4.6449 C.3       3 UNK         0.0299 
     73 CB        -45.8487  -24.9856    3.2856 C.3       3 UNK        -0.1972 
     74 N         -47.5008  -24.1989    4.9291 N.am      3 UNK        -0.4305 
     75 C         -48.0276  -23.3193    5.7973 C.2       2 UNK         0.5006 
     76 O         -47.3659  -22.4634    6.3846 O.2       2 UNK        -0.5106 
     77 CA        -49.5388  -23.4108    6.0882 C.3       2 UNK         0.0296 
     78 CB        -50.3152  -22.4139    5.2128 C.3       2 UNK        -0.2002 
     79 N         -50.1019  -24.7523    5.9113 N.am      2 UNK        -0.4032 
     80 C         -49.7414  -25.8298    6.6210 C.2       1 UNK         0.5000 
     81 O         -48.9150  -25.7998    7.5366 O.2       1 UNK        -0.5238 
     82 H82       -47.5915  -29.2096    3.2599 H         1 UNK         0.0889 
     83 H83       -47.5191  -29.7419    4.9407 H         1 UNK         0.0889 
     84 H84       -46.4658  -28.4401    4.3819 H         1 UNK         0.0889 
     85 H85       -49.1775  -28.9263    6.2131 H         1 UNK         0.3028 
     86 H86       -51.0367  -26.9904    5.3579 H         1 UNK         0.0864 
     87 H87       -50.5155  -28.0732    8.1750 H         1 UNK         0.0720 
     88 H88       -51.8872  -27.0974    7.7294 H         1 UNK         0.0720 
     89 H89       -50.1629  -30.6354    7.2015 H         1 UNK         0.0814 
     90 H90       -51.6101  -31.5996    7.1127 H         1 UNK         0.0814 
     91 H91       -49.3508  -29.9039    9.3308 H         1 UNK         0.1469 
     92 H92       -51.5492  -30.8222   12.9000 H         1 UNK         0.1381 
     93 H93       -53.2822  -31.5579    9.0506 H         1 UNK         0.1206 
     94 H94       -53.7129  -31.7835   12.8119 H         1 UNK         0.0813 
     95 H95       -53.8551  -32.8769   11.4618 H         1 UNK         0.0813 
     96 H96       -55.0990  -29.8727   13.3184 H         1 UNK         0.0638 
     97 H97       -56.5349  -29.4130   12.4650 H         1 UNK         0.0638 
     98 H98       -53.7003  -28.4202   12.0519 H         1 UNK         0.0568 
     99 H99       -54.0414  -28.1412    8.5653 H         1 UNK         0.3450 
    100 H100      -53.2156  -28.9385    9.8743 H         1 UNK         0.3450 
    101 H101      -54.3084  -26.6195   13.1387 H         1 UNK         0.2987 
    102 H102      -55.6347  -24.5553   13.1111 H         1 UNK         0.0766 
    103 H103      -57.5979  -23.5646   14.2934 H         1 UNK         0.0798 
    104 H104      -58.4096  -25.1299   14.2711 H         1 UNK         0.0798 
    105 H105      -58.0471  -24.3066   12.7662 H         1 UNK         0.0798 
    106 H106      -54.6835  -25.0588   15.0258 H         1 UNK         0.3198 
    107 H107      -54.9772  -24.9196   17.5313 H         1 UNK         0.0843 
    108 H108      -56.1188  -27.6191   18.4271 H         1 UNK         0.0831 
    109 H109      -56.7257  -26.0316   18.8636 H         1 UNK         0.0831 
    110 H110      -55.1393  -26.5403   19.4201 H         1 UNK         0.0831 
    111 H111      -53.1151  -25.9604   17.0033 H         1 UNK         0.3133 
    112 H112      -51.9573  -29.0584   17.1280 H         1 UNK         0.0566 
    113 H113      -52.3770  -28.2424   14.2081 H         1 UNK         0.0814 
    114 H114      -51.0841  -29.2837   14.8052 H         1 UNK         0.0814 
    115 H115      -52.7571  -29.8097   14.9035 H         1 UNK         0.0814 
    116 H116      -50.8576  -26.8643   15.6131 H         1 UNK         0.3091 
    117 H117      -50.0708  -24.7894   18.3645 H         1 UNK         0.0702 
    118 H118      -47.7914  -24.9136   17.3747 H         1 UNK         0.0785 
    119 H119      -48.2079  -26.4127   16.5438 H         1 UNK         0.0785 
    120 H120      -48.1411  -26.3648   18.2989 H         1 UNK         0.0785 
    121 H121      -49.6039  -24.6069   15.5395 H         1 UNK         0.2998 
    122 H122      -52.6740  -22.9340   14.7270 H         1 UNK         0.0697 
    123 H123      -49.7162  -22.1167   14.7747 H         1 UNK         0.0825 
    124 H124      -51.0193  -21.2663   15.5942 H         1 UNK         0.0825 
    125 H125      -50.9983  -21.3477   13.8410 H         1 UNK         0.0825 
    126 H126      -50.4482  -23.8341   13.1431 H         1 UNK         0.3029 
    127 H127      -51.7580  -27.0217   12.3102 H         1 UNK         0.0897 
    128 H128      -51.6017  -24.5267   10.5394 H         1 UNK         0.0792 
    129 H129      -53.0607  -25.4670   10.8146 H         1 UNK         0.0792 
    130 H130      -51.6935  -26.2023    9.9973 H         1 UNK         0.0792 
    131 H131      -49.5402  -25.8535   11.1911 H         1 UNK         0.3086 
    132 H132      -47.1148  -26.0173   13.6082 H         1 UNK         0.0583 
    133 H133      -46.0573  -27.9888   12.6260 H         1 UNK         0.1020 
    134 H134      -47.3660  -28.4864   13.6484 H         1 UNK         0.1020 
    135 H135      -48.7332  -30.7189   12.6009 H         1 UNK         0.0694 
    136 H136      -49.5889  -29.2323   12.9248 H         1 UNK         0.0694 
    137 H137      -46.9891  -26.3277   10.7648 H         1 UNK         0.2989 
    138 H138      -47.8542  -23.4047    9.6638 H         1 UNK         0.1055 
    139 H139      -46.1661  -21.9495   10.7037 H         1 UNK         0.0806 
    140 H140      -45.6625  -22.3617    9.0734 H         1 UNK         0.0806 
    141 H141      -44.9080  -23.1490   10.4603 H         1 UNK         0.0806 
    142 H142      -47.3446  -25.0529    8.3121 H         1 UNK         0.3061 
    143 H143      -44.3883  -26.8326    7.5110 H         1 UNK         0.0734 
    144 H144      -45.7817  -28.4317    8.7985 H         1 UNK         0.0832 
    145 H145      -46.1021  -28.5862    7.0811 H         1 UNK         0.0832 
    146 H146      -47.2529  -27.7527    8.1254 H         1 UNK         0.0832 
    147 H147      -46.9677  -26.0369    6.3208 H         1 UNK         0.3156 
    148 H148      -45.6555  -23.2916    4.5754 H         1 UNK         0.0589 
    149 H149      -46.1770  -26.0247    3.2932 H         1 UNK         0.0808 
    150 H150      -46.3851  -24.4692    2.4895 H         1 UNK         0.0808 
    151 H151      -44.7914  -24.9845    3.0168 H         1 UNK         0.0808 
    152 H152      -48.1006  -24.8921    4.4910 H         1 UNK         0.3098 
    153 H153      -49.6832  -23.1303    7.1339 H         1 UNK         0.0720 
    154 H154      -51.3740  -22.3976    5.4720 H         1 UNK         0.0791 
    155 H155      -50.2311  -22.6561    4.1525 H         1 UNK         0.0791 
    156 H156      -49.9359  -21.3997    5.3463 H         1 UNK         0.0791 
    157 H157      -50.7607  -24.8671    5.1540 H         1 UNK         0.3028 
@<TRIPOS>BOND
     1    1    2 1    
     2    1   82 1    
     3    1   83 1    
     4    1   84 1    
     5    2    3 2    
     6    2    4 am   BACKBONE|DICT|INTERRES
     7    4    5 1    
     8    4   85 1    
     9    5    6 1    
    10    5   80 1    
    11    5   86 1    
    12    6    7 1    
    13    6   87 1    
    14    6   88 1    
    15    7    8 1    
    16    8    9 1    
    17    8   89 1    
    18    8   90 1    
    19    9   10 ar   
    20    9   14 ar   
    21   10   11 ar   
    22   10   91 1    
    23   11   12 ar   
    24   11   58 1    
    25   12   13 ar   
    26   12   92 1    
    27   13   14 ar   
    28   13   15 1    
    29   14   93 1    
    30   15   16 1    
    31   15   94 1    
    32   15   95 1    
    33   16   17 1    
    34   17   18 1    
    35   17   96 1    
    36   17   97 1    
    37   18   19 1    
    38   18   22 1    
    39   18   98 1    
    40   19   20 am   BACKBONE|DICT|INTERRES
    41   19   21 2    
    42   20   99 1    
    43   20  100 1    
    44   22   23 am   BACKBONE|DICT|INTERRES
    45   22  101 1    
    46   23   24 2    
    47   23   25 1    
    48   25   26 1    
    49   25   27 1    
    50   25  102 1    
    51   26  103 1    
    52   26  104 1    
    53   26  105 1    
    54   27   28 am   BACKBONE|DICT|INTERRES
    55   27  106 1    
    56   28   29 2    
    57   28   30 1    
    58   30   31 1    
    59   30   32 1    
    60   30  107 1    
    61   31  108 1    
    62   31  109 1    
    63   31  110 1    
    64   32   33 am   BACKBONE|DICT|INTERRES
    65   32  111 1    
    66   33   34 2    
    67   33   35 1    
    68   35   36 1    
    69   35   37 1    
    70   35  112 1    
    71   36  113 1    
    72   36  114 1    
    73   36  115 1    
    74   37   38 am   BACKBONE|DICT|INTERRES
    75   37  116 1    
    76   38   39 2    
    77   38   40 1    
    78   40   41 1    
    79   40   42 1    
    80   40  117 1    
    81   41  118 1    
    82   41  119 1    
    83   41  120 1    
    84   42   43 am   BACKBONE|DICT|INTERRES
    85   42  121 1    
    86   43   44 2    
    87   43   45 1    
    88   45   46 1    
    89   45   47 1    
    90   45  122 1    
    91   46  123 1    
    92   46  124 1    
    93   46  125 1    
    94   47   48 am   BACKBONE|DICT|INTERRES
    95   47  126 1    
    96   48   49 2    
    97   48   50 1    
    98   50   51 1    
    99   50   52 1    
   100   50  127 1    
   101   51  128 1    
   102   51  129 1    
   103   51  130 1    
   104   52   53 am   BACKBONE|DICT|INTERRES
   105   52  131 1    
   106   53   54 2    
   107   53   55 1    
   108   55   56 1    
   109   55   59 1    
   110   55  132 1    
   111   56   57 1    
   112   56  133 1    
   113   56  134 1    
   114   57   58 1    
   115   58  135 1    
   116   58  136 1    
   117   59   60 am   BACKBONE|DICT|INTERRES
   118   59  137 1    
   119   60   61 2    
   120   60   62 1    
   121   62   63 1    
   122   62   64 1    
   123   62  138 1    
   124   63  139 1    
   125   63  140 1    
   126   63  141 1    
   127   64   65 am   BACKBONE|DICT|INTERRES
   128   64  142 1    
   129   65   66 2    
   130   65   67 1    
   131   67   68 1    
   132   67   69 1    
   133   67  143 1    
   134   68  144 1    
   135   68  145 1    
   136   68  146 1    
   137   69   70 am   BACKBONE|DICT|INTERRES
   138   69  147 1    
   139   70   71 2    
   140   70   72 1    
   141   72   73 1    
   142   72   74 1    
   143   72  148 1    
   144   73  149 1    
   145   73  150 1    
   146   73  151 1    
   147   74   75 am   BACKBONE|DICT|INTERRES
   148   74  152 1    
   149   75   76 2    
   150   75   77 1    
   151   77   78 1    
   152   77   79 1    
   153   77  153 1    
   154   78  154 1    
   155   78  155 1    
   156   78  156 1    
   157   79   80 am   BACKBONE|DICT|INTERRES
   158   79  157 1    
   159   80   81 2    
@<TRIPOS>SUBSTRUCTURE
     1 UNK         1 GROUP             0       ****    0 ROOT    
