@<TRIPOS>MOLECULE
3R207
157   159    1
SMALL
USER_CHARGES


@<TRIPOS>ATOM
      1 CA        -47.0701  -24.4473   11.1867 C.3       0 UNK        -0.1975 
      2 C         -46.7542  -25.6185   10.2707 C.2       0 UNK         0.4852 
      3 O         -45.6332  -26.1288   10.3040 O.2       0 UNK        -0.5216 
      4 N         -47.7289  -26.0622    9.4650 N.am      1 UNK        -0.4461 
      5 CA        -47.6394  -27.2665    8.6369 C.3       1 UNK         0.0864 
      6 C6        -49.0273  -27.7308    8.1242 C.3       14 UNK        -0.0898 
      7 S7        -49.0809  -29.5454    7.9516 S.3       14 UNK        -0.2598 
      8 C8        -50.7383  -29.8120    7.2417 C.3       14 UNK         0.0286 
      9 C9        -51.8818  -29.3082    8.1189 C.ar      14 UNK        -0.0844 
     10 C10       -52.9187  -28.5731    7.5357 C.ar      14 UNK        -0.0881 
     11 C11       -53.9965  -28.1276    8.3043 C.ar      14 UNK        -0.0643 
     12 C12       -54.0326  -28.4193    9.6706 C.ar      14 UNK        -0.0930 
     13 C13       -52.9961  -29.1357   10.2729 C.ar      14 UNK        -0.0827 
     14 C14       -51.9306  -29.5924    9.4902 C.ar      14 UNK        -0.1249 
     15 C15       -53.0374  -29.3937   11.7707 C.3       14 UNK         0.0141 
     16 S16       -54.1412  -30.7799   12.1693 S.3       14 UNK        -0.2313 
     17 C17       -54.4447  -30.4999   13.9463 C.3       14 UNK        -0.0915 
     18 CA        -55.8126  -29.8075   14.1952 C.3       13 UNK         0.0968 
     19 C         -56.2377  -29.8708   15.6919 C.2       13 UNK         0.5732 
     20 N         -56.5660  -28.7664   16.3541 N.am      13 UNK        -0.7310 
     21 O         -56.2885  -30.9555   16.2666 O.2       13 UNK        -0.5035 
     22 N         -55.8410  -28.4490   13.6326 N.am      13 UNK        -0.4233 
     23 C         -56.9313  -27.8563   13.1280 C.2       13 UNK         0.4989 
     24 O         -58.0127  -28.4294   12.9840 O.2       13 UNK        -0.4996 
     25 CA        -56.7947  -26.3740   12.7152 C.3       12 UNK         0.0216 
     26 CB        -58.1402  -25.6191   12.7563 C.3       12 UNK        -0.1964 
     27 N         -55.7706  -25.6390   13.4696 N.am      12 UNK        -0.4276 
     28 C         -55.7043  -25.4787   14.7979 C.2       12 UNK         0.5020 
     29 O         -56.5349  -25.9215   15.5949 O.2       12 UNK        -0.5489 
     30 CA        -54.4573  -24.7580   15.3349 C.3       11 UNK         0.0294 
     31 CB        -54.8457  -23.4799   16.0954 C.3       11 UNK        -0.2019 
     32 N         -53.6724  -25.6305   16.2133 N.am      11 UNK        -0.4493 
     33 C         -53.1441  -26.8086   15.8575 C.2       11 UNK         0.4932 
     34 O         -53.2279  -27.2924   14.7227 O.2       11 UNK        -0.5029 
     35 CA        -52.3977  -27.5782   16.9524 C.3       10 UNK         0.0280 
     36 CB        -53.3831  -28.2835   17.9042 C.3       10 UNK        -0.1976 
     37 N         -51.5381  -28.5486   16.2882 N.am      10 UNK        -0.4242 
     38 C         -50.5824  -29.3048   16.8375 C.2       10 UNK         0.5072 
     39 O         -50.2876  -29.2922   18.0332 O.2       10 UNK        -0.5224 
     40 CA        -49.8201  -30.2315   15.8753 C.3       9 UNK         0.0343 
     41 CB        -50.5686  -31.5643   15.7056 C.3       9 UNK        -0.2003 
     42 N         -49.6172  -29.6184   14.5594 N.am      9 UNK        -0.4272 
     43 C         -48.7277  -28.6473   14.3068 C.2       9 UNK         0.4988 
     44 O         -47.9331  -28.2144   15.1416 O.2       9 UNK        -0.5108 
     45 CA        -48.7308  -28.0650   12.8817 C.3       8 UNK         0.0248 
     46 CB        -48.8379  -29.1589   11.8034 C.3       8 UNK        -0.2001 
     47 N         -49.8052  -27.0826   12.7023 N.am      8 UNK        -0.4140 
     48 C         -49.8236  -25.8632   13.2618 C.2       8 UNK         0.5028 
     49 O         -48.9132  -25.4169   13.9599 O.2       8 UNK        -0.5428 
     50 CA        -51.0506  -24.9870   12.9687 C.3       7 UNK         0.0264 
     51 CB        -50.8614  -23.5112   13.3752 C.3       7 UNK        -0.1988 
     52 N         -51.4420  -25.0684   11.5613 N.am      7 UNK        -0.4454 
     53 C         -52.6986  -24.9573   11.1178 C.2       7 UNK         0.5027 
     54 O         -53.6668  -24.8014   11.8647 O.2       7 UNK        -0.5083 
     55 CA        -52.9082  -25.0134    9.5897 C.3       6 UNK         0.0844 
     56 C56       -54.4130  -25.0764    9.2121 C.3       14 UNK        -0.0967 
     57 S57       -54.6552  -25.5650    7.4720 S.3       14 UNK        -0.2604 
     58 C58       -55.1134  -27.3191    7.6596 C.3       14 UNK         0.0134 
     59 N         -52.2576  -23.8851    8.9199 N.am      6 UNK        -0.4116 
     60 C         -50.9501  -23.7368    8.6791 C.2       5 UNK         0.5034 
     61 O         -50.0922  -24.5519    9.0307 O.2       5 UNK        -0.5045 
     62 CA        -50.5807  -22.4401    7.9330 C.3       5 UNK         0.0224 
     63 CB        -50.6933  -21.2147    8.8660 C.3       5 UNK        -0.1978 
     64 N         -49.2819  -22.4683    7.2438 N.am      5 UNK        -0.4737 
     65 C         -48.0553  -22.4532    7.7804 C.2       4 UNK         0.5027 
     66 O         -47.8141  -22.4358    8.9879 O.2       4 UNK        -0.5211 
     67 CA        -46.8884  -22.3750    6.7907 C.3       4 UNK         0.0297 
     68 CB        -46.6246  -20.9064    6.3984 C.3       4 UNK        -0.1993 
     69 N         -45.7160  -22.9662    7.4284 N.am      4 UNK        -0.4486 
     70 C         -44.5514  -23.2564    6.8392 C.2       3 UNK         0.4961 
     71 O         -44.2871  -22.9855    5.6673 O.2       3 UNK        -0.5105 
     72 CA        -43.5179  -24.0132    7.6925 C.3       3 UNK         0.0299 
     73 CB        -43.4123  -23.4758    9.1323 C.3       3 UNK        -0.1972 
     74 N         -43.8489  -25.4381    7.7149 N.am      3 UNK        -0.4305 
     75 C         -43.6587  -26.2734    6.6807 C.2       2 UNK         0.5006 
     76 O         -43.0137  -25.9820    5.6727 O.2       2 UNK        -0.5106 
     77 CA        -44.2969  -27.6726    6.7663 C.3       2 UNK         0.0296 
     78 CB        -43.2526  -28.7161    7.1963 C.3       2 UNK        -0.2002 
     79 N         -45.4496  -27.7468    7.6668 N.am      2 UNK        -0.4032 
     80 C         -46.6106  -27.0949    7.5039 C.2       1 UNK         0.5000 
     81 O         -46.8681  -26.3655    6.5435 O.2       1 UNK        -0.5238 
     82 H82       -48.1052  -24.1210   11.0860 H         1 UNK         0.0889 
     83 H83       -46.4230  -23.6008   10.9632 H         1 UNK         0.0889 
     84 H84       -46.9055  -24.7326   12.2251 H         1 UNK         0.0889 
     85 H85       -48.5925  -25.5286    9.3758 H         1 UNK         0.3028 
     86 H86       -47.2589  -28.0425    9.3046 H         1 UNK         0.0864 
     87 H87       -49.8049  -27.4530    8.8379 H         1 UNK         0.0720 
     88 H88       -49.3040  -27.2517    7.1830 H         1 UNK         0.0720 
     89 H89       -50.7683  -29.3405    6.2581 H         1 UNK         0.0814 
     90 H90       -50.8768  -30.8806    7.0733 H         1 UNK         0.0814 
     91 H91       -52.8927  -28.3456    6.4786 H         1 UNK         0.1469 
     92 H92       -54.8648  -28.0831   10.2731 H         1 UNK         0.1381 
     93 H93       -51.1363  -30.1669    9.9454 H         1 UNK         0.1206 
     94 H94       -53.3746  -28.4895   12.2783 H         1 UNK         0.0813 
     95 H95       -52.0430  -29.6105   12.1575 H         1 UNK         0.0813 
     96 H96       -54.4157  -31.4795   14.4269 H         1 UNK         0.0638 
     97 H97       -53.6275  -29.9261   14.3844 H         1 UNK         0.0638 
     98 H98       -56.5632  -30.4046   13.6741 H         1 UNK         0.0568 
     99 H99       -56.8510  -28.8464   17.3164 H         1 UNK         0.3450 
    100 H100      -56.5504  -27.8514   15.9141 H         1 UNK         0.3450 
    101 H101      -55.0021  -27.8992   13.7772 H         1 UNK         0.2987 
    102 H102      -56.4562  -26.3851   11.6790 H         1 UNK         0.0766 
    103 H103      -58.0227  -24.5824   12.4408 H         1 UNK         0.0798 
    104 H104      -58.8699  -26.0777   12.0878 H         1 UNK         0.0798 
    105 H105      -58.5718  -25.6182   13.7579 H         1 UNK         0.0798 
    106 H106      -54.9985  -25.2736   12.9076 H         1 UNK         0.3198 
    107 H107      -53.8224  -24.4680   14.4968 H         1 UNK         0.0843 
    108 H108      -55.4586  -23.7006   16.9705 H         1 UNK         0.0831 
    109 H109      -55.4210  -22.8080   15.4569 H         1 UNK         0.0831 
    110 H110      -53.9647  -22.9317   16.4296 H         1 UNK         0.0831 
    111 H111      -53.5797  -25.3310   17.1732 H         1 UNK         0.3133 
    112 H112      -51.7751  -26.8767   17.5111 H         1 UNK         0.0566 
    113 H113      -53.9222  -29.0844   17.3989 H         1 UNK         0.0814 
    114 H114      -54.1241  -27.5882   18.3006 H         1 UNK         0.0814 
    115 H115      -52.8675  -28.7214   18.7586 H         1 UNK         0.0814 
    116 H116      -51.7016  -28.6000   15.2907 H         1 UNK         0.3091 
    117 H117      -48.8433  -30.4425   16.3163 H         1 UNK         0.0702 
    118 H118      -50.0067  -32.2575   15.0793 H         1 UNK         0.0785 
    119 H119      -51.5522  -31.4256   15.2548 H         1 UNK         0.0785 
    120 H120      -50.7188  -32.0511   16.6703 H         1 UNK         0.0785 
    121 H121      -50.2035  -29.9482   13.8083 H         1 UNK         0.2998 
    122 H122      -47.7782  -27.5510   12.7337 H         1 UNK         0.0697 
    123 H123      -49.7392  -29.7623   11.8927 H         1 UNK         0.0825 
    124 H124      -47.9858  -29.8382   11.8529 H         1 UNK         0.0825 
    125 H125      -48.8447  -28.7224   10.8090 H         1 UNK         0.0825 
    126 H126      -50.5969  -27.3634   12.1434 H         1 UNK         0.3029 
    127 H127      -51.8503  -25.4013   13.5811 H         1 UNK         0.0897 
    128 H128      -51.7731  -22.9348   13.2173 H         1 UNK         0.0792 
    129 H129      -50.6071  -23.4233   14.4322 H         1 UNK         0.0792 
    130 H130      -50.0621  -23.0387   12.8030 H         1 UNK         0.0792 
    131 H131      -50.6979  -25.1361   10.8735 H         1 UNK         0.3086 
    132 H132      -52.4285  -25.9334    9.2490 H         1 UNK         0.0583 
    133 H133      -54.9574  -25.7746    9.8473 H         1 UNK         0.1020 
    134 H134      -54.8924  -24.1094    9.3757 H         1 UNK         0.1020 
    135 H135      -56.0316  -27.3950    8.2443 H         1 UNK         0.0694 
    136 H136      -55.3443  -27.7316    6.6763 H         1 UNK         0.0694 
    137 H137      -52.8832  -23.1563    8.6103 H         1 UNK         0.2989 
    138 H138      -51.3178  -22.3172    7.1373 H         1 UNK         0.1055 
    139 H139      -50.4238  -20.2944    8.3478 H         1 UNK         0.0806 
    140 H140      -50.0490  -21.3071    9.7410 H         1 UNK         0.0806 
    141 H141      -51.7124  -21.0887    9.2332 H         1 UNK         0.0806 
    142 H142      -49.3426  -22.5019    6.2351 H         1 UNK         0.3061 
    143 H143      -47.1342  -22.9616    5.9029 H         1 UNK         0.0734 
    144 H144      -47.5194  -20.4458    5.9779 H         1 UNK         0.0832 
    145 H145      -46.3266  -20.3097    7.2614 H         1 UNK         0.0832 
    146 H146      -45.8410  -20.8210    5.6460 H         1 UNK         0.0832 
    147 H147      -45.8691  -23.2067    8.3997 H         1 UNK         0.3156 
    148 H148      -42.5411  -23.8838    7.2212 H         1 UNK         0.0589 
    149 H149      -44.3122  -23.6641    9.7164 H         1 UNK         0.0808 
    150 H150      -42.5785  -23.9390    9.6601 H         1 UNK         0.0808 
    151 H151      -43.2361  -22.3991    9.1355 H         1 UNK         0.0808 
    152 H152      -44.3853  -25.7700    8.5083 H         1 UNK         0.3098 
    153 H153      -44.6462  -27.9302    5.7642 H         1 UNK         0.0720 
    154 H154      -43.6660  -29.7247    7.1758 H         1 UNK         0.0791 
    155 H155      -42.3928  -28.7075    6.5247 H         1 UNK         0.0791 
    156 H156      -42.8807  -28.5241    8.2037 H         1 UNK         0.0791 
    157 H157      -45.3216  -28.2898    8.5091 H         1 UNK         0.3028 
@<TRIPOS>BOND
     1    1    2 1    
     2    1   82 1    
     3    1   83 1    
     4    1   84 1    
     5    2    3 2    
     6    2    4 am   BACKBONE|DICT|INTERRES
     7    4    5 1    
     8    4   85 1    
     9    5    6 1    
    10    5   80 1    
    11    5   86 1    
    12    6    7 1    
    13    6   87 1    
    14    6   88 1    
    15    7    8 1    
    16    8    9 1    
    17    8   89 1    
    18    8   90 1    
    19    9   10 ar   
    20    9   14 ar   
    21   10   11 ar   
    22   10   91 1    
    23   11   12 ar   
    24   11   58 1    
    25   12   13 ar   
    26   12   92 1    
    27   13   14 ar   
    28   13   15 1    
    29   14   93 1    
    30   15   16 1    
    31   15   94 1    
    32   15   95 1    
    33   16   17 1    
    34   17   18 1    
    35   17   96 1    
    36   17   97 1    
    37   18   19 1    
    38   18   22 1    
    39   18   98 1    
    40   19   20 am   BACKBONE|DICT|INTERRES
    41   19   21 2    
    42   20   99 1    
    43   20  100 1    
    44   22   23 am   BACKBONE|DICT|INTERRES
    45   22  101 1    
    46   23   24 2    
    47   23   25 1    
    48   25   26 1    
    49   25   27 1    
    50   25  102 1    
    51   26  103 1    
    52   26  104 1    
    53   26  105 1    
    54   27   28 am   BACKBONE|DICT|INTERRES
    55   27  106 1    
    56   28   29 2    
    57   28   30 1    
    58   30   31 1    
    59   30   32 1    
    60   30  107 1    
    61   31  108 1    
    62   31  109 1    
    63   31  110 1    
    64   32   33 am   BACKBONE|DICT|INTERRES
    65   32  111 1    
    66   33   34 2    
    67   33   35 1    
    68   35   36 1    
    69   35   37 1    
    70   35  112 1    
    71   36  113 1    
    72   36  114 1    
    73   36  115 1    
    74   37   38 am   BACKBONE|DICT|INTERRES
    75   37  116 1    
    76   38   39 2    
    77   38   40 1    
    78   40   41 1    
    79   40   42 1    
    80   40  117 1    
    81   41  118 1    
    82   41  119 1    
    83   41  120 1    
    84   42   43 am   BACKBONE|DICT|INTERRES
    85   42  121 1    
    86   43   44 2    
    87   43   45 1    
    88   45   46 1    
    89   45   47 1    
    90   45  122 1    
    91   46  123 1    
    92   46  124 1    
    93   46  125 1    
    94   47   48 am   BACKBONE|DICT|INTERRES
    95   47  126 1    
    96   48   49 2    
    97   48   50 1    
    98   50   51 1    
    99   50   52 1    
   100   50  127 1    
   101   51  128 1    
   102   51  129 1    
   103   51  130 1    
   104   52   53 am   BACKBONE|DICT|INTERRES
   105   52  131 1    
   106   53   54 2    
   107   53   55 1    
   108   55   56 1    
   109   55   59 1    
   110   55  132 1    
   111   56   57 1    
   112   56  133 1    
   113   56  134 1    
   114   57   58 1    
   115   58  135 1    
   116   58  136 1    
   117   59   60 am   BACKBONE|DICT|INTERRES
   118   59  137 1    
   119   60   61 2    
   120   60   62 1    
   121   62   63 1    
   122   62   64 1    
   123   62  138 1    
   124   63  139 1    
   125   63  140 1    
   126   63  141 1    
   127   64   65 am   BACKBONE|DICT|INTERRES
   128   64  142 1    
   129   65   66 2    
   130   65   67 1    
   131   67   68 1    
   132   67   69 1    
   133   67  143 1    
   134   68  144 1    
   135   68  145 1    
   136   68  146 1    
   137   69   70 am   BACKBONE|DICT|INTERRES
   138   69  147 1    
   139   70   71 2    
   140   70   72 1    
   141   72   73 1    
   142   72   74 1    
   143   72  148 1    
   144   73  149 1    
   145   73  150 1    
   146   73  151 1    
   147   74   75 am   BACKBONE|DICT|INTERRES
   148   74  152 1    
   149   75   76 2    
   150   75   77 1    
   151   77   78 1    
   152   77   79 1    
   153   77  153 1    
   154   78  154 1    
   155   78  155 1    
   156   78  156 1    
   157   79   80 am   BACKBONE|DICT|INTERRES
   158   79  157 1    
   159   80   81 2    
@<TRIPOS>SUBSTRUCTURE
     1 UNK         1 GROUP             0       ****    0 ROOT    
