@<TRIPOS>MOLECULE
3R207
157   159    1
SMALL
USER_CHARGES


@<TRIPOS>ATOM
      1 CA        -47.1622  -30.8902    5.1237 C.3       0 UNK        -0.1975 
      2 C         -48.5460  -31.2482    5.6612 C.2       0 UNK         0.4852 
      3 O         -49.0068  -32.3661    5.4369 O.2       0 UNK        -0.5216 
      4 N         -49.2528  -30.3481    6.3616 N.am      1 UNK        -0.4461 
      5 CA        -48.8328  -29.0028    6.7767 C.3       1 UNK         0.0864 
      6 C6        -50.0292  -28.1600    7.2999 C.3       14 UNK        -0.0898 
      7 S7        -50.9509  -28.9666    8.6637 S.3       14 UNK        -0.2598 
      8 C8        -52.6409  -29.0826    7.9792 C.3       14 UNK         0.0286 
      9 C9        -53.5880  -27.9453    8.3682 C.ar      14 UNK        -0.0844 
     10 C10       -53.1510  -26.7503    8.9556 C.ar      14 UNK        -0.0881 
     11 C11       -54.0647  -25.7716    9.3559 C.ar      14 UNK        -0.0643 
     12 C12       -55.4300  -25.9770    9.1423 C.ar      14 UNK        -0.0930 
     13 C13       -55.8818  -27.1545    8.5407 C.ar      14 UNK        -0.0827 
     14 C14       -54.9559  -28.1248    8.1473 C.ar      14 UNK        -0.1249 
     15 C15       -57.3707  -27.3812    8.3255 C.3       14 UNK         0.0141 
     16 S16       -58.1712  -28.0887    9.8022 S.3       14 UNK        -0.2313 
     17 C17       -57.5474  -29.8062    9.7911 C.3       14 UNK        -0.0915 
     18 CA        -56.6922  -30.1677   11.0366 C.3       13 UNK         0.0968 
     19 C         -56.2404  -31.6586   10.9895 C.2       13 UNK         0.5732 
     20 N         -54.9504  -31.9732   11.0293 N.am      13 UNK        -0.7310 
     21 O         -57.0821  -32.5514   10.9215 O.2       13 UNK        -0.5035 
     22 N         -55.6031  -29.2039   11.2697 N.am      13 UNK        -0.4233 
     23 C         -54.9894  -29.0319   12.4458 C.2       13 UNK         0.4989 
     24 O         -55.2985  -29.6312   13.4790 O.2       13 UNK        -0.4996 
     25 CA        -53.8686  -27.9808   12.4784 C.3       12 UNK         0.0216 
     26 CB        -54.4590  -26.5999   12.8034 C.3       12 UNK        -0.1964 
     27 N         -52.8253  -28.3124   13.4549 N.am      12 UNK        -0.4276 
     28 C         -51.9964  -29.3633   13.3436 C.2       12 UNK         0.5020 
     29 O         -52.0186  -30.1363   12.3839 O.2       12 UNK        -0.5489 
     30 CA        -50.9564  -29.6027   14.4575 C.3       11 UNK         0.0294 
     31 CB        -49.5296  -29.6361   13.8828 C.3       11 UNK        -0.2019 
     32 N         -51.0057  -28.5980   15.5221 N.am      11 UNK        -0.4493 
     33 C         -51.6936  -28.7285   16.6667 C.2       11 UNK         0.4932 
     34 O         -52.3348  -29.7356   16.9671 O.2       11 UNK        -0.5029 
     35 CA        -51.6821  -27.5340   17.6446 C.3       10 UNK         0.0280 
     36 CB        -50.6205  -27.7472   18.7355 C.3       10 UNK        -0.1976 
     37 N         -51.4502  -26.2399   16.9960 N.am      10 UNK        -0.4242 
     38 C         -52.2386  -25.7038   16.0545 C.2       10 UNK         0.5072 
     39 O         -53.3150  -26.1955   15.7208 O.2       10 UNK        -0.5224 
     40 CA        -51.7316  -24.4521   15.3125 C.3       9 UNK         0.0343 
     41 CB        -52.4940  -23.2013   15.7763 C.3       9 UNK        -0.2003 
     42 N         -50.2890  -24.1952   15.4030 N.am      9 UNK        -0.4272 
     43 C         -49.3051  -25.0300   15.0386 C.2       9 UNK         0.4988 
     44 O         -49.4897  -26.1904   14.6684 O.2       9 UNK        -0.5108 
     45 CA        -47.8900  -24.4370   15.0744 C.3       8 UNK         0.0248 
     46 CB        -46.7783  -25.4895   14.9119 C.3       8 UNK        -0.2001 
     47 N         -47.7773  -23.4372   14.0140 N.am      8 UNK        -0.4140 
     48 C         -48.0083  -22.1270   14.1738 C.2       8 UNK         0.5028 
     49 O         -48.2790  -21.6055   15.2563 O.2       8 UNK        -0.5428 
     50 CA        -47.9777  -21.2657   12.9056 C.3       7 UNK         0.0264 
     51 CB        -46.5331  -21.0370   12.4312 C.3       7 UNK        -0.1988 
     52 N         -48.7468  -21.8965   11.8353 N.am      7 UNK        -0.4454 
     53 C         -50.0649  -21.7485   11.6430 C.2       7 UNK         0.5027 
     54 O         -50.7798  -21.0276   12.3416 O.2       7 UNK        -0.5083 
     55 CA        -50.6707  -22.5422   10.4618 C.3       6 UNK         0.0844 
     56 C56       -52.1330  -22.1432   10.1270 C.3       14 UNK        -0.0967 
     57 S57       -52.8873  -23.2954    8.9278 S.3       14 UNK        -0.2604 
     58 C58       -53.5738  -24.5252   10.0753 C.3       14 UNK         0.0134 
     59 N         -49.7853  -22.5406    9.2917 N.am      6 UNK        -0.4116 
     60 C         -49.3272  -21.4813    8.6094 C.2       5 UNK         0.5034 
     61 O         -49.6697  -20.3195    8.8356 O.2       5 UNK        -0.5045 
     62 CA        -48.2706  -21.7758    7.5199 C.3       5 UNK         0.0224 
     63 CB        -47.5683  -20.5005    7.0163 C.3       5 UNK        -0.1978 
     64 N         -47.2497  -22.7264    7.9832 N.am      5 UNK        -0.4737 
     65 C         -47.4212  -24.0512    8.0693 C.2       4 UNK         0.5027 
     66 O         -48.4505  -24.6149    7.6920 O.2       4 UNK        -0.5211 
     67 CA        -46.3151  -24.8861    8.7386 C.3       4 UNK         0.0297 
     68 CB        -45.2137  -24.0598    9.4423 C.3       4 UNK        -0.1993 
     69 N         -46.9209  -25.8655    9.6465 N.am      4 UNK        -0.4486 
     70 C         -47.6182  -25.6151   10.7674 C.2       3 UNK         0.4961 
     71 O         -47.7060  -24.4981   11.2826 O.2       3 UNK        -0.5105 
     72 CA        -48.4054  -26.7791   11.4051 C.3       3 UNK         0.0299 
     73 CB        -49.9114  -26.4707   11.3648 C.3       3 UNK        -0.1972 
     74 N         -48.1730  -28.0774   10.7697 N.am      3 UNK        -0.4305 
     75 C         -47.0561  -28.8127   10.8842 C.2       2 UNK         0.5006 
     76 O         -46.1253  -28.5290   11.6374 O.2       2 UNK        -0.5106 
     77 CA        -46.9336  -30.0494    9.9683 C.3       2 UNK         0.0296 
     78 CB        -47.2748  -31.3309   10.7454 C.3       2 UNK        -0.2002 
     79 N         -47.7728  -29.9799    8.7657 N.am      2 UNK        -0.4032 
     80 C         -47.6999  -29.0276    7.8225 C.2       1 UNK         0.5000 
     81 O         -46.8204  -28.1669    7.7889 O.2       1 UNK        -0.5238 
     82 H82       -46.4251  -30.8800    5.9274 H         1 UNK         0.0889 
     83 H83       -47.1610  -29.9185    4.6292 H         1 UNK         0.0889 
     84 H84       -46.8406  -31.6283    4.3882 H         1 UNK         0.0889 
     85 H85       -50.1700  -30.6180    6.6883 H         1 UNK         0.3028 
     86 H86       -48.4412  -28.4862    5.8986 H         1 UNK         0.0864 
     87 H87       -49.6921  -27.1793    7.6435 H         1 UNK         0.0720 
     88 H88       -50.7094  -27.9500    6.4736 H         1 UNK         0.0720 
     89 H89       -53.0663  -30.0191    8.3434 H         1 UNK         0.0814 
     90 H90       -52.6062  -29.1716    6.8930 H         1 UNK         0.0814 
     91 H91       -52.1007  -26.5749    9.1257 H         1 UNK         0.1469 
     92 H92       -56.1434  -25.2281    9.4587 H         1 UNK         0.1381 
     93 H93       -55.3013  -29.0359    7.6783 H         1 UNK         0.1206 
     94 H94       -57.5424  -28.0312    7.4660 H         1 UNK         0.0813 
     95 H95       -57.8537  -26.4327    8.0859 H         1 UNK         0.0813 
     96 H96       -56.9884  -29.9939    8.8750 H         1 UNK         0.0638 
     97 H97       -58.4207  -30.4589    9.7381 H         1 UNK         0.0638 
     98 H98       -57.3585  -30.1002   11.8987 H         1 UNK         0.0568 
     99 H99       -54.2468  -31.2571   11.1237 H         1 UNK         0.3450 
    100 H100      -54.6806  -32.9434   11.0018 H         1 UNK         0.3450 
    101 H101      -55.3193  -28.6547   10.4695 H         1 UNK         0.2987 
    102 H102      -53.3966  -27.9404   11.4952 H         1 UNK         0.0766 
    103 H103      -55.1789  -26.2932   12.0445 H         1 UNK         0.0798 
    104 H104      -53.6860  -25.8341   12.8519 H         1 UNK         0.0798 
    105 H105      -54.9882  -26.6049   13.7569 H         1 UNK         0.0798 
    106 H106      -52.8044  -27.7565   14.3014 H         1 UNK         0.3198 
    107 H107      -51.1677  -30.5902   14.8733 H         1 UNK         0.0843 
    108 H108      -49.2443  -28.6716   13.4663 H         1 UNK         0.0831 
    109 H109      -49.4402  -30.3760   13.0869 H         1 UNK         0.0831 
    110 H110      -48.7995  -29.8965   14.6489 H         1 UNK         0.0831 
    111 H111      -50.5006  -27.7330   15.3417 H         1 UNK         0.3133 
    112 H112      -52.6628  -27.4927   18.1229 H         1 UNK         0.0566 
    113 H113      -50.6540  -26.9553   19.4841 H         1 UNK         0.0814 
    114 H114      -49.6130  -27.7750   18.3182 H         1 UNK         0.0814 
    115 H115      -50.7824  -28.6911   19.2582 H         1 UNK         0.0814 
    116 H116      -50.5803  -25.7732   17.2057 H         1 UNK         0.3091 
    117 H117      -51.9542  -24.6086   14.2552 H         1 UNK         0.0702 
    118 H118      -52.2364  -22.3321   15.1701 H         1 UNK         0.0785 
    119 H119      -52.2789  -22.9618   16.8185 H         1 UNK         0.0785 
    120 H120      -53.5721  -23.3448   15.6900 H         1 UNK         0.0785 
    121 H121      -50.0216  -23.2608   15.6847 H         1 UNK         0.2998 
    122 H122      -47.7550  -23.9722   16.0534 H         1 UNK         0.0697 
    123 H123      -46.7580  -25.9197   13.9128 H         1 UNK         0.0825 
    124 H124      -46.9048  -26.3090   15.6206 H         1 UNK         0.0825 
    125 H125      -45.7978  -25.0510   15.0972 H         1 UNK         0.0825 
    126 H126      -47.6354  -23.7936   13.0722 H         1 UNK         0.3029 
    127 H127      -48.4163  -20.2936   13.1429 H         1 UNK         0.0897 
    128 H128      -46.0298  -21.9737   12.1893 H         1 UNK         0.0792 
    129 H129      -45.9443  -20.5407   13.2039 H         1 UNK         0.0792 
    130 H130      -46.5043  -20.4030   11.5447 H         1 UNK         0.0792 
    131 H131      -48.2630  -22.5961   11.2808 H         1 UNK         0.3086 
    132 H132      -50.6883  -23.5756   10.8078 H         1 UNK         0.0583 
    133 H133      -52.7509  -22.1223   11.0269 H         1 UNK         0.1020 
    134 H134      -52.1698  -21.1330    9.7157 H         1 UNK         0.1020 
    135 H135      -52.8079  -24.8115   10.7973 H         1 UNK         0.0694 
    136 H136      -54.3826  -24.0697   10.6489 H         1 UNK         0.0694 
    137 H137      -49.4575  -23.4499    8.9838 H         1 UNK         0.2989 
    138 H138      -48.8058  -22.2157    6.6751 H         1 UNK         0.1055 
    139 H139      -47.0356  -19.9892    7.8191 H         1 UNK         0.0806 
    140 H140      -48.2884  -19.7942    6.6006 H         1 UNK         0.0806 
    141 H141      -46.8510  -20.7273    6.2274 H         1 UNK         0.0806 
    142 H142      -46.3939  -22.3293    8.3438 H         1 UNK         0.3061 
    143 H143      -45.8422  -25.4616    7.9416 H         1 UNK         0.0734 
    144 H144      -45.6171  -23.3803   10.1929 H         1 UNK         0.0832 
    145 H145      -44.4979  -24.7119    9.9427 H         1 UNK         0.0832 
    146 H146      -44.6491  -23.4634    8.7247 H         1 UNK         0.0832 
    147 H147      -46.9474  -26.8073    9.2699 H         1 UNK         0.3156 
    148 H148      -48.1016  -26.8594   12.4469 H         1 UNK         0.0589 
    149 H149      -50.2416  -26.2391   10.3528 H         1 UNK         0.0808 
    150 H150      -50.5063  -27.3061   11.7322 H         1 UNK         0.0808 
    151 H151      -50.1479  -25.6111   11.9922 H         1 UNK         0.0808 
    152 H152      -48.8988  -28.4057   10.1475 H         1 UNK         0.3098 
    153 H153      -45.8931  -30.1092    9.6425 H         1 UNK         0.0720 
    154 H154      -47.0882  -32.2210   10.1445 H         1 UNK         0.0791 
    155 H155      -48.3200  -31.3485   11.0563 H         1 UNK         0.0791 
    156 H156      -46.6649  -31.4166   11.6459 H         1 UNK         0.0791 
    157 H157      -48.5340  -30.6419    8.7071 H         1 UNK         0.3028 
@<TRIPOS>BOND
     1    1    2 1    
     2    1   82 1    
     3    1   83 1    
     4    1   84 1    
     5    2    3 2    
     6    2    4 am   BACKBONE|DICT|INTERRES
     7    4    5 1    
     8    4   85 1    
     9    5    6 1    
    10    5   80 1    
    11    5   86 1    
    12    6    7 1    
    13    6   87 1    
    14    6   88 1    
    15    7    8 1    
    16    8    9 1    
    17    8   89 1    
    18    8   90 1    
    19    9   10 ar   
    20    9   14 ar   
    21   10   11 ar   
    22   10   91 1    
    23   11   12 ar   
    24   11   58 1    
    25   12   13 ar   
    26   12   92 1    
    27   13   14 ar   
    28   13   15 1    
    29   14   93 1    
    30   15   16 1    
    31   15   94 1    
    32   15   95 1    
    33   16   17 1    
    34   17   18 1    
    35   17   96 1    
    36   17   97 1    
    37   18   19 1    
    38   18   22 1    
    39   18   98 1    
    40   19   20 am   BACKBONE|DICT|INTERRES
    41   19   21 2    
    42   20   99 1    
    43   20  100 1    
    44   22   23 am   BACKBONE|DICT|INTERRES
    45   22  101 1    
    46   23   24 2    
    47   23   25 1    
    48   25   26 1    
    49   25   27 1    
    50   25  102 1    
    51   26  103 1    
    52   26  104 1    
    53   26  105 1    
    54   27   28 am   BACKBONE|DICT|INTERRES
    55   27  106 1    
    56   28   29 2    
    57   28   30 1    
    58   30   31 1    
    59   30   32 1    
    60   30  107 1    
    61   31  108 1    
    62   31  109 1    
    63   31  110 1    
    64   32   33 am   BACKBONE|DICT|INTERRES
    65   32  111 1    
    66   33   34 2    
    67   33   35 1    
    68   35   36 1    
    69   35   37 1    
    70   35  112 1    
    71   36  113 1    
    72   36  114 1    
    73   36  115 1    
    74   37   38 am   BACKBONE|DICT|INTERRES
    75   37  116 1    
    76   38   39 2    
    77   38   40 1    
    78   40   41 1    
    79   40   42 1    
    80   40  117 1    
    81   41  118 1    
    82   41  119 1    
    83   41  120 1    
    84   42   43 am   BACKBONE|DICT|INTERRES
    85   42  121 1    
    86   43   44 2    
    87   43   45 1    
    88   45   46 1    
    89   45   47 1    
    90   45  122 1    
    91   46  123 1    
    92   46  124 1    
    93   46  125 1    
    94   47   48 am   BACKBONE|DICT|INTERRES
    95   47  126 1    
    96   48   49 2    
    97   48   50 1    
    98   50   51 1    
    99   50   52 1    
   100   50  127 1    
   101   51  128 1    
   102   51  129 1    
   103   51  130 1    
   104   52   53 am   BACKBONE|DICT|INTERRES
   105   52  131 1    
   106   53   54 2    
   107   53   55 1    
   108   55   56 1    
   109   55   59 1    
   110   55  132 1    
   111   56   57 1    
   112   56  133 1    
   113   56  134 1    
   114   57   58 1    
   115   58  135 1    
   116   58  136 1    
   117   59   60 am   BACKBONE|DICT|INTERRES
   118   59  137 1    
   119   60   61 2    
   120   60   62 1    
   121   62   63 1    
   122   62   64 1    
   123   62  138 1    
   124   63  139 1    
   125   63  140 1    
   126   63  141 1    
   127   64   65 am   BACKBONE|DICT|INTERRES
   128   64  142 1    
   129   65   66 2    
   130   65   67 1    
   131   67   68 1    
   132   67   69 1    
   133   67  143 1    
   134   68  144 1    
   135   68  145 1    
   136   68  146 1    
   137   69   70 am   BACKBONE|DICT|INTERRES
   138   69  147 1    
   139   70   71 2    
   140   70   72 1    
   141   72   73 1    
   142   72   74 1    
   143   72  148 1    
   144   73  149 1    
   145   73  150 1    
   146   73  151 1    
   147   74   75 am   BACKBONE|DICT|INTERRES
   148   74  152 1    
   149   75   76 2    
   150   75   77 1    
   151   77   78 1    
   152   77   79 1    
   153   77  153 1    
   154   78  154 1    
   155   78  155 1    
   156   78  156 1    
   157   79   80 am   BACKBONE|DICT|INTERRES
   158   79  157 1    
   159   80   81 2    
@<TRIPOS>SUBSTRUCTURE
     1 UNK         1 GROUP             0       ****    0 ROOT    
