@<TRIPOS>MOLECULE
3R207
157   159    1
SMALL
USER_CHARGES


@<TRIPOS>ATOM
      1 CA        -47.0385  -29.8144    7.6282 C.3       0 UNK        -0.1975 
      2 C         -47.2633  -29.7609    6.1246 C.2       0 UNK         0.4852 
      3 O         -47.0656  -30.7635    5.4381 O.2       0 UNK        -0.5216 
      4 N         -47.6601  -28.5907    5.6124 N.am      1 UNK        -0.4461 
      5 CA        -47.9803  -28.3358    4.2004 C.3       1 UNK         0.0864 
      6 C6        -49.3666  -27.6502    4.0432 C.3       14 UNK        -0.0898 
      7 S7        -50.7305  -28.5412    4.8660 S.3       14 UNK        -0.2598 
      8 C8        -50.8772  -27.5461    6.3815 C.3       14 UNK         0.0286 
      9 C9        -51.9720  -28.0662    7.2960 C.ar      14 UNK        -0.0844 
     10 C10       -51.7223  -29.1471    8.1459 C.ar      14 UNK        -0.0881 
     11 C11       -52.7172  -29.6111    9.0111 C.ar      14 UNK        -0.0643 
     12 C12       -53.9746  -28.9970    9.0093 C.ar      14 UNK        -0.0930 
     13 C13       -54.2314  -27.9090    8.1701 C.ar      14 UNK        -0.0827 
     14 C14       -53.2262  -27.4497    7.3141 C.ar      14 UNK        -0.1249 
     15 C15       -55.5932  -27.2296    8.1744 C.3       14 UNK         0.0141 
     16 S16       -55.6552  -25.8407    9.3521 S.3       14 UNK        -0.2313 
     17 C17       -56.2309  -26.6571   10.8807 C.3       14 UNK        -0.0915 
     18 CA        -55.5456  -26.1069   12.1688 C.3       13 UNK         0.0968 
     19 C         -56.1916  -24.7968   12.7193 C.2       13 UNK         0.5732 
     20 N         -56.2218  -24.5795   14.0292 N.am      13 UNK        -0.7310 
     21 O         -56.6438  -23.9468   11.9571 O.2       13 UNK        -0.5035 
     22 N         -55.3255  -27.1534   13.1832 N.am      13 UNK        -0.4233 
     23 C         -56.2856  -27.9023   13.7441 C.2       13 UNK         0.4989 
     24 O         -57.4861  -27.7651   13.5084 O.2       13 UNK        -0.4996 
     25 CA        -55.8516  -29.0105   14.7119 C.3       12 UNK         0.0216 
     26 CB        -55.7049  -30.3437   13.9488 C.3       12 UNK        -0.1964 
     27 N         -54.6229  -28.6972   15.4521 N.am      12 UNK        -0.4276 
     28 C         -54.2505  -29.3225   16.5778 C.2       12 UNK         0.5020 
     29 O         -54.9126  -30.2046   17.1267 O.2       12 UNK        -0.5489 
     30 CA        -52.9092  -28.9084   17.1980 C.3       11 UNK         0.0294 
     31 CB        -51.7564  -29.6998   16.5584 C.3       11 UNK        -0.2019 
     32 N         -52.6461  -27.4782   17.0572 N.am      11 UNK        -0.4493 
     33 C         -53.0971  -26.5299   17.8878 C.2       11 UNK         0.4932 
     34 O         -53.8400  -26.7554   18.8447 O.2       11 UNK        -0.5029 
     35 CA        -52.6087  -25.0940   17.6024 C.3       10 UNK         0.0280 
     36 CB        -52.8224  -24.1352   18.7920 C.3       10 UNK        -0.1976 
     37 N         -51.2138  -25.0478   17.1402 N.am      10 UNK        -0.4242 
     38 C         -50.1246  -25.5159   17.7748 C.2       10 UNK         0.5072 
     39 O         -50.1435  -25.9856   18.9133 O.2       10 UNK        -0.5224 
     40 CA        -48.7873  -25.5063   17.0078 C.3       9 UNK         0.0343 
     41 CB        -48.3434  -26.9479   16.7046 C.3       9 UNK        -0.2003 
     42 N         -48.8395  -24.7568   15.7501 N.am      9 UNK        -0.4272 
     43 C         -48.7492  -23.4230   15.6558 C.2       9 UNK         0.4988 
     44 O         -48.5375  -22.6797   16.6144 O.2       9 UNK        -0.5108 
     45 CA        -48.9754  -22.8119   14.2616 C.3       8 UNK         0.0248 
     46 CB        -47.6931  -22.8914   13.4178 C.3       8 UNK        -0.2001 
     47 N         -50.0825  -23.4329   13.5273 N.am      8 UNK        -0.4140 
     48 C         -51.3588  -23.4774   13.9396 C.2       8 UNK         0.5028 
     49 O         -51.7560  -22.9984   15.0001 O.2       8 UNK        -0.5428 
     50 CA        -52.3497  -24.2332   13.0479 C.3       7 UNK         0.0264 
     51 CB        -52.7468  -23.3801   11.8302 C.3       7 UNK        -0.1988 
     52 N         -51.7643  -25.4997   12.6091 N.am      7 UNK        -0.4454 
     53 C         -51.8885  -26.6635   13.2646 C.2       7 UNK         0.5027 
     54 O         -52.6361  -26.8261   14.2325 O.2       7 UNK        -0.5083 
     55 CA        -51.0963  -27.8782   12.7391 C.3       6 UNK         0.0844 
     56 C56       -52.0696  -28.8643   12.0500 C.3       14 UNK        -0.0967 
     57 S57       -51.2343  -30.2886   11.2692 S.3       14 UNK        -0.2604 
     58 C58       -52.4260  -30.7579    9.9698 C.3       14 UNK         0.0134 
     59 N         -49.9640  -27.4992   11.8885 N.am      6 UNK        -0.4116 
     60 C         -48.8539  -26.8941   12.3308 C.2       5 UNK         0.5034 
     61 O         -48.6778  -26.5503   13.4991 O.2       5 UNK        -0.5045 
     62 CA        -47.7890  -26.5567   11.2764 C.3       5 UNK         0.0224 
     63 CB        -46.9211  -27.7884   10.9749 C.3       5 UNK        -0.1978 
     64 N         -48.3325  -26.0213   10.0227 N.am      5 UNK        -0.4737 
     65 C         -49.1490  -24.9658    9.9049 C.2       4 UNK         0.5027 
     66 O         -49.6285  -24.3685   10.8699 O.2       4 UNK        -0.5211 
     67 CA        -49.4575  -24.4977    8.4697 C.3       4 UNK         0.0297 
     68 CB        -50.4401  -23.3133    8.4331 C.3       4 UNK        -0.1993 
     69 N         -48.2330  -24.1324    7.7486 N.am      4 UNK        -0.4486 
     70 C         -47.3782  -25.0032    7.2004 C.2       3 UNK         0.4961 
     71 O         -47.5525  -26.2286    7.2126 O.2       3 UNK        -0.5105 
     72 CA        -46.1049  -24.4222    6.5695 C.3       3 UNK         0.0299 
     73 CB        -45.0995  -23.9809    7.6474 C.3       3 UNK        -0.1972 
     74 N         -45.5199  -25.4750    5.7528 N.am      3 UNK        -0.4305 
     75 C         -44.8080  -25.3437    4.6282 C.2       2 UNK         0.5006 
     76 O         -44.3980  -24.2688    4.1894 O.2       2 UNK        -0.5106 
     77 CA        -44.5439  -26.6466    3.8442 C.3       2 UNK         0.0296 
     78 CB        -43.2023  -27.2693    4.2633 C.3       2 UNK        -0.2002 
     79 N         -45.6219  -27.6245    4.0439 N.am      2 UNK        -0.4032 
     80 C         -46.8646  -27.4821    3.5546 C.2       1 UNK         0.5000 
     81 O         -47.1477  -26.6612    2.6790 O.2       1 UNK        -0.5238 
     82 H82       -47.1950  -28.8425    8.0946 H         1 UNK         0.0889 
     83 H83       -46.0203  -30.1349    7.8467 H         1 UNK         0.0889 
     84 H84       -47.7267  -30.5248    8.0853 H         1 UNK         0.0889 
     85 H85       -47.7656  -27.7888    6.2305 H         1 UNK         0.3028 
     86 H86       -48.0105  -29.2763    3.6465 H         1 UNK         0.0864 
     87 H87       -49.6272  -27.5718    2.9860 H         1 UNK         0.0720 
     88 H88       -49.3332  -26.6251    4.4183 H         1 UNK         0.0720 
     89 H89       -51.0727  -26.5069    6.1123 H         1 UNK         0.0814 
     90 H90       -49.9273  -27.5547    6.9159 H         1 UNK         0.0814 
     91 H91       -50.7497  -29.6204    8.1444 H         1 UNK         0.1469 
     92 H92       -54.7478  -29.3563    9.6738 H         1 UNK         0.1381 
     93 H93       -53.4208  -26.6079    6.6633 H         1 UNK         0.1206 
     94 H94       -56.3836  -27.9484    8.3960 H         1 UNK         0.0813 
     95 H95       -55.8116  -26.8461    7.1766 H         1 UNK         0.0813 
     96 H96       -57.3171  -26.5709   10.9440 H         1 UNK         0.0638 
     97 H97       -56.0276  -27.7234   10.7835 H         1 UNK         0.0638 
     98 H98       -54.5363  -25.8152   11.8867 H         1 UNK         0.0568 
     99 H99       -56.6339  -23.7272   14.3741 H         1 UNK         0.3450 
    100 H100      -55.8649  -25.2643   14.6739 H         1 UNK         0.3450 
    101 H101      -54.3631  -27.2691   13.4716 H         1 UNK         0.2987 
    102 H102      -56.6617  -29.1181   15.4369 H         1 UNK         0.0766 
    103 H103      -55.5309  -31.1792   14.6266 H         1 UNK         0.0798 
    104 H104      -54.8809  -30.3150   13.2362 H         1 UNK         0.0798 
    105 H105      -56.6116  -30.5748   13.3876 H         1 UNK         0.0798 
    106 H106      -54.0262  -27.9559   15.1017 H         1 UNK         0.3198 
    107 H107      -52.9406  -29.1578   18.2613 H         1 UNK         0.0843 
    108 H108      -51.6830  -29.5172   15.4864 H         1 UNK         0.0831 
    109 H109      -51.9001  -30.7725   16.6950 H         1 UNK         0.0831 
    110 H110      -50.7986  -29.4423   17.0112 H         1 UNK         0.0831 
    111 H111      -52.1132  -27.1864   16.2477 H         1 UNK         0.3133 
    112 H112      -53.2148  -24.7292   16.7718 H         1 UNK         0.0566 
    113 H113      -52.4880  -23.1262   18.5505 H         1 UNK         0.0814 
    114 H114      -53.8780  -24.0704   19.0583 H         1 UNK         0.0814 
    115 H115      -52.2824  -24.4647   19.6802 H         1 UNK         0.0814 
    116 H116      -51.0817  -24.6066   16.2381 H         1 UNK         0.3091 
    117 H117      -48.0391  -25.0500   17.6594 H         1 UNK         0.0702 
    118 H118      -47.3845  -26.9673   16.1862 H         1 UNK         0.0785 
    119 H119      -49.0702  -27.4710   16.0817 H         1 UNK         0.0785 
    120 H120      -48.2265  -27.5247   17.6231 H         1 UNK         0.0785 
    121 H121      -48.9412  -25.3063   14.8993 H         1 UNK         0.2998 
    122 H122      -49.2285  -21.7588   14.3995 H         1 UNK         0.0697 
    123 H123      -47.3892  -23.9238   13.2442 H         1 UNK         0.0825 
    124 H124      -46.8651  -22.3871   13.9178 H         1 UNK         0.0825 
    125 H125      -47.8257  -22.4142   12.4466 H         1 UNK         0.0825 
    126 H126      -49.8575  -23.8244   12.6146 H         1 UNK         0.3029 
    127 H127      -53.2494  -24.4268   13.6355 H         1 UNK         0.0897 
    128 H128      -51.8781  -23.0344   11.2700 H         1 UNK         0.0792 
    129 H129      -53.2981  -22.4937   12.1464 H         1 UNK         0.0792 
    130 H130      -53.3869  -23.9282   11.1396 H         1 UNK         0.0792 
    131 H131      -51.1123  -25.4412   11.8347 H         1 UNK         0.3086 
    132 H132      -50.6794  -28.3823   13.6132 H         1 UNK         0.0583 
    133 H133      -52.7829  -29.2591   12.7751 H         1 UNK         0.1020 
    134 H134      -52.6605  -28.3321   11.3045 H         1 UNK         0.1020 
    135 H135      -52.0242  -31.6027    9.4088 H         1 UNK         0.0694 
    136 H136      -53.3435  -31.1120   10.4426 H         1 UNK         0.0694 
    137 H137      -50.0270  -27.7504   10.9128 H         1 UNK         0.2989 
    138 H138      -47.1458  -25.7844   11.7022 H         1 UNK         0.1055 
    139 H139      -46.4581  -28.1703   11.8861 H         1 UNK         0.0806 
    140 H140      -46.1151  -27.5481   10.2811 H         1 UNK         0.0806 
    141 H141      -47.5069  -28.6012   10.5440 H         1 UNK         0.0806 
    142 H142      -47.9735  -26.4157    9.1593 H         1 UNK         0.3061 
    143 H143      -49.9353  -25.3330    7.9573 H         1 UNK         0.0734 
    144 H144      -50.6637  -23.0137    7.4091 H         1 UNK         0.0832 
    145 H145      -51.3878  -23.5808    8.9021 H         1 UNK         0.0832 
    146 H146      -50.0477  -22.4432    8.9611 H         1 UNK         0.0832 
    147 H147      -48.0006  -23.1493    7.7303 H         1 UNK         0.3156 
    148 H148      -46.3793  -23.5748    5.9379 H         1 UNK         0.0589 
    149 H149      -45.5094  -23.1835    8.2683 H         1 UNK         0.0808 
    150 H150      -44.8308  -24.8056    8.3091 H         1 UNK         0.0808 
    151 H151      -44.1813  -23.6006    7.1993 H         1 UNK         0.0808 
    152 H152      -45.8395  -26.3962    6.0194 H         1 UNK         0.3098 
    153 H153      -44.4915  -26.3957    2.7825 H         1 UNK         0.0720 
    154 H154      -42.9812  -28.1639    3.6808 H         1 UNK         0.0791 
    155 H155      -43.1938  -27.5442    5.3189 H         1 UNK         0.0791 
    156 H156      -42.3817  -26.5686    4.1027 H         1 UNK         0.0791 
    157 H157      -45.4606  -28.3546    4.7227 H         1 UNK         0.3028 
@<TRIPOS>BOND
     1    1    2 1    
     2    1   82 1    
     3    1   83 1    
     4    1   84 1    
     5    2    3 2    
     6    2    4 am   BACKBONE|DICT|INTERRES
     7    4    5 1    
     8    4   85 1    
     9    5    6 1    
    10    5   80 1    
    11    5   86 1    
    12    6    7 1    
    13    6   87 1    
    14    6   88 1    
    15    7    8 1    
    16    8    9 1    
    17    8   89 1    
    18    8   90 1    
    19    9   10 ar   
    20    9   14 ar   
    21   10   11 ar   
    22   10   91 1    
    23   11   12 ar   
    24   11   58 1    
    25   12   13 ar   
    26   12   92 1    
    27   13   14 ar   
    28   13   15 1    
    29   14   93 1    
    30   15   16 1    
    31   15   94 1    
    32   15   95 1    
    33   16   17 1    
    34   17   18 1    
    35   17   96 1    
    36   17   97 1    
    37   18   19 1    
    38   18   22 1    
    39   18   98 1    
    40   19   20 am   BACKBONE|DICT|INTERRES
    41   19   21 2    
    42   20   99 1    
    43   20  100 1    
    44   22   23 am   BACKBONE|DICT|INTERRES
    45   22  101 1    
    46   23   24 2    
    47   23   25 1    
    48   25   26 1    
    49   25   27 1    
    50   25  102 1    
    51   26  103 1    
    52   26  104 1    
    53   26  105 1    
    54   27   28 am   BACKBONE|DICT|INTERRES
    55   27  106 1    
    56   28   29 2    
    57   28   30 1    
    58   30   31 1    
    59   30   32 1    
    60   30  107 1    
    61   31  108 1    
    62   31  109 1    
    63   31  110 1    
    64   32   33 am   BACKBONE|DICT|INTERRES
    65   32  111 1    
    66   33   34 2    
    67   33   35 1    
    68   35   36 1    
    69   35   37 1    
    70   35  112 1    
    71   36  113 1    
    72   36  114 1    
    73   36  115 1    
    74   37   38 am   BACKBONE|DICT|INTERRES
    75   37  116 1    
    76   38   39 2    
    77   38   40 1    
    78   40   41 1    
    79   40   42 1    
    80   40  117 1    
    81   41  118 1    
    82   41  119 1    
    83   41  120 1    
    84   42   43 am   BACKBONE|DICT|INTERRES
    85   42  121 1    
    86   43   44 2    
    87   43   45 1    
    88   45   46 1    
    89   45   47 1    
    90   45  122 1    
    91   46  123 1    
    92   46  124 1    
    93   46  125 1    
    94   47   48 am   BACKBONE|DICT|INTERRES
    95   47  126 1    
    96   48   49 2    
    97   48   50 1    
    98   50   51 1    
    99   50   52 1    
   100   50  127 1    
   101   51  128 1    
   102   51  129 1    
   103   51  130 1    
   104   52   53 am   BACKBONE|DICT|INTERRES
   105   52  131 1    
   106   53   54 2    
   107   53   55 1    
   108   55   56 1    
   109   55   59 1    
   110   55  132 1    
   111   56   57 1    
   112   56  133 1    
   113   56  134 1    
   114   57   58 1    
   115   58  135 1    
   116   58  136 1    
   117   59   60 am   BACKBONE|DICT|INTERRES
   118   59  137 1    
   119   60   61 2    
   120   60   62 1    
   121   62   63 1    
   122   62   64 1    
   123   62  138 1    
   124   63  139 1    
   125   63  140 1    
   126   63  141 1    
   127   64   65 am   BACKBONE|DICT|INTERRES
   128   64  142 1    
   129   65   66 2    
   130   65   67 1    
   131   67   68 1    
   132   67   69 1    
   133   67  143 1    
   134   68  144 1    
   135   68  145 1    
   136   68  146 1    
   137   69   70 am   BACKBONE|DICT|INTERRES
   138   69  147 1    
   139   70   71 2    
   140   70   72 1    
   141   72   73 1    
   142   72   74 1    
   143   72  148 1    
   144   73  149 1    
   145   73  150 1    
   146   73  151 1    
   147   74   75 am   BACKBONE|DICT|INTERRES
   148   74  152 1    
   149   75   76 2    
   150   75   77 1    
   151   77   78 1    
   152   77   79 1    
   153   77  153 1    
   154   78  154 1    
   155   78  155 1    
   156   78  156 1    
   157   79   80 am   BACKBONE|DICT|INTERRES
   158   79  157 1    
   159   80   81 2    
@<TRIPOS>SUBSTRUCTURE
     1 UNK         1 GROUP             0       ****    0 ROOT    
