@<TRIPOS>MOLECULE
3R207
157   159    1
SMALL
USER_CHARGES


@<TRIPOS>ATOM
      1 CA        -50.4016  -28.4308    7.4038 C.3       0 UNK        -0.1975 
      2 C         -50.2522  -26.9183    7.4461 C.2       0 UNK         0.4852 
      3 O         -49.8093  -26.3137    6.4662 O.2       0 UNK        -0.5216 
      4 N         -50.6305  -26.3078    8.5763 N.am      1 UNK        -0.4461 
      5 CA        -50.6382  -24.8580    8.8032 C.3       1 UNK         0.0864 
      6 C6        -51.2344  -24.4888   10.1814 C.3       14 UNK        -0.0898 
      7 S7        -52.9788  -24.9992   10.3311 S.3       14 UNK        -0.2598 
      8 C8        -52.9053  -26.1567   11.7309 C.3       14 UNK         0.0286 
      9 C9        -52.2512  -27.4784   11.3569 C.ar      14 UNK        -0.0844 
     10 C10       -50.9285  -27.7411   11.7232 C.ar      14 UNK        -0.0881 
     11 C11       -50.3368  -28.9646   11.4009 C.ar      14 UNK        -0.0643 
     12 C12       -51.0829  -29.9352   10.7271 C.ar      14 UNK        -0.0930 
     13 C13       -52.4112  -29.6937   10.3628 C.ar      14 UNK        -0.0827 
     14 C14       -52.9824  -28.4515   10.6694 C.ar      14 UNK        -0.1249 
     15 C15       -53.1774  -30.7870    9.6154 C.3       14 UNK         0.0141 
     16 S16       -54.9900  -30.7695    9.8356 S.3       14 UNK        -0.2313 
     17 C17       -55.1514  -31.1361   11.6170 C.3       14 UNK        -0.0915 
     18 CA        -56.6146  -30.9928   12.1179 C.3       13 UNK         0.0968 
     19 C         -56.7597  -31.4162   13.6096 C.2       13 UNK         0.5732 
     20 N         -57.3017  -30.5909   14.4997 N.am      13 UNK        -0.7310 
     21 O         -56.3921  -32.5333   13.9660 O.2       13 UNK        -0.5035 
     22 N         -57.1574  -29.6575   11.8308 N.am      13 UNK        -0.4233 
     23 C         -58.4409  -29.3907   11.5564 C.2       13 UNK         0.4989 
     24 O         -59.3077  -30.2597   11.4438 O.2       13 UNK        -0.4996 
     25 CA        -58.8218  -27.9040   11.3703 C.3       12 UNK         0.0216 
     26 CB        -60.3059  -27.6263   11.6944 C.3       12 UNK        -0.1964 
     27 N         -57.9482  -26.9720   12.0994 N.am      12 UNK        -0.4276 
     28 C         -57.7283  -26.9502   13.4215 C.2       12 UNK         0.5020 
     29 O         -58.2914  -27.6906   14.2328 O.2       12 UNK        -0.5489 
     30 CA        -56.6589  -25.9602   13.9146 C.3       11 UNK         0.0294 
     31 CB        -57.3165  -24.7179   14.5359 C.3       11 UNK        -0.2019 
     32 N         -55.7591  -26.5759   14.8942 N.am      11 UNK        -0.4493 
     33 C         -55.0204  -27.6754   14.6802 C.2       11 UNK         0.4932 
     34 O         -54.9665  -28.2608   13.5979 O.2       11 UNK        -0.5029 
     35 CA        -54.2164  -28.1872   15.8896 C.3       10 UNK         0.0280 
     36 CB        -53.3636  -29.4344   15.5649 C.3       10 UNK        -0.1976 
     37 N         -53.4167  -27.1154   16.5016 N.am      10 UNK        -0.4242 
     38 C         -52.3773  -26.4737   15.9484 C.2       10 UNK         0.5072 
     39 O         -51.8653  -26.7739   14.8676 O.2       10 UNK        -0.5224 
     40 CA        -51.8037  -25.2922   16.7423 C.3       9 UNK         0.0343 
     41 CB        -51.0865  -25.7652   18.0216 C.3       9 UNK        -0.2003 
     42 N         -50.8595  -24.5950   15.8769 N.am      9 UNK        -0.4272 
     43 C         -50.4506  -23.3270   15.9773 C.2       9 UNK         0.4988 
     44 O         -50.8529  -22.5444   16.8398 O.2       9 UNK        -0.5108 
     45 CA        -49.3759  -22.8893   14.9638 C.3       8 UNK         0.0248 
     46 CB        -48.7611  -21.5172   15.2997 C.3       8 UNK        -0.2001 
     47 N         -48.3151  -23.8991   14.9323 N.am      8 UNK        -0.4140 
     48 C         -48.1381  -24.8024   13.9625 C.2       8 UNK         0.5028 
     49 O         -48.7510  -24.8090   12.8926 O.2       8 UNK        -0.5428 
     50 CA        -47.1634  -25.9377   14.2819 C.3       7 UNK         0.0264 
     51 CB        -47.8647  -26.9963   15.1605 C.3       7 UNK        -0.1988 
     52 N         -46.7023  -26.5272   13.0283 N.am      7 UNK        -0.4454 
     53 C         -45.6685  -27.3677   12.8995 C.2       7 UNK         0.5027 
     54 O         -44.9835  -27.7575   13.8468 O.2       7 UNK        -0.5083 
     55 CA        -45.3214  -27.8488   11.4776 C.3       6 UNK         0.0844 
     56 C56       -46.1434  -29.0981   11.0642 C.3       14 UNK        -0.0967 
     57 S57       -47.8035  -28.7134   10.4033 S.3       14 UNK        -0.2604 
     58 C58       -48.8865  -29.2328   11.7630 C.3       14 UNK         0.0134 
     59 N         -45.4094  -26.7792   10.4836 N.am      6 UNK        -0.4116 
     60 C         -44.5715  -25.7432   10.3586 C.2       5 UNK         0.5034 
     61 O         -43.6093  -25.5451   11.1024 O.2       5 UNK        -0.5045 
     62 CA        -44.8654  -24.7733    9.1966 C.3       5 UNK         0.0224 
     63 CB        -43.6235  -23.9827    8.7341 C.3       5 UNK        -0.1978 
     64 N         -45.5346  -25.4262    8.0620 N.am      5 UNK        -0.4737 
     65 C         -45.0518  -26.3956    7.2677 C.2       4 UNK         0.5027 
     66 O         -43.9163  -26.8624    7.3557 O.2       4 UNK        -0.5211 
     67 CA        -46.0103  -26.9554    6.2028 C.3       4 UNK         0.0297 
     68 CB        -46.8296  -28.1162    6.7834 C.3       4 UNK        -0.1993 
     69 N         -46.9135  -25.9273    5.6795 N.am      4 UNK        -0.4486 
     70 C         -46.5420  -25.0056    4.7789 C.2       3 UNK         0.4961 
     71 O         -45.4508  -25.0010    4.2079 O.2       3 UNK        -0.5105 
     72 CA        -47.5436  -23.8755    4.4940 C.3       3 UNK         0.0299 
     73 CB        -48.6938  -24.3631    3.5979 C.3       3 UNK        -0.1972 
     74 N         -48.0788  -23.3023    5.7302 N.am      3 UNK        -0.4305 
     75 C         -47.3627  -22.5796    6.6072 C.2       2 UNK         0.5006 
     76 O         -46.1926  -22.2453    6.4221 O.2       2 UNK        -0.5106 
     77 CA        -48.0562  -22.1496    7.9140 C.3       2 UNK         0.0296 
     78 CB        -48.4283  -20.6586    7.8608 C.3       2 UNK        -0.2002 
     79 N         -49.2548  -22.9318    8.2275 N.am      2 UNK        -0.4032 
     80 C         -49.2491  -24.2115    8.6253 C.2       1 UNK         0.5000 
     81 O         -48.2193  -24.8609    8.8286 O.2       1 UNK        -0.5238 
     82 H82       -51.4065  -28.7246    7.7056 H         1 UNK         0.0889 
     83 H83       -49.6875  -28.9060    8.0749 H         1 UNK         0.0889 
     84 H84       -50.2269  -28.8081    6.3966 H         1 UNK         0.0889 
     85 H85       -50.9667  -26.8648    9.3513 H         1 UNK         0.3028 
     86 H86       -51.2863  -24.4369    8.0315 H         1 UNK         0.0864 
     87 H87       -51.2039  -23.4094   10.3422 H         1 UNK         0.0720 
     88 H88       -50.6403  -24.9263   10.9847 H         1 UNK         0.0720 
     89 H89       -53.9200  -26.3457   12.0790 H         1 UNK         0.0814 
     90 H90       -52.3835  -25.6834   12.5633 H         1 UNK         0.0814 
     91 H91       -50.3586  -26.9936   12.2592 H         1 UNK         0.1469 
     92 H92       -50.6205  -30.8804   10.4772 H         1 UNK         0.1381 
     93 H93       -54.0040  -28.2373   10.3896 H         1 UNK         0.1206 
     94 H94       -52.9611  -30.6893    8.5511 H         1 UNK         0.0813 
     95 H95       -52.8109  -31.7702    9.9146 H         1 UNK         0.0813 
     96 H96       -54.4909  -30.4743   12.1791 H         1 UNK         0.0638 
     97 H97       -54.7848  -32.1505   11.7833 H         1 UNK         0.0638 
     98 H98       -57.2060  -31.7207   11.5597 H         1 UNK         0.0568 
     99 H99       -57.6130  -29.6636   14.2341 H         1 UNK         0.3450 
    100 H100      -57.3980  -30.8968   15.4540 H         1 UNK         0.3450 
    101 H101      -56.5086  -28.8945   11.9699 H         1 UNK         0.2987 
    102 H102      -58.6729  -27.6923   10.3105 H         1 UNK         0.0766 
    103 H103      -60.5494  -27.8821   12.7261 H         1 UNK         0.0798 
    104 H104      -60.9649  -28.2109   11.0511 H         1 UNK         0.0798 
    105 H105      -60.5563  -26.5766   11.5411 H         1 UNK         0.0798 
    106 H106      -57.4271  -26.3277   11.5196 H         1 UNK         0.3198 
    107 H107      -56.0501  -25.6415   13.0664 H         1 UNK         0.0843 
    108 H108      -57.9212  -24.9751   15.4068 H         1 UNK         0.0831 
    109 H109      -57.9741  -24.2246   13.8187 H         1 UNK         0.0831 
    110 H110      -56.5715  -23.9852   14.8467 H         1 UNK         0.0831 
    111 H111      -55.7637  -26.1764   15.8206 H         1 UNK         0.3133 
    112 H112      -54.9509  -28.4868   16.6387 H         1 UNK         0.0566 
    113 H113      -53.9987  -30.2626   15.2479 H         1 UNK         0.0814 
    114 H114      -52.6571  -29.2483   14.7549 H         1 UNK         0.0814 
    115 H115      -52.7995  -29.7698   16.4347 H         1 UNK         0.0814 
    116 H116      -53.7393  -26.7965   17.4048 H         1 UNK         0.3091 
    117 H117      -52.6229  -24.6175   16.9994 H         1 UNK         0.0702 
    118 H118      -50.6623  -24.9259   18.5730 H         1 UNK         0.0785 
    119 H119      -50.2757  -26.4582   17.7934 H         1 UNK         0.0785 
    120 H120      -51.7735  -26.2764   18.6966 H         1 UNK         0.0785 
    121 H121      -50.5468  -25.1596   15.0949 H         1 UNK         0.2998 
    122 H122      -49.8634  -22.8121   13.9895 H         1 UNK         0.0697 
    123 H123      -48.2905  -21.5138   16.2837 H         1 UNK         0.0825 
    124 H124      -48.0065  -21.2325   14.5664 H         1 UNK         0.0825 
    125 H125      -49.5229  -20.7364   15.2984 H         1 UNK         0.0825 
    126 H126      -47.7850  -24.0018   15.7869 H         1 UNK         0.3029 
    127 H127      -46.3016  -25.5258   14.8117 H         1 UNK         0.0897 
    128 H128      -48.7589  -27.3929   14.6776 H         1 UNK         0.0792 
    129 H129      -48.1780  -26.5696   16.1140 H         1 UNK         0.0792 
    130 H130      -47.2087  -27.8355   15.3903 H         1 UNK         0.0792 
    131 H131      -47.2228  -26.2283   12.2114 H         1 UNK         0.3086 
    132 H132      -44.2743  -28.1581   11.5122 H         1 UNK         0.0583 
    133 H133      -45.6057  -29.6237   10.2734 H         1 UNK         0.1020 
    134 H134      -46.2160  -29.8172   11.8830 H         1 UNK         0.1020 
    135 H135      -48.7371  -30.2942   11.9666 H         1 UNK         0.0694 
    136 H136      -48.6179  -28.6979   12.6738 H         1 UNK         0.0694 
    137 H137      -46.1837  -26.8468    9.8379 H         1 UNK         0.2989 
    138 H138      -45.5825  -24.0521    9.5918 H         1 UNK         0.1055 
    139 H139      -43.2200  -23.3775    9.5467 H         1 UNK         0.0806 
    140 H140      -43.8698  -23.3037    7.9174 H         1 UNK         0.0806 
    141 H141      -42.8249  -24.6424    8.3940 H         1 UNK         0.0806 
    142 H142      -46.5164  -25.1802    7.9624 H         1 UNK         0.3061 
    143 H143      -45.4074  -27.3471    5.3805 H         1 UNK         0.0734 
    144 H144      -47.4908  -28.5520    6.0344 H         1 UNK         0.0832 
    145 H145      -46.1785  -28.9121    7.1474 H         1 UNK         0.0832 
    146 H146      -47.4404  -27.7877    7.6231 H         1 UNK         0.0832 
    147 H147      -47.8538  -25.8936    6.0639 H         1 UNK         0.3156 
    148 H148      -47.0131  -23.0852    3.9583 H         1 UNK         0.0589 
    149 H149      -49.2871  -25.1406    4.0802 H         1 UNK         0.0808 
    150 H150      -49.3645  -23.5453    3.3339 H         1 UNK         0.0808 
    151 H151      -48.3097  -24.7793    2.6656 H         1 UNK         0.0808 
    152 H152      -49.0325  -23.5375    5.9626 H         1 UNK         0.3098 
    153 H153      -47.3373  -22.2922    8.7238 H         1 UNK         0.0720 
    154 H154      -48.8508  -20.3204    8.8072 H         1 UNK         0.0791 
    155 H155      -49.1538  -20.4500    7.0735 H         1 UNK         0.0791 
    156 H156      -47.5488  -20.0437    7.6639 H         1 UNK         0.0791 
    157 H157      -50.1410  -22.4644    8.0971 H         1 UNK         0.3028 
@<TRIPOS>BOND
     1    1    2 1    
     2    1   82 1    
     3    1   83 1    
     4    1   84 1    
     5    2    3 2    
     6    2    4 am   BACKBONE|DICT|INTERRES
     7    4    5 1    
     8    4   85 1    
     9    5    6 1    
    10    5   80 1    
    11    5   86 1    
    12    6    7 1    
    13    6   87 1    
    14    6   88 1    
    15    7    8 1    
    16    8    9 1    
    17    8   89 1    
    18    8   90 1    
    19    9   10 ar   
    20    9   14 ar   
    21   10   11 ar   
    22   10   91 1    
    23   11   12 ar   
    24   11   58 1    
    25   12   13 ar   
    26   12   92 1    
    27   13   14 ar   
    28   13   15 1    
    29   14   93 1    
    30   15   16 1    
    31   15   94 1    
    32   15   95 1    
    33   16   17 1    
    34   17   18 1    
    35   17   96 1    
    36   17   97 1    
    37   18   19 1    
    38   18   22 1    
    39   18   98 1    
    40   19   20 am   BACKBONE|DICT|INTERRES
    41   19   21 2    
    42   20   99 1    
    43   20  100 1    
    44   22   23 am   BACKBONE|DICT|INTERRES
    45   22  101 1    
    46   23   24 2    
    47   23   25 1    
    48   25   26 1    
    49   25   27 1    
    50   25  102 1    
    51   26  103 1    
    52   26  104 1    
    53   26  105 1    
    54   27   28 am   BACKBONE|DICT|INTERRES
    55   27  106 1    
    56   28   29 2    
    57   28   30 1    
    58   30   31 1    
    59   30   32 1    
    60   30  107 1    
    61   31  108 1    
    62   31  109 1    
    63   31  110 1    
    64   32   33 am   BACKBONE|DICT|INTERRES
    65   32  111 1    
    66   33   34 2    
    67   33   35 1    
    68   35   36 1    
    69   35   37 1    
    70   35  112 1    
    71   36  113 1    
    72   36  114 1    
    73   36  115 1    
    74   37   38 am   BACKBONE|DICT|INTERRES
    75   37  116 1    
    76   38   39 2    
    77   38   40 1    
    78   40   41 1    
    79   40   42 1    
    80   40  117 1    
    81   41  118 1    
    82   41  119 1    
    83   41  120 1    
    84   42   43 am   BACKBONE|DICT|INTERRES
    85   42  121 1    
    86   43   44 2    
    87   43   45 1    
    88   45   46 1    
    89   45   47 1    
    90   45  122 1    
    91   46  123 1    
    92   46  124 1    
    93   46  125 1    
    94   47   48 am   BACKBONE|DICT|INTERRES
    95   47  126 1    
    96   48   49 2    
    97   48   50 1    
    98   50   51 1    
    99   50   52 1    
   100   50  127 1    
   101   51  128 1    
   102   51  129 1    
   103   51  130 1    
   104   52   53 am   BACKBONE|DICT|INTERRES
   105   52  131 1    
   106   53   54 2    
   107   53   55 1    
   108   55   56 1    
   109   55   59 1    
   110   55  132 1    
   111   56   57 1    
   112   56  133 1    
   113   56  134 1    
   114   57   58 1    
   115   58  135 1    
   116   58  136 1    
   117   59   60 am   BACKBONE|DICT|INTERRES
   118   59  137 1    
   119   60   61 2    
   120   60   62 1    
   121   62   63 1    
   122   62   64 1    
   123   62  138 1    
   124   63  139 1    
   125   63  140 1    
   126   63  141 1    
   127   64   65 am   BACKBONE|DICT|INTERRES
   128   64  142 1    
   129   65   66 2    
   130   65   67 1    
   131   67   68 1    
   132   67   69 1    
   133   67  143 1    
   134   68  144 1    
   135   68  145 1    
   136   68  146 1    
   137   69   70 am   BACKBONE|DICT|INTERRES
   138   69  147 1    
   139   70   71 2    
   140   70   72 1    
   141   72   73 1    
   142   72   74 1    
   143   72  148 1    
   144   73  149 1    
   145   73  150 1    
   146   73  151 1    
   147   74   75 am   BACKBONE|DICT|INTERRES
   148   74  152 1    
   149   75   76 2    
   150   75   77 1    
   151   77   78 1    
   152   77   79 1    
   153   77  153 1    
   154   78  154 1    
   155   78  155 1    
   156   78  156 1    
   157   79   80 am   BACKBONE|DICT|INTERRES
   158   79  157 1    
   159   80   81 2    
@<TRIPOS>SUBSTRUCTURE
     1 UNK         1 GROUP             0       ****    0 ROOT    
