@<TRIPOS>MOLECULE
3R207
157   159    1
SMALL
USER_CHARGES


@<TRIPOS>ATOM
      1 CA        -46.6688  -32.6995    6.0718 C.3       0 UNK        -0.1975 
      2 C         -46.9961  -31.5209    5.1671 C.2       0 UNK         0.4852 
      3 O         -46.3747  -31.3661    4.1151 O.2       0 UNK        -0.5216 
      4 N         -47.9672  -30.6899    5.5690 N.am      1 UNK        -0.4461 
      5 CA        -48.4207  -29.5064    4.8253 C.3       1 UNK         0.0864 
      6 C6        -49.7578  -28.9551    5.3753 C.3       14 UNK        -0.0898 
      7 S7        -51.1386  -30.1411    5.2556 S.3       14 UNK        -0.2598 
      8 C8        -51.5076  -30.4705    7.0166 C.3       14 UNK         0.0286 
      9 C9        -52.0303  -29.2905    7.8441 C.ar      14 UNK        -0.0844 
     10 C10       -52.2862  -28.0204    7.3071 C.ar      14 UNK        -0.0881 
     11 C11       -52.7277  -26.9718    8.1196 C.ar      14 UNK        -0.0643 
     12 C12       -52.9563  -27.2044    9.4774 C.ar      14 UNK        -0.0930 
     13 C13       -52.7239  -28.4669   10.0256 C.ar      14 UNK        -0.0827 
     14 C14       -52.2551  -29.4985    9.2081 C.ar      14 UNK        -0.1249 
     15 C15       -52.9639  -28.7205   11.5037 C.3       14 UNK         0.0141 
     16 S16       -54.5841  -29.4946   11.7965 S.3       14 UNK        -0.2313 
     17 C17       -55.7117  -28.0609   11.7338 C.3       14 UNK        -0.0915 
     18 CA        -55.7973  -27.2604   13.0636 C.3       13 UNK         0.0968 
     19 C         -56.8721  -26.1456   12.9328 C.2       13 UNK         0.5732 
     20 N         -56.4689  -24.9251   12.6050 N.am      13 UNK        -0.7310 
     21 O         -58.0686  -26.3928   13.0739 O.2       13 UNK        -0.5035 
     22 N         -55.9853  -28.1559   14.2161 N.am      13 UNK        -0.4233 
     23 C         -56.2086  -27.8085   15.4917 C.2       13 UNK         0.4989 
     24 O         -56.3413  -26.6536   15.8952 O.2       13 UNK        -0.4996 
     25 CA        -56.2362  -28.9616   16.4997 C.3       12 UNK         0.0216 
     26 CB        -57.4273  -29.9104   16.2634 C.3       12 UNK        -0.1964 
     27 N         -54.9675  -29.6812   16.4291 N.am      12 UNK        -0.4276 
     28 C         -54.4171  -30.4185   17.3963 C.2       12 UNK         0.5020 
     29 O         -54.9656  -30.6544   18.4739 O.2       12 UNK        -0.5489 
     30 CA        -53.0040  -30.9782   17.1319 C.3       11 UNK         0.0294 
     31 CB        -53.0582  -32.2099   16.2058 C.3       11 UNK        -0.2019 
     32 N         -52.0297  -29.9811   16.6537 N.am      11 UNK        -0.4493 
     33 C         -52.0346  -29.2966   15.5012 C.2       11 UNK         0.4932 
     34 O         -52.8798  -29.4426   14.6190 O.2       11 UNK        -0.5029 
     35 CA        -50.9147  -28.2621   15.3059 C.3       10 UNK         0.0280 
     36 CB        -49.8329  -28.8042   14.3585 C.3       10 UNK        -0.1976 
     37 N         -51.4135  -26.9873   14.7837 N.am      10 UNK        -0.4242 
     38 C         -52.3328  -26.2084   15.3726 C.2       10 UNK         0.5072 
     39 O         -52.9073  -26.4874   16.4269 O.2       10 UNK        -0.5224 
     40 CA        -52.5772  -24.8525   14.6845 C.3       9 UNK         0.0343 
     41 CB        -53.6975  -24.0187   15.3395 C.3       9 UNK        -0.2003 
     42 N         -51.3270  -24.0885   14.5948 N.am      9 UNK        -0.4272 
     43 C         -50.5335  -23.6994   15.6075 C.2       9 UNK         0.4988 
     44 O         -50.8237  -23.8077   16.7993 O.2       9 UNK        -0.5108 
     45 CA        -49.1550  -23.1243   15.2396 C.3       8 UNK         0.0248 
     46 CB        -48.0707  -24.1943   15.4505 C.3       8 UNK        -0.2001 
     47 N         -49.0832  -22.6259   13.8637 N.am      8 UNK        -0.4140 
     48 C         -49.6099  -21.4595   13.4645 C.2       8 UNK         0.5028 
     49 O         -50.1653  -20.6628   14.2224 O.2       8 UNK        -0.5428 
     50 CA        -49.5195  -21.1293   11.9663 C.3       7 UNK         0.0264 
     51 CB        -48.1201  -20.6040   11.6087 C.3       7 UNK        -0.1988 
     52 N         -49.8560  -22.2608   11.0989 N.am      7 UNK        -0.4454 
     53 C         -51.0578  -22.8551   11.0365 C.2       7 UNK         0.5027 
     54 O         -52.0214  -22.5373   11.7333 O.2       7 UNK        -0.5083 
     55 CA        -51.2010  -24.0134   10.0333 C.3       6 UNK         0.0844 
     56 C56       -51.3799  -23.4678    8.5924 C.3       14 UNK        -0.0967 
     57 S57       -51.3516  -24.7373    7.2808 S.3       14 UNK        -0.2604 
     58 C58       -52.9427  -25.5909    7.5193 C.3       14 UNK         0.0134 
     59 N         -50.0899  -24.9535   10.1648 N.am      6 UNK        -0.4116 
     60 C         -49.8964  -25.7801   11.2016 C.2       5 UNK         0.5034 
     61 O         -50.6628  -25.8927   12.1602 O.2       5 UNK        -0.5045 
     62 CA        -48.5938  -26.5917   11.1816 C.3       5 UNK         0.0224 
     63 CB        -48.7805  -27.8845   10.3707 C.3       5 UNK        -0.1978 
     64 N         -47.4668  -25.8176   10.6483 N.am      5 UNK        -0.4737 
     65 C         -46.9365  -24.7502   11.2678 C.2       4 UNK         0.5027 
     66 O         -47.3297  -24.3299   12.3544 O.2       4 UNK        -0.5211 
     67 CA        -45.8137  -23.9883   10.5428 C.3       4 UNK         0.0297 
     68 CB        -44.4476  -24.6110   10.8695 C.3       4 UNK        -0.1993 
     69 N         -45.9900  -23.9336    9.0917 N.am      4 UNK        -0.4486 
     70 C         -47.0487  -23.4108    8.4566 C.2       3 UNK         0.4961 
     71 O         -47.9754  -22.8364    9.0281 O.2       3 UNK        -0.5105 
     72 CA        -47.1092  -23.6043    6.9305 C.3       3 UNK         0.0299 
     73 CB        -46.6145  -22.3394    6.2122 C.3       3 UNK        -0.1972 
     74 N         -46.3630  -24.7719    6.4383 N.am      3 UNK        -0.4305 
     75 C         -46.6043  -26.0407    6.7971 C.2       2 UNK         0.5006 
     76 O         -47.4474  -26.3696    7.6352 O.2       2 UNK        -0.5106 
     77 CA        -45.7211  -27.1240    6.1602 C.3       2 UNK         0.0296 
     78 CB        -44.5935  -27.5311    7.1230 C.3       2 UNK        -0.2002 
     79 N         -46.5403  -28.2944    5.8537 N.am      2 UNK        -0.4032 
     80 C         -47.3837  -28.3642    4.8143 C.2       1 UNK         0.5000 
     81 O         -47.3955  -27.5484    3.8897 O.2       1 UNK        -0.5238 
     82 H82       -45.6279  -32.6503    6.3903 H         1 UNK         0.0889 
     83 H83       -46.8172  -33.6362    5.5351 H         1 UNK         0.0889 
     84 H84       -47.2959  -32.7171    6.9631 H         1 UNK         0.0889 
     85 H85       -48.4589  -30.8809    6.4296 H         1 UNK         0.3028 
     86 H86       -48.5761  -29.8049    3.7860 H         1 UNK         0.0864 
     87 H87       -50.0598  -28.0652    4.8187 H         1 UNK         0.0720 
     88 H88       -49.6349  -28.6308    6.4110 H         1 UNK         0.0720 
     89 H89       -52.2484  -31.2703    7.0573 H         1 UNK         0.0814 
     90 H90       -50.6078  -30.8644    7.4908 H         1 UNK         0.0814 
     91 H91       -52.1283  -27.8219    6.2576 H         1 UNK         0.1469 
     92 H92       -53.3139  -26.4066   10.1110 H         1 UNK         0.1381 
     93 H93       -52.0695  -30.4732    9.6390 H         1 UNK         0.1206 
     94 H94       -52.1893  -29.3860   11.8866 H         1 UNK         0.0813 
     95 H95       -52.8773  -27.7988   12.0808 H         1 UNK         0.0813 
     96 H96       -56.6965  -28.4488   11.4659 H         1 UNK         0.0638 
     97 H97       -55.4155  -27.4096   10.9107 H         1 UNK         0.0638 
     98 H98       -54.8337  -26.7752   13.2256 H         1 UNK         0.0568 
     99 H99       -57.1599  -24.1991   12.4999 H         1 UNK         0.3450 
    100 H100      -55.4956  -24.7104   12.4630 H         1 UNK         0.3450 
    101 H101      -55.8957  -29.1366   13.9959 H         1 UNK         0.2987 
    102 H102      -56.3323  -28.5236   17.4957 H         1 UNK         0.0766 
    103 H103      -58.3687  -29.3593   16.2549 H         1 UNK         0.0798 
    104 H104      -57.4988  -30.6581   17.0534 H         1 UNK         0.0798 
    105 H105      -57.3471  -30.4389   15.3130 H         1 UNK         0.0798 
    106 H106      -54.3841  -29.5028   15.6105 H         1 UNK         0.3198 
    107 H107      -52.6224  -31.3182   18.0963 H         1 UNK         0.0843 
    108 H108      -53.4421  -31.9646   15.2151 H         1 UNK         0.0831 
    109 H109      -53.7105  -32.9788   16.6220 H         1 UNK         0.0831 
    110 H110      -52.0714  -32.6553   16.0811 H         1 UNK         0.0831 
    111 H111      -51.3028  -29.7551   17.3194 H         1 UNK         0.3133 
    112 H112      -50.4538  -28.0570   16.2741 H         1 UNK         0.0566 
    113 H113      -50.2214  -28.9620   13.3518 H         1 UNK         0.0814 
    114 H114      -49.4448  -29.7604   14.7122 H         1 UNK         0.0814 
    115 H115      -48.9881  -28.1190   14.2894 H         1 UNK         0.0814 
    116 H116      -51.0282  -26.6705   13.8980 H         1 UNK         0.3091 
    117 H117      -52.8836  -25.0685   13.6599 H         1 UNK         0.0702 
    118 H118      -53.4778  -23.7851   16.3816 H         1 UNK         0.0785 
    119 H119      -54.6436  -24.5606   15.3223 H         1 UNK         0.0785 
    120 H120      -53.8509  -23.0787   14.8096 H         1 UNK         0.0785 
    121 H121      -50.9774  -23.9560   13.6556 H         1 UNK         0.2998 
    122 H122      -48.9495  -22.2953   15.9202 H         1 UNK         0.0697 
    123 H123      -47.0781  -23.8055   15.2222 H         1 UNK         0.0825 
    124 H124      -48.2407  -25.0692   14.8214 H         1 UNK         0.0825 
    125 H125      -48.0551  -24.5366   16.4861 H         1 UNK         0.0825 
    126 H126      -48.5852  -23.2091   13.1932 H         1 UNK         0.3029 
    127 H127      -50.2415  -20.3359   11.7614 H         1 UNK         0.0897 
    128 H128      -47.8671  -19.7282   12.2077 H         1 UNK         0.0792 
    129 H129      -48.0620  -20.3088   10.5607 H         1 UNK         0.0792 
    130 H130      -47.3506  -21.3550   11.7876 H         1 UNK         0.0792 
    131 H131      -49.1317  -22.5653   10.4500 H         1 UNK         0.3086 
    132 H132      -52.1129  -24.5467   10.2999 H         1 UNK         0.0583 
    133 H133      -52.3131  -22.9066    8.5141 H         1 UNK         0.1020 
    134 H134      -50.5887  -22.7549    8.3517 H         1 UNK         0.1020 
    135 H135      -53.6094  -24.9938    8.1431 H         1 UNK         0.0694 
    136 H136      -53.4380  -25.6888    6.5521 H         1 UNK         0.0694 
    137 H137      -49.3996  -24.9349    9.4277 H         1 UNK         0.2989 
    138 H138      -48.3571  -26.8621   12.2127 H         1 UNK         0.1055 
    139 H139      -49.5735  -28.4996   10.7984 H         1 UNK         0.0806 
    140 H140      -47.8713  -28.4854   10.3622 H         1 UNK         0.0806 
    141 H141      -49.0586  -27.6791    9.3359 H         1 UNK         0.0806 
    142 H142      -47.1465  -26.0604    9.7169 H         1 UNK         0.3061 
    143 H143      -45.8177  -22.9616   10.9126 H         1 UNK         0.0734 
    144 H144      -44.3681  -25.6329   10.4961 H         1 UNK         0.0832 
    145 H145      -43.6318  -24.0300   10.4391 H         1 UNK         0.0832 
    146 H146      -44.2840  -24.6451   11.9477 H         1 UNK         0.0832 
    147 H147      -45.2791  -24.3782    8.5305 H         1 UNK         0.3156 
    148 H148      -48.1590  -23.7560    6.6700 H         1 UNK         0.0589 
    149 H149      -46.7487  -22.4163    5.1330 H         1 UNK         0.0808 
    150 H150      -45.5586  -22.1490    6.4086 H         1 UNK         0.0808 
    151 H151      -47.1708  -21.4608    6.5429 H         1 UNK         0.0808 
    152 H152      -45.6433  -24.5902    5.7527 H         1 UNK         0.3098 
    153 H153      -45.2780  -26.7424    5.2378 H         1 UNK         0.0720 
    154 H154      -43.9450  -26.6831    7.3472 H         1 UNK         0.0791 
    155 H155      -43.9664  -28.3110    6.6903 H         1 UNK         0.0791 
    156 H156      -44.9839  -27.9030    8.0715 H         1 UNK         0.0791 
    157 H157      -46.6284  -28.9873    6.5819 H         1 UNK         0.3028 
@<TRIPOS>BOND
     1    1    2 1    
     2    1   82 1    
     3    1   83 1    
     4    1   84 1    
     5    2    3 2    
     6    2    4 am   BACKBONE|DICT|INTERRES
     7    4    5 1    
     8    4   85 1    
     9    5    6 1    
    10    5   80 1    
    11    5   86 1    
    12    6    7 1    
    13    6   87 1    
    14    6   88 1    
    15    7    8 1    
    16    8    9 1    
    17    8   89 1    
    18    8   90 1    
    19    9   10 ar   
    20    9   14 ar   
    21   10   11 ar   
    22   10   91 1    
    23   11   12 ar   
    24   11   58 1    
    25   12   13 ar   
    26   12   92 1    
    27   13   14 ar   
    28   13   15 1    
    29   14   93 1    
    30   15   16 1    
    31   15   94 1    
    32   15   95 1    
    33   16   17 1    
    34   17   18 1    
    35   17   96 1    
    36   17   97 1    
    37   18   19 1    
    38   18   22 1    
    39   18   98 1    
    40   19   20 am   BACKBONE|DICT|INTERRES
    41   19   21 2    
    42   20   99 1    
    43   20  100 1    
    44   22   23 am   BACKBONE|DICT|INTERRES
    45   22  101 1    
    46   23   24 2    
    47   23   25 1    
    48   25   26 1    
    49   25   27 1    
    50   25  102 1    
    51   26  103 1    
    52   26  104 1    
    53   26  105 1    
    54   27   28 am   BACKBONE|DICT|INTERRES
    55   27  106 1    
    56   28   29 2    
    57   28   30 1    
    58   30   31 1    
    59   30   32 1    
    60   30  107 1    
    61   31  108 1    
    62   31  109 1    
    63   31  110 1    
    64   32   33 am   BACKBONE|DICT|INTERRES
    65   32  111 1    
    66   33   34 2    
    67   33   35 1    
    68   35   36 1    
    69   35   37 1    
    70   35  112 1    
    71   36  113 1    
    72   36  114 1    
    73   36  115 1    
    74   37   38 am   BACKBONE|DICT|INTERRES
    75   37  116 1    
    76   38   39 2    
    77   38   40 1    
    78   40   41 1    
    79   40   42 1    
    80   40  117 1    
    81   41  118 1    
    82   41  119 1    
    83   41  120 1    
    84   42   43 am   BACKBONE|DICT|INTERRES
    85   42  121 1    
    86   43   44 2    
    87   43   45 1    
    88   45   46 1    
    89   45   47 1    
    90   45  122 1    
    91   46  123 1    
    92   46  124 1    
    93   46  125 1    
    94   47   48 am   BACKBONE|DICT|INTERRES
    95   47  126 1    
    96   48   49 2    
    97   48   50 1    
    98   50   51 1    
    99   50   52 1    
   100   50  127 1    
   101   51  128 1    
   102   51  129 1    
   103   51  130 1    
   104   52   53 am   BACKBONE|DICT|INTERRES
   105   52  131 1    
   106   53   54 2    
   107   53   55 1    
   108   55   56 1    
   109   55   59 1    
   110   55  132 1    
   111   56   57 1    
   112   56  133 1    
   113   56  134 1    
   114   57   58 1    
   115   58  135 1    
   116   58  136 1    
   117   59   60 am   BACKBONE|DICT|INTERRES
   118   59  137 1    
   119   60   61 2    
   120   60   62 1    
   121   62   63 1    
   122   62   64 1    
   123   62  138 1    
   124   63  139 1    
   125   63  140 1    
   126   63  141 1    
   127   64   65 am   BACKBONE|DICT|INTERRES
   128   64  142 1    
   129   65   66 2    
   130   65   67 1    
   131   67   68 1    
   132   67   69 1    
   133   67  143 1    
   134   68  144 1    
   135   68  145 1    
   136   68  146 1    
   137   69   70 am   BACKBONE|DICT|INTERRES
   138   69  147 1    
   139   70   71 2    
   140   70   72 1    
   141   72   73 1    
   142   72   74 1    
   143   72  148 1    
   144   73  149 1    
   145   73  150 1    
   146   73  151 1    
   147   74   75 am   BACKBONE|DICT|INTERRES
   148   74  152 1    
   149   75   76 2    
   150   75   77 1    
   151   77   78 1    
   152   77   79 1    
   153   77  153 1    
   154   78  154 1    
   155   78  155 1    
   156   78  156 1    
   157   79   80 am   BACKBONE|DICT|INTERRES
   158   79  157 1    
   159   80   81 2    
@<TRIPOS>SUBSTRUCTURE
     1 UNK         1 GROUP             0       ****    0 ROOT    
