@<TRIPOS>MOLECULE
3R207
157   159    1
SMALL
USER_CHARGES


@<TRIPOS>ATOM
      1 CA        -46.5943  -29.3345    3.5898 C.3       0 UNK        -0.1975 
      2 C         -47.2072  -28.6749    4.8166 C.2       0 UNK         0.4852 
      3 O         -47.1369  -27.4531    4.9513 O.2       0 UNK        -0.5216 
      4 N         -47.8150  -29.4732    5.7030 N.am      1 UNK        -0.4461 
      5 CA        -48.3780  -29.0243    6.9789 C.3       1 UNK         0.0864 
      6 C6        -49.5438  -29.9426    7.4268 C.3       14 UNK        -0.0898 
      7 S7        -50.8293  -29.0016    8.3056 S.3       14 UNK        -0.2598 
      8 C8        -52.0716  -28.8152    6.9899 C.3       14 UNK         0.0286 
      9 C9        -53.2027  -27.8988    7.4277 C.ar      14 UNK        -0.0844 
     10 C10       -53.3384  -26.6236    6.8714 C.ar      14 UNK        -0.0881 
     11 C11       -54.3724  -25.7736    7.2808 C.ar      14 UNK        -0.0643 
     12 C12       -55.2741  -26.2161    8.2556 C.ar      14 UNK        -0.0930 
     13 C13       -55.1611  -27.4982    8.8049 C.ar      14 UNK        -0.0827 
     14 C14       -54.1255  -28.3352    8.3815 C.ar      14 UNK        -0.1249 
     15 C15       -56.1784  -27.9886    9.8275 C.3       14 UNK         0.0141 
     16 S16       -55.6232  -27.7019   11.5374 S.3       14 UNK        -0.2313 
     17 C17       -54.5547  -29.1501   11.8518 C.3       14 UNK        -0.0915 
     18 CA        -55.0369  -30.0185   13.0442 C.3       13 UNK         0.0968 
     19 C         -54.1904  -31.3179   13.1923 C.2       13 UNK         0.5732 
     20 N         -53.6546  -31.6505   14.3621 N.am      13 UNK        -0.7310 
     21 O         -54.0295  -32.0570   12.2241 O.2       13 UNK        -0.5035 
     22 N         -55.1350  -29.2421   14.2907 N.am      13 UNK        -0.4233 
     23 C         -56.0736  -29.4418   15.2251 C.2       13 UNK         0.4989 
     24 O         -56.9973  -30.2486   15.1001 O.2       13 UNK        -0.4996 
     25 CA        -55.9676  -28.6034   16.5156 C.3       12 UNK         0.0216 
     26 CB        -56.7795  -29.2014   17.6847 C.3       12 UNK        -0.1964 
     27 N         -54.5892  -28.3309   16.9413 N.am      12 UNK        -0.4276 
     28 C         -53.6263  -29.2242   17.2248 C.2       12 UNK         0.5020 
     29 O         -53.7793  -30.4420   17.1169 O.2       12 UNK        -0.5489 
     30 CA        -52.2579  -28.6731   17.6755 C.3       11 UNK         0.0294 
     31 CB        -51.0953  -29.5034   17.1005 C.3       11 UNK        -0.2019 
     32 N         -52.0899  -27.2809   17.2583 N.am      11 UNK        -0.4493 
     33 C         -52.1623  -26.2051   18.0544 C.2       11 UNK         0.4932 
     34 O         -52.2766  -26.2657   19.2784 O.2       11 UNK        -0.5029 
     35 CA        -52.1391  -24.8225   17.3704 C.3       10 UNK         0.0280 
     36 CB        -50.7355  -24.2045   17.4629 C.3       10 UNK        -0.1976 
     37 N         -52.5678  -24.8600   15.9663 N.am      10 UNK        -0.4242 
     38 C         -53.8109  -25.1757   15.5638 C.2       10 UNK         0.5072 
     39 O         -54.7420  -25.3726   16.3449 O.2       10 UNK        -0.5224 
     40 CA        -54.0526  -25.3969   14.0577 C.3       9 UNK         0.0343 
     41 CB        -54.6440  -24.1349   13.4132 C.3       9 UNK        -0.2003 
     42 N         -52.8557  -25.8079   13.3181 N.am      9 UNK        -0.4272 
     43 C         -52.1206  -26.8992   13.5857 C.2       9 UNK         0.4988 
     44 O         -52.4728  -27.7567   14.3961 O.2       9 UNK        -0.5108 
     45 CA        -50.7493  -27.0479   12.8911 C.3       8 UNK         0.0248 
     46 CB        -50.8440  -28.0844   11.7619 C.3       8 UNK        -0.2001 
     47 N         -50.2035  -25.7990   12.3476 N.am      8 UNK        -0.4140 
     48 C         -50.0091  -24.6580   13.0292 C.2       8 UNK         0.5028 
     49 O         -50.1235  -24.5693   14.2518 O.2       8 UNK        -0.5428 
     50 CA        -49.7445  -23.3779   12.2091 C.3       7 UNK         0.0264 
     51 CB        -48.2686  -22.9697   12.3024 C.3       7 UNK        -0.1988 
     52 N         -50.1408  -23.4607   10.7954 N.am      7 UNK        -0.4454 
     53 C         -51.3678  -23.7799   10.3486 C.2       7 UNK         0.5027 
     54 O         -52.3298  -23.9375   11.1010 O.2       7 UNK        -0.5083 
     55 CA        -51.5645  -24.0265    8.8377 C.3       6 UNK         0.0844 
     56 C56       -52.6517  -23.0840    8.2656 C.3       14 UNK        -0.0967 
     57 S57       -53.0197  -23.4271    6.5120 S.3       14 UNK        -0.2604 
     58 C58       -54.5584  -24.4004    6.6388 C.3       14 UNK         0.0134 
     59 N         -50.3231  -23.9813    8.0577 N.am      6 UNK        -0.4116 
     60 C         -49.3190  -24.8665    8.1098 C.2       5 UNK         0.5034 
     61 O         -49.2939  -25.8385    8.8664 O.2       5 UNK        -0.5045 
     62 CA        -48.1211  -24.6121    7.1780 C.3       5 UNK         0.0224 
     63 CB        -48.4633  -23.7382    5.9502 C.3       5 UNK        -0.1978 
     64 N         -46.9553  -24.0627    7.8817 N.am      5 UNK        -0.4737 
     65 C         -46.8896  -22.9530    8.6346 C.2       4 UNK         0.5027 
     66 O         -47.8720  -22.2777    8.9444 O.2       4 UNK        -0.5211 
     67 CA        -45.4857  -22.5456    9.1214 C.3       4 UNK         0.0297 
     68 CB        -45.4934  -21.4457   10.1991 C.3       4 UNK        -0.1993 
     69 N         -44.7719  -23.7178    9.6227 N.am      4 UNK        -0.4486 
     70 C         -43.5713  -24.1417    9.2080 C.2       3 UNK         0.4961 
     71 O         -42.8449  -23.5103    8.4400 O.2       3 UNK        -0.5105 
     72 CA        -43.1141  -25.5289    9.7086 C.3       3 UNK         0.0299 
     73 CB        -42.1440  -25.3775   10.8915 C.3       3 UNK        -0.1972 
     74 N         -44.2140  -26.4257   10.0959 N.am      3 UNK        -0.4305 
     75 C         -45.2109  -26.8171    9.2880 C.2       2 UNK         0.5006 
     76 O         -45.2847  -26.4885    8.1011 O.2       2 UNK        -0.5106 
     77 CA        -46.3362  -27.6436    9.9412 C.3       2 UNK         0.0296 
     78 CB        -46.9811  -26.8744   11.1110 C.3       2 UNK        -0.2002 
     79 N         -47.3796  -27.9853    8.9703 N.am      2 UNK        -0.4032 
     80 C         -47.2639  -28.9451    8.0434 C.2       1 UNK         0.5000 
     81 O         -46.3342  -29.7585    8.0135 O.2       1 UNK        -0.5238 
     82 H82       -46.7422  -30.4143    3.5898 H         1 UNK         0.0889 
     83 H83       -45.5228  -29.1389    3.5560 H         1 UNK         0.0889 
     84 H84       -47.0436  -28.9306    2.6830 H         1 UNK         0.0889 
     85 H85       -47.7987  -30.4732    5.5614 H         1 UNK         0.3028 
     86 H86       -48.7679  -28.0151    6.8250 H         1 UNK         0.0864 
     87 H87       -49.2006  -30.7610    8.0633 H         1 UNK         0.0720 
     88 H88       -50.0089  -30.4249    6.5652 H         1 UNK         0.0720 
     89 H89       -51.5891  -28.4269    6.0914 H         1 UNK         0.0814 
     90 H90       -52.4755  -29.7945    6.7288 H         1 UNK         0.0814 
     91 H91       -52.6388  -26.2890    6.1178 H         1 UNK         0.1469 
     92 H92       -56.0808  -25.5700    8.5739 H         1 UNK         0.1381 
     93 H93       -54.0289  -29.3296    8.7931 H         1 UNK         0.1206 
     94 H94       -56.3945  -29.0472    9.6756 H         1 UNK         0.0813 
     95 H95       -57.1261  -27.4681    9.6819 H         1 UNK         0.0813 
     96 H96       -54.5060  -29.7575   10.9486 H         1 UNK         0.0638 
     97 H97       -53.5423  -28.7953   12.0248 H         1 UNK         0.0638 
     98 H98       -56.0363  -30.3675   12.7784 H         1 UNK         0.0568 
     99 H99       -53.7974  -31.0869   15.1929 H         1 UNK         0.3450 
    100 H100      -53.1191  -32.5009   14.4264 H         1 UNK         0.3450 
    101 H101      -54.3649  -28.6094   14.4753 H         1 UNK         0.2987 
    102 H102      -56.4063  -27.6341   16.2745 H         1 UNK         0.0766 
    103 H103      -56.7136  -28.5753   18.5745 H         1 UNK         0.0798 
    104 H104      -57.8364  -29.2846   17.4285 H         1 UNK         0.0798 
    105 H105      -56.4289  -30.1995   17.9500 H         1 UNK         0.0798 
    106 H106      -54.3616  -27.3461   17.0240 H         1 UNK         0.3198 
    107 H107      -52.2266  -28.7500   18.7642 H         1 UNK         0.0843 
    108 H108      -50.1301  -29.1006   17.4077 H         1 UNK         0.0831 
    109 H109      -51.1177  -29.5276   16.0102 H         1 UNK         0.0831 
    110 H110      -51.1391  -30.5357   17.4500 H         1 UNK         0.0831 
    111 H111      -52.0349  -27.1451   16.2537 H         1 UNK         0.3133 
    112 H112      -52.8317  -24.1754   17.9125 H         1 UNK         0.0566 
    113 H113      -49.9896  -24.8214   16.9599 H         1 UNK         0.0814 
    114 H114      -50.4230  -24.0992   18.5027 H         1 UNK         0.0814 
    115 H115      -50.7067  -23.2117   17.0133 H         1 UNK         0.0814 
    116 H116      -51.8384  -24.7277   15.2698 H         1 UNK         0.3091 
    117 H117      -54.7854  -26.2001   13.9673 H         1 UNK         0.0702 
    118 H118      -53.9403  -23.3018   13.4391 H         1 UNK         0.0785 
    119 H119      -55.5502  -23.8176   13.9308 H         1 UNK         0.0785 
    120 H120      -54.9119  -24.3142   12.3715 H         1 UNK         0.0785 
    121 H121      -52.5389  -25.1683   12.5945 H         1 UNK         0.2998 
    122 H122      -50.0439  -27.4125   13.6401 H         1 UNK         0.0697 
    123 H123      -51.5579  -27.7763   10.9963 H         1 UNK         0.0825 
    124 H124      -51.1696  -29.0522   12.1456 H         1 UNK         0.0825 
    125 H125      -49.8849  -28.2449   11.2720 H         1 UNK         0.0825 
    126 H126      -50.0812  -25.7677   11.3444 H         1 UNK         0.3029 
    127 H127      -50.3447  -22.5877   12.6647 H         1 UNK         0.0897 
    128 H128      -48.1128  -21.9875   11.8567 H         1 UNK         0.0792 
    129 H129      -47.9418  -22.9072   13.3415 H         1 UNK         0.0792 
    130 H130      -47.6175  -23.6816   11.7953 H         1 UNK         0.0792 
    131 H131      -49.4136  -23.2868   10.1100 H         1 UNK         0.3086 
    132 H132      -51.9410  -25.0484    8.7637 H         1 UNK         0.0583 
    133 H133      -53.5759  -23.1654    8.8420 H         1 UNK         0.1020 
    134 H134      -52.3367  -22.0423    8.3506 H         1 UNK         0.1020 
    135 H135      -55.3010  -23.8138    7.1820 H         1 UNK         0.0694 
    136 H136      -54.9587  -24.5443    5.6345 H         1 UNK         0.0694 
    137 H137      -50.2336  -23.2024    7.4222 H         1 UNK         0.2989 
    138 H138      -47.8189  -25.5923    6.8060 H         1 UNK         0.1055 
    139 H139      -47.6333  -23.7242    5.2436 H         1 UNK         0.0806 
    140 H140      -48.6786  -22.7037    6.2203 H         1 UNK         0.0806 
    141 H141      -49.3282  -24.1315    5.4134 H         1 UNK         0.0806 
    142 H142      -46.1070  -24.6102    7.7716 H         1 UNK         0.3061 
    143 H143      -44.9783  -22.1431    8.2420 H         1 UNK         0.0734 
    144 H144      -46.0771  -20.5807    9.8815 H         1 UNK         0.0832 
    145 H145      -45.9109  -21.8017   11.1393 H         1 UNK         0.0832 
    146 H146      -44.4822  -21.0931   10.4020 H         1 UNK         0.0832 
    147 H147      -45.2884  -24.3151   10.2516 H         1 UNK         0.3156 
    148 H148      -42.5782  -26.0076    8.8863 H         1 UNK         0.0589 
    149 H149      -42.6302  -24.9280   11.7584 H         1 UNK         0.0808 
    150 H150      -41.7336  -26.3405   11.1961 H         1 UNK         0.0808 
    151 H151      -41.3002  -24.7393   10.6248 H         1 UNK         0.0808 
    152 H152      -44.2152  -26.7439   11.0548 H         1 UNK         0.3098 
    153 H153      -45.8956  -28.5645   10.3289 H         1 UNK         0.0720 
    154 H154      -47.7577  -27.4682   11.5897 H         1 UNK         0.0791 
    155 H155      -46.2566  -26.6327   11.8890 H         1 UNK         0.0791 
    156 H156      -47.4309  -25.9382   10.7804 H         1 UNK         0.0791 
    157 H157      -48.1670  -27.3426    8.9195 H         1 UNK         0.3028 
@<TRIPOS>BOND
     1    1    2 1    
     2    1   82 1    
     3    1   83 1    
     4    1   84 1    
     5    2    3 2    
     6    2    4 am   BACKBONE|DICT|INTERRES
     7    4    5 1    
     8    4   85 1    
     9    5    6 1    
    10    5   80 1    
    11    5   86 1    
    12    6    7 1    
    13    6   87 1    
    14    6   88 1    
    15    7    8 1    
    16    8    9 1    
    17    8   89 1    
    18    8   90 1    
    19    9   10 ar   
    20    9   14 ar   
    21   10   11 ar   
    22   10   91 1    
    23   11   12 ar   
    24   11   58 1    
    25   12   13 ar   
    26   12   92 1    
    27   13   14 ar   
    28   13   15 1    
    29   14   93 1    
    30   15   16 1    
    31   15   94 1    
    32   15   95 1    
    33   16   17 1    
    34   17   18 1    
    35   17   96 1    
    36   17   97 1    
    37   18   19 1    
    38   18   22 1    
    39   18   98 1    
    40   19   20 am   BACKBONE|DICT|INTERRES
    41   19   21 2    
    42   20   99 1    
    43   20  100 1    
    44   22   23 am   BACKBONE|DICT|INTERRES
    45   22  101 1    
    46   23   24 2    
    47   23   25 1    
    48   25   26 1    
    49   25   27 1    
    50   25  102 1    
    51   26  103 1    
    52   26  104 1    
    53   26  105 1    
    54   27   28 am   BACKBONE|DICT|INTERRES
    55   27  106 1    
    56   28   29 2    
    57   28   30 1    
    58   30   31 1    
    59   30   32 1    
    60   30  107 1    
    61   31  108 1    
    62   31  109 1    
    63   31  110 1    
    64   32   33 am   BACKBONE|DICT|INTERRES
    65   32  111 1    
    66   33   34 2    
    67   33   35 1    
    68   35   36 1    
    69   35   37 1    
    70   35  112 1    
    71   36  113 1    
    72   36  114 1    
    73   36  115 1    
    74   37   38 am   BACKBONE|DICT|INTERRES
    75   37  116 1    
    76   38   39 2    
    77   38   40 1    
    78   40   41 1    
    79   40   42 1    
    80   40  117 1    
    81   41  118 1    
    82   41  119 1    
    83   41  120 1    
    84   42   43 am   BACKBONE|DICT|INTERRES
    85   42  121 1    
    86   43   44 2    
    87   43   45 1    
    88   45   46 1    
    89   45   47 1    
    90   45  122 1    
    91   46  123 1    
    92   46  124 1    
    93   46  125 1    
    94   47   48 am   BACKBONE|DICT|INTERRES
    95   47  126 1    
    96   48   49 2    
    97   48   50 1    
    98   50   51 1    
    99   50   52 1    
   100   50  127 1    
   101   51  128 1    
   102   51  129 1    
   103   51  130 1    
   104   52   53 am   BACKBONE|DICT|INTERRES
   105   52  131 1    
   106   53   54 2    
   107   53   55 1    
   108   55   56 1    
   109   55   59 1    
   110   55  132 1    
   111   56   57 1    
   112   56  133 1    
   113   56  134 1    
   114   57   58 1    
   115   58  135 1    
   116   58  136 1    
   117   59   60 am   BACKBONE|DICT|INTERRES
   118   59  137 1    
   119   60   61 2    
   120   60   62 1    
   121   62   63 1    
   122   62   64 1    
   123   62  138 1    
   124   63  139 1    
   125   63  140 1    
   126   63  141 1    
   127   64   65 am   BACKBONE|DICT|INTERRES
   128   64  142 1    
   129   65   66 2    
   130   65   67 1    
   131   67   68 1    
   132   67   69 1    
   133   67  143 1    
   134   68  144 1    
   135   68  145 1    
   136   68  146 1    
   137   69   70 am   BACKBONE|DICT|INTERRES
   138   69  147 1    
   139   70   71 2    
   140   70   72 1    
   141   72   73 1    
   142   72   74 1    
   143   72  148 1    
   144   73  149 1    
   145   73  150 1    
   146   73  151 1    
   147   74   75 am   BACKBONE|DICT|INTERRES
   148   74  152 1    
   149   75   76 2    
   150   75   77 1    
   151   77   78 1    
   152   77   79 1    
   153   77  153 1    
   154   78  154 1    
   155   78  155 1    
   156   78  156 1    
   157   79   80 am   BACKBONE|DICT|INTERRES
   158   79  157 1    
   159   80   81 2    
@<TRIPOS>SUBSTRUCTURE
     1 UNK         1 GROUP             0       ****    0 ROOT    
