@<TRIPOS>MOLECULE
3R207
157   159    1
SMALL
USER_CHARGES


@<TRIPOS>ATOM
      1 CA        -53.4260  -26.8248    1.4046 C.3       0 UNK        -0.1975 
      2 C         -53.3188  -26.4439    2.8741 C.2       0 UNK         0.4852 
      3 O         -53.9203  -25.4541    3.2916 O.2       0 UNK        -0.5216 
      4 N         -52.5654  -27.2288    3.6566 N.am      1 UNK        -0.4461 
      5 CA        -52.3022  -27.0080    5.0826 C.3       1 UNK         0.0864 
      6 C6        -51.7109  -28.2856    5.7314 C.3       14 UNK        -0.0898 
      7 S7        -51.6208  -28.2316    7.5504 S.3       14 UNK        -0.2598 
      8 C8        -50.8137  -29.8382    7.8431 C.3       14 UNK         0.0286 
      9 C9        -50.4996  -30.0941    9.3117 C.ar      14 UNK        -0.0844 
     10 C10       -49.1919  -30.3894    9.7119 C.ar      14 UNK        -0.0881 
     11 C11       -48.9073  -30.7043   11.0447 C.ar      14 UNK        -0.0643 
     12 C12       -49.9426  -30.7114   11.9848 C.ar      14 UNK        -0.0930 
     13 C13       -51.2525  -30.4076   11.6000 C.ar      14 UNK        -0.0827 
     14 C14       -51.5223  -30.0961   10.2638 C.ar      14 UNK        -0.1249 
     15 C15       -52.3732  -30.3914   12.6282 C.3       14 UNK         0.0141 
     16 S16       -53.7344  -31.5190   12.1912 S.3       14 UNK        -0.2313 
     17 C17       -55.0429  -30.9415   13.3240 C.3       14 UNK        -0.0915 
     18 CA        -56.0089  -29.9318   12.6482 C.3       13 UNK         0.0968 
     19 C         -57.2633  -29.6948   13.5303 C.2       13 UNK         0.5732 
     20 N         -57.3123  -28.6569   14.3553 N.am      13 UNK        -0.7310 
     21 O         -58.2192  -30.4632   13.4537 O.2       13 UNK        -0.5035 
     22 N         -55.3188  -28.6816   12.2904 N.am      13 UNK        -0.4233 
     23 C         -55.1992  -28.1978   11.0464 C.2       13 UNK         0.4989 
     24 O         -55.6981  -28.7356   10.0560 O.2       13 UNK        -0.4996 
     25 CA        -54.3477  -26.9225   10.8579 C.3       12 UNK         0.0216 
     26 CB        -54.7653  -26.1001    9.6208 C.3       12 UNK        -0.1964 
     27 N         -54.2613  -26.0659   12.0461 N.am      12 UNK        -0.4276 
     28 C         -55.2580  -25.4653   12.7094 C.2       12 UNK         0.5020 
     29 O         -56.4416  -25.5192   12.3701 O.2       12 UNK        -0.5489 
     30 CA        -54.8506  -24.7091   13.9940 C.3       11 UNK         0.0294 
     31 CB        -56.0653  -24.3313   14.8674 C.3       11 UNK        -0.2019 
     32 N         -53.8488  -25.4158   14.8098 N.am      11 UNK        -0.4493 
     33 C         -53.9179  -26.6749   15.2693 C.2       11 UNK         0.4932 
     34 O         -54.8416  -27.4425   14.9956 O.2       11 UNK        -0.5029 
     35 CA        -52.7742  -27.1850   16.1671 C.3       10 UNK         0.0280 
     36 CB        -52.3541  -28.6133   15.7893 C.3       10 UNK        -0.1976 
     37 N         -51.5844  -26.3305   16.1443 N.am      10 UNK        -0.4242 
     38 C         -51.3152  -25.3724   17.0405 C.2       10 UNK         0.5072 
     39 O         -52.0710  -25.0605   17.9617 O.2       10 UNK        -0.5224 
     40 CA        -49.9769  -24.6308   16.8835 C.3       9 UNK         0.0343 
     41 CB        -48.8289  -25.4602   17.4809 C.3       9 UNK        -0.2003 
     42 N         -49.6629  -24.2826   15.4954 N.am      9 UNK        -0.4272 
     43 C         -50.3733  -23.4210   14.7517 C.2       9 UNK         0.4988 
     44 O         -51.3715  -22.8244   15.1572 O.2       9 UNK        -0.5108 
     45 CA        -49.9111  -23.2070   13.3009 C.3       8 UNK         0.0248 
     46 CB        -48.6775  -22.2917   13.2440 C.3       8 UNK        -0.2001 
     47 N         -49.6238  -24.4627   12.6084 N.am      8 UNK        -0.4140 
     48 C         -50.5229  -25.4269   12.3712 C.2       8 UNK         0.5028 
     49 O         -51.7098  -25.3510   12.6792 O.2       8 UNK        -0.5428 
     50 CA        -50.0056  -26.7142   11.7199 C.3       7 UNK         0.0264 
     51 CB        -49.8063  -26.5146   10.2110 C.3       7 UNK        -0.1988 
     52 N         -48.7633  -27.1811   12.3329 N.am      7 UNK        -0.4454 
     53 C         -48.6397  -27.5744   13.6087 C.2       7 UNK         0.5027 
     54 O         -49.5675  -27.5865   14.4183 O.2       7 UNK        -0.5083 
     55 CA        -47.2264  -27.9769   14.0729 C.3       6 UNK         0.0844 
     56 C56       -46.8683  -29.4294   13.6698 C.3       14 UNK        -0.0967 
     57 S57       -46.4733  -29.6458   11.8943 S.3       14 UNK        -0.2604 
     58 C58       -47.4900  -31.0889   11.4478 C.3       14 UNK         0.0134 
     59 N         -46.2099  -27.0145   13.6430 N.am      6 UNK        -0.4116 
     60 C         -46.1460  -25.7335   14.0301 C.2       5 UNK         0.5034 
     61 O         -46.9098  -25.2181   14.8463 O.2       5 UNK        -0.5045 
     62 CA        -45.0786  -24.8670   13.3390 C.3       5 UNK         0.0224 
     63 CB        -43.7065  -25.0588   14.0046 C.3       5 UNK        -0.1978 
     64 N         -44.9692  -25.1137   11.8939 N.am      5 UNK        -0.4737 
     65 C         -45.9794  -24.9522   11.0293 C.2       4 UNK         0.5027 
     66 O         -47.1161  -24.6231   11.3731 O.2       4 UNK        -0.5211 
     67 CA        -45.6910  -25.2489    9.5480 C.3       4 UNK         0.0297 
     68 CB        -45.7966  -26.7588    9.2757 C.3       4 UNK        -0.1993 
     69 N         -46.6513  -24.5493    8.6945 N.am      4 UNK        -0.4486 
     70 C         -46.6889  -23.2274    8.4988 C.2       3 UNK         0.4961 
     71 O         -45.7683  -22.4682    8.8089 O.2       3 UNK        -0.5105 
     72 CA        -47.9862  -22.6647    7.8792 C.3       3 UNK         0.0299 
     73 CB        -47.9692  -21.1282    7.7694 C.3       3 UNK        -0.1972 
     74 N         -48.3194  -23.2273    6.5663 N.am      3 UNK        -0.4305 
     75 C         -48.7707  -24.4656    6.3272 C.2       2 UNK         0.5006 
     76 O         -48.8599  -25.3446    7.1878 O.2       2 UNK        -0.5106 
     77 CA        -49.1600  -24.7724    4.8693 C.3       2 UNK         0.0296 
     78 CB        -47.9215  -25.2038    4.0663 C.3       2 UNK        -0.2002 
     79 N         -50.1835  -25.8164    4.7598 N.am      2 UNK        -0.4032 
     80 C         -51.4164  -25.7599    5.2886 C.2       1 UNK         0.5000 
     81 O         -51.8726  -24.7749    5.8741 O.2       1 UNK        -0.5238 
     82 H82       -54.4670  -27.0083    1.1397 H         1 UNK         0.0889 
     83 H83       -52.8541  -27.7229    1.1719 H         1 UNK         0.0889 
     84 H84       -53.0530  -26.0142    0.7791 H         1 UNK         0.0889 
     85 H85       -52.1081  -28.0301    3.2452 H         1 UNK         0.3028 
     86 H86       -53.2626  -26.8069    5.5631 H         1 UNK         0.0864 
     87 H87       -50.7179  -28.5031    5.3342 H         1 UNK         0.0720 
     88 H88       -52.3319  -29.1441    5.4694 H         1 UNK         0.0720 
     89 H89       -49.9017  -29.8863    7.2460 H         1 UNK         0.0814 
     90 H90       -51.4635  -30.6356    7.4799 H         1 UNK         0.0814 
     91 H91       -48.3940  -30.3987    8.9820 H         1 UNK         0.1469 
     92 H92       -49.7291  -30.9591   13.0151 H         1 UNK         0.1381 
     93 H93       -52.5355  -29.8695    9.9599 H         1 UNK         0.1206 
     94 H94       -52.7455  -29.3708   12.7073 H         1 UNK         0.0813 
     95 H95       -51.9993  -30.6716   13.6136 H         1 UNK         0.0813 
     96 H96       -54.5941  -30.5102   14.2203 H         1 UNK         0.0638 
     97 H97       -55.5885  -31.8273   13.6550 H         1 UNK         0.0638 
     98 H98       -56.3846  -30.4109   11.7422 H         1 UNK         0.0568 
     99 H99       -56.4944  -28.0723   14.5028 H         1 UNK         0.3450 
    100 H100      -58.1387  -28.5111   14.9116 H         1 UNK         0.3450 
    101 H101      -54.9530  -28.1451   13.0679 H         1 UNK         0.2987 
    102 H102      -53.3311  -27.2770   10.6796 H         1 UNK         0.0766 
    103 H103      -54.1265  -25.2261    9.4929 H         1 UNK         0.0798 
    104 H104      -55.7973  -25.7562    9.6946 H         1 UNK         0.0798 
    105 H105      -54.6816  -26.6928    8.7088 H         1 UNK         0.0798 
    106 H106      -53.3131  -25.8925   12.3917 H         1 UNK         0.3198 
    107 H107      -54.3765  -23.7838   13.6625 H         1 UNK         0.0843 
    108 H108      -56.6073  -25.2151   15.2060 H         1 UNK         0.0831 
    109 H109      -56.7694  -23.7097   14.3129 H         1 UNK         0.0831 
    110 H110      -55.7606  -23.7661   15.7482 H         1 UNK         0.0831 
    111 H111      -53.0141  -24.8872   15.0275 H         1 UNK         0.3133 
    112 H112      -53.1757  -27.2245   17.1815 H         1 UNK         0.0566 
    113 H113      -51.5896  -28.9932   16.4670 H         1 UNK         0.0814 
    114 H114      -53.1954  -29.3055   15.8325 H         1 UNK         0.0814 
    115 H115      -51.9458  -28.6421   14.7814 H         1 UNK         0.0814 
    116 H116      -50.8899  -26.5472   15.4328 H         1 UNK         0.3091 
    117 H117      -50.0490  -23.6991   17.4486 H         1 UNK         0.0702 
    118 H118      -47.8924  -24.9022   17.4732 H         1 UNK         0.0785 
    119 H119      -48.6697  -26.3864   16.9270 H         1 UNK         0.0785 
    120 H120      -49.0372  -25.7292   18.5173 H         1 UNK         0.0785 
    121 H121      -48.8297  -24.7066   15.0976 H         1 UNK         0.2998 
    122 H122      -50.7244  -22.7155   12.7630 H         1 UNK         0.0697 
    123 H123      -47.8159  -22.7437   13.7367 H         1 UNK         0.0825 
    124 H124      -48.8743  -21.3382   13.7357 H         1 UNK         0.0825 
    125 H125      -48.3937  -22.0745   12.2139 H         1 UNK         0.0825 
    126 H126      -48.6707  -24.5946   12.2692 H         1 UNK         0.3029 
    127 H127      -50.7584  -27.4914   11.8661 H         1 UNK         0.0897 
    128 H128      -49.0873  -25.7259    9.9922 H         1 UNK         0.0792 
    129 H129      -50.7445  -26.2355    9.7298 H         1 UNK         0.0792 
    130 H130      -49.4566  -27.4267    9.7292 H         1 UNK         0.0792 
    131 H131      -47.9411  -27.1883   11.7486 H         1 UNK         0.3086 
    132 H132      -47.2432  -27.9445   15.1647 H         1 UNK         0.0583 
    133 H133      -45.9930  -29.7501   14.2370 H         1 UNK         0.1020 
    134 H134      -47.6649  -30.1123   13.9694 H         1 UNK         0.1020 
    135 H135      -47.0059  -31.6037   10.6165 H         1 UNK         0.0694 
    136 H136      -47.5044  -31.8059   12.2700 H         1 UNK         0.0694 
    137 H137      -45.5519  -27.3433   12.9518 H         1 UNK         0.2989 
    138 H138      -45.3785  -23.8248   13.4709 H         1 UNK         0.1055 
    139 H139      -43.7639  -24.8679   15.0774 H         1 UNK         0.0806 
    140 H140      -42.9672  -24.3700   13.5954 H         1 UNK         0.0806 
    141 H141      -43.3291  -26.0738   13.8741 H         1 UNK         0.0806 
    142 H142      -44.0634  -25.3927   11.5435 H         1 UNK         0.3061 
    143 H143      -44.6837  -24.9054    9.3040 H         1 UNK         0.0734 
    144 H144      -46.7899  -27.1451    9.5085 H         1 UNK         0.0832 
    145 H145      -45.5882  -26.9875    8.2304 H         1 UNK         0.0832 
    146 H146      -45.0802  -27.3201    9.8770 H         1 UNK         0.0832 
    147 H147      -47.4590  -25.0787    8.3728 H         1 UNK         0.3156 
    148 H148      -48.7929  -22.9300    8.5664 H         1 UNK         0.0589 
    149 H149      -47.1919  -20.7803    7.0877 H         1 UNK         0.0808 
    150 H150      -48.9256  -20.7436    7.4146 H         1 UNK         0.0808 
    151 H151      -47.7809  -20.6686    8.7408 H         1 UNK         0.0808 
    152 H152      -48.2316  -22.5949    5.7838 H         1 UNK         0.3098 
    153 H153      -49.5711  -23.8642    4.4237 H         1 UNK         0.0720 
    154 H154      -48.1665  -25.3757    3.0179 H         1 UNK         0.0791 
    155 H155      -47.4832  -26.1201    4.4645 H         1 UNK         0.0791 
    156 H156      -47.1473  -24.4356    4.0929 H         1 UNK         0.0791 
    157 H157      -49.9023  -26.6680    4.2986 H         1 UNK         0.3028 
@<TRIPOS>BOND
     1    1    2 1    
     2    1   82 1    
     3    1   83 1    
     4    1   84 1    
     5    2    3 2    
     6    2    4 am   BACKBONE|DICT|INTERRES
     7    4    5 1    
     8    4   85 1    
     9    5    6 1    
    10    5   80 1    
    11    5   86 1    
    12    6    7 1    
    13    6   87 1    
    14    6   88 1    
    15    7    8 1    
    16    8    9 1    
    17    8   89 1    
    18    8   90 1    
    19    9   10 ar   
    20    9   14 ar   
    21   10   11 ar   
    22   10   91 1    
    23   11   12 ar   
    24   11   58 1    
    25   12   13 ar   
    26   12   92 1    
    27   13   14 ar   
    28   13   15 1    
    29   14   93 1    
    30   15   16 1    
    31   15   94 1    
    32   15   95 1    
    33   16   17 1    
    34   17   18 1    
    35   17   96 1    
    36   17   97 1    
    37   18   19 1    
    38   18   22 1    
    39   18   98 1    
    40   19   20 am   BACKBONE|DICT|INTERRES
    41   19   21 2    
    42   20   99 1    
    43   20  100 1    
    44   22   23 am   BACKBONE|DICT|INTERRES
    45   22  101 1    
    46   23   24 2    
    47   23   25 1    
    48   25   26 1    
    49   25   27 1    
    50   25  102 1    
    51   26  103 1    
    52   26  104 1    
    53   26  105 1    
    54   27   28 am   BACKBONE|DICT|INTERRES
    55   27  106 1    
    56   28   29 2    
    57   28   30 1    
    58   30   31 1    
    59   30   32 1    
    60   30  107 1    
    61   31  108 1    
    62   31  109 1    
    63   31  110 1    
    64   32   33 am   BACKBONE|DICT|INTERRES
    65   32  111 1    
    66   33   34 2    
    67   33   35 1    
    68   35   36 1    
    69   35   37 1    
    70   35  112 1    
    71   36  113 1    
    72   36  114 1    
    73   36  115 1    
    74   37   38 am   BACKBONE|DICT|INTERRES
    75   37  116 1    
    76   38   39 2    
    77   38   40 1    
    78   40   41 1    
    79   40   42 1    
    80   40  117 1    
    81   41  118 1    
    82   41  119 1    
    83   41  120 1    
    84   42   43 am   BACKBONE|DICT|INTERRES
    85   42  121 1    
    86   43   44 2    
    87   43   45 1    
    88   45   46 1    
    89   45   47 1    
    90   45  122 1    
    91   46  123 1    
    92   46  124 1    
    93   46  125 1    
    94   47   48 am   BACKBONE|DICT|INTERRES
    95   47  126 1    
    96   48   49 2    
    97   48   50 1    
    98   50   51 1    
    99   50   52 1    
   100   50  127 1    
   101   51  128 1    
   102   51  129 1    
   103   51  130 1    
   104   52   53 am   BACKBONE|DICT|INTERRES
   105   52  131 1    
   106   53   54 2    
   107   53   55 1    
   108   55   56 1    
   109   55   59 1    
   110   55  132 1    
   111   56   57 1    
   112   56  133 1    
   113   56  134 1    
   114   57   58 1    
   115   58  135 1    
   116   58  136 1    
   117   59   60 am   BACKBONE|DICT|INTERRES
   118   59  137 1    
   119   60   61 2    
   120   60   62 1    
   121   62   63 1    
   122   62   64 1    
   123   62  138 1    
   124   63  139 1    
   125   63  140 1    
   126   63  141 1    
   127   64   65 am   BACKBONE|DICT|INTERRES
   128   64  142 1    
   129   65   66 2    
   130   65   67 1    
   131   67   68 1    
   132   67   69 1    
   133   67  143 1    
   134   68  144 1    
   135   68  145 1    
   136   68  146 1    
   137   69   70 am   BACKBONE|DICT|INTERRES
   138   69  147 1    
   139   70   71 2    
   140   70   72 1    
   141   72   73 1    
   142   72   74 1    
   143   72  148 1    
   144   73  149 1    
   145   73  150 1    
   146   73  151 1    
   147   74   75 am   BACKBONE|DICT|INTERRES
   148   74  152 1    
   149   75   76 2    
   150   75   77 1    
   151   77   78 1    
   152   77   79 1    
   153   77  153 1    
   154   78  154 1    
   155   78  155 1    
   156   78  156 1    
   157   79   80 am   BACKBONE|DICT|INTERRES
   158   79  157 1    
   159   80   81 2    
@<TRIPOS>SUBSTRUCTURE
     1 UNK         1 GROUP             0       ****    0 ROOT    
