@<TRIPOS>MOLECULE
3R207
157   159    1
SMALL
USER_CHARGES


@<TRIPOS>ATOM
      1 CA        -48.9300  -32.6543    4.4868 C.3       0 UNK        -0.1975 
      2 C         -48.4371  -31.4519    5.2786 C.2       0 UNK         0.4852 
      3 O         -47.2394  -31.1646    5.2634 O.2       0 UNK        -0.5216 
      4 N         -49.3536  -30.7562    5.9666 N.am      1 UNK        -0.4461 
      5 CA        -49.1194  -29.5568    6.7797 C.3       1 UNK         0.0864 
      6 C6        -48.2668  -29.8211    8.0543 C.3       14 UNK        -0.0898 
      7 S7        -49.1388  -30.8462    9.2849 S.3       14 UNK        -0.2598 
      8 C8        -49.4272  -29.6495   10.6327 C.3       14 UNK         0.0286 
      9 C9        -50.7326  -28.8837   10.4615 C.ar      14 UNK        -0.0844 
     10 C10       -50.8582  -27.8806    9.4949 C.ar      14 UNK        -0.0881 
     11 C11       -52.0604  -27.1786    9.3449 C.ar      14 UNK        -0.0643 
     12 C12       -53.1293  -27.4631   10.1994 C.ar      14 UNK        -0.0930 
     13 C13       -53.0127  -28.4546   11.1773 C.ar      14 UNK        -0.0827 
     14 C14       -51.8178  -29.1684   11.2940 C.ar      14 UNK        -0.1249 
     15 C15       -54.1593  -28.7331   12.1354 C.3       14 UNK         0.0141 
     16 S16       -55.1899  -30.1344   11.6106 S.3       14 UNK        -0.2313 
     17 C17       -56.3455  -29.3235   10.4547 C.3       14 UNK        -0.0915 
     18 CA        -57.7481  -29.0250   11.0518 C.3       13 UNK         0.0968 
     19 C         -58.5773  -30.3105   11.3357 C.2       13 UNK         0.5732 
     20 N         -59.0025  -31.0132   10.2940 N.am      13 UNK        -0.7310 
     21 O         -58.8289  -30.6867   12.4798 O.2       13 UNK        -0.5035 
     22 N         -57.6763  -28.1165   12.2073 N.am      13 UNK        -0.4233 
     23 C         -58.6836  -27.3346   12.6117 C.2       13 UNK         0.4989 
     24 O         -59.7533  -27.2433   12.0070 O.2       13 UNK        -0.4996 
     25 CA        -58.4864  -26.4743   13.8750 C.3       12 UNK         0.0216 
     26 CB        -59.1734  -27.1198   15.0959 C.3       12 UNK        -0.1964 
     27 N         -57.1001  -26.0779   14.1772 N.am      12 UNK        -0.4276 
     28 C         -56.0899  -26.8319   14.6314 C.2       12 UNK         0.5020 
     29 O         -56.1609  -28.0529   14.7861 O.2       12 UNK        -0.5489 
     30 CA        -54.7782  -26.0908   14.9439 C.3       11 UNK         0.0294 
     31 CB        -54.9967  -24.9823   15.9928 C.3       11 UNK        -0.2019 
     32 N         -53.7834  -27.0297   15.4642 N.am      11 UNK        -0.4493 
     33 C         -52.5335  -27.1688   15.0142 C.2       11 UNK         0.4932 
     34 O         -52.0608  -26.5273   14.0715 O.2       11 UNK        -0.5029 
     35 CA        -51.6631  -28.2018   15.7402 C.3       10 UNK         0.0280 
     36 CB        -52.0584  -29.6436   15.3654 C.3       10 UNK        -0.1976 
     37 N         -50.2719  -27.9393   15.3903 N.am      10 UNK        -0.4242 
     38 C         -49.1838  -28.4302   15.9930 C.2       10 UNK         0.5072 
     39 O         -49.2107  -29.2214   16.9367 O.2       10 UNK        -0.5224 
     40 CA        -47.8323  -27.9324   15.4573 C.3       9 UNK         0.0343 
     41 CB        -47.4585  -28.6651   14.1576 C.3       9 UNK        -0.2003 
     42 N         -47.8479  -26.4890   15.2148 N.am      9 UNK        -0.4272 
     43 C         -47.7614  -25.5549   16.1730 C.2       9 UNK         0.4988 
     44 O         -47.5941  -25.8086   17.3662 O.2       9 UNK        -0.5108 
     45 CA        -47.9102  -24.0938   15.7300 C.3       8 UNK         0.0248 
     46 CB        -46.6871  -23.6277   14.9217 C.3       8 UNK        -0.2001 
     47 N         -49.1264  -23.9331   14.9319 N.am      8 UNK        -0.4140 
     48 C         -50.2364  -23.3008   15.3389 C.2       8 UNK         0.5028 
     49 O         -50.3290  -22.7235   16.4236 O.2       8 UNK        -0.5428 
     50 CA        -51.4726  -23.3386   14.4162 C.3       7 UNK         0.0264 
     51 CB        -52.1409  -21.9559   14.2616 C.3       7 UNK        -0.1988 
     52 N         -51.2438  -23.9856   13.1173 N.am      7 UNK        -0.4454 
     53 C         -50.5205  -23.5270   12.0863 C.2       7 UNK         0.5027 
     54 O         -49.9696  -22.4250   12.0604 O.2       7 UNK        -0.5083 
     55 CA        -50.3539  -24.4830   10.8892 C.3       6 UNK         0.0844 
     56 C56       -51.1096  -23.9409    9.6503 C.3       14 UNK        -0.0967 
     57 S57       -50.8605  -24.9465    8.1492 S.3       14 UNK        -0.2604 
     58 C58       -52.2307  -26.1400    8.2413 C.3       14 UNK         0.0134 
     59 N         -48.9352  -24.7343   10.6225 N.am      6 UNK        -0.4116 
     60 C         -48.0810  -25.3075   11.4805 C.2       5 UNK         0.5034 
     61 O         -48.4021  -25.6969   12.6051 O.2       5 UNK        -0.5045 
     62 CA        -46.6243  -25.4822   11.0256 C.3       5 UNK         0.0224 
     63 CB        -46.3803  -26.9204   10.5465 C.3       5 UNK        -0.1978 
     64 N         -46.2531  -24.5495    9.9590 N.am      5 UNK        -0.4737 
     65 C         -45.7472  -23.3269   10.1748 C.2       4 UNK         0.5027 
     66 O         -45.5342  -22.8691   11.2976 O.2       4 UNK        -0.5211 
     67 CA        -45.3942  -22.4696    8.9444 C.3       4 UNK         0.0297 
     68 CB        -43.8882  -22.5582    8.6483 C.3       4 UNK        -0.1993 
     69 N         -46.1395  -22.8340    7.7378 N.am      4 UNK        -0.4486 
     70 C         -47.4420  -22.5883    7.5437 C.2       3 UNK         0.4961 
     71 O         -48.1522  -21.9849    8.3475 O.2       3 UNK        -0.5105 
     72 CA        -48.0648  -23.1199    6.2389 C.3       3 UNK         0.0299 
     73 CB        -48.0149  -22.0381    5.1479 C.3       3 UNK        -0.1972 
     74 N         -47.4739  -24.3611    5.7171 N.am      3 UNK        -0.4305 
     75 C         -47.3390  -25.5110    6.3927 C.2       2 UNK         0.5006 
     76 O         -47.5733  -25.6383    7.5968 O.2       2 UNK        -0.5106 
     77 CA        -46.7937  -26.7112    5.6037 C.3       2 UNK         0.0296 
     78 CB        -45.2609  -26.7642    5.7089 C.3       2 UNK        -0.2002 
     79 N         -47.3517  -27.9544    6.1343 N.am      2 UNK        -0.4032 
     80 C         -48.6021  -28.3853    5.9137 C.2       1 UNK         0.5000 
     81 O         -49.3591  -27.8816    5.0804 O.2       1 UNK        -0.5238 
     82 H82       -50.0046  -32.8018    4.5938 H         1 UNK         0.0889 
     83 H83       -48.4286  -33.5592    4.8291 H         1 UNK         0.0889 
     84 H84       -48.7096  -32.5220    3.4279 H         1 UNK         0.0889 
     85 H85       -50.3202  -31.0455    5.9135 H         1 UNK         0.3028 
     86 H86       -50.1093  -29.2398    7.1097 H         1 UNK         0.0864 
     87 H87       -47.3275  -30.3168    7.8050 H         1 UNK         0.0720 
     88 H88       -47.9904  -28.8828    8.5330 H         1 UNK         0.0720 
     89 H89       -48.5952  -28.9510   10.7174 H         1 UNK         0.0814 
     90 H90       -49.4399  -30.2008   11.5743 H         1 UNK         0.0814 
     91 H91       -50.0217  -27.6418    8.8546 H         1 UNK         0.1469 
     92 H92       -54.0550  -26.9137   10.1010 H         1 UNK         0.1381 
     93 H93       -51.7305  -29.9424   12.0427 H         1 UNK         0.1206 
     94 H94       -54.7719  -27.8404   12.2546 H         1 UNK         0.0813 
     95 H95       -53.7635  -28.9609   13.1232 H         1 UNK         0.0813 
     96 H96       -55.9028  -28.3966   10.0910 H         1 UNK         0.0638 
     97 H97       -56.4357  -29.9592    9.5724 H         1 UNK         0.0638 
     98 H98       -58.2974  -28.4923   10.2728 H         1 UNK         0.0568 
     99 H99       -58.8024  -30.7221    9.3499 H         1 UNK         0.3450 
    100 H100      -59.5359  -31.8529   10.4564 H         1 UNK         0.3450 
    101 H101      -56.8894  -28.2365   12.8334 H         1 UNK         0.2987 
    102 H102      -59.0086  -25.5368   13.6768 H         1 UNK         0.0766 
    103 H103      -58.7424  -28.0908   15.3418 H         1 UNK         0.0798 
    104 H104      -59.0972  -26.4841   15.9780 H         1 UNK         0.0798 
    105 H105      -60.2351  -27.2806   14.9036 H         1 UNK         0.0798 
    106 H106      -56.9135  -25.0937   14.0398 H         1 UNK         0.3198 
    107 H107      -54.4251  -25.6407   14.0133 H         1 UNK         0.0843 
    108 H108      -55.6319  -24.1839   15.6082 H         1 UNK         0.0831 
    109 H109      -54.0551  -24.5216   16.2901 H         1 UNK         0.0831 
    110 H110      -55.4702  -25.3711   16.8954 H         1 UNK         0.0831 
    111 H111      -54.1265  -27.6690   16.1688 H         1 UNK         0.3133 
    112 H112      -51.7872  -28.0550   16.8149 H         1 UNK         0.0566 
    113 H113      -51.5228  -30.3729   15.9729 H         1 UNK         0.0814 
    114 H114      -53.1234  -29.8205   15.5214 H         1 UNK         0.0814 
    115 H115      -51.8380  -29.8606   14.3215 H         1 UNK         0.0814 
    116 H116      -50.1675  -27.2786   14.6293 H         1 UNK         0.3091 
    117 H117      -47.0683  -28.1547   16.2055 H         1 UNK         0.0702 
    118 H118      -48.1719  -28.4623   13.3579 H         1 UNK         0.0785 
    119 H119      -47.4367  -29.7450   14.3105 H         1 UNK         0.0785 
    120 H120      -46.4700  -28.3672   13.8078 H         1 UNK         0.0785 
    121 H121      -47.9898  -26.1952   14.2497 H         1 UNK         0.2998 
    122 H122      -47.9617  -23.4799   16.6317 H         1 UNK         0.0697 
    123 H123      -46.5559  -24.1985   14.0033 H         1 UNK         0.0825 
    124 H124      -45.7715  -23.7343   15.5047 H         1 UNK         0.0825 
    125 H125      -46.7749  -22.5766   14.6460 H         1 UNK         0.0825 
    126 H126      -49.1391  -24.3991   14.0320 H         1 UNK         0.3029 
    127 H127      -52.1888  -23.9789   14.9303 H         1 UNK         0.0897 
    128 H128      -53.0197  -22.0088   13.6190 H         1 UNK         0.0792 
    129 H129      -52.4714  -21.5734   15.2281 H         1 UNK         0.0792 
    130 H130      -51.4587  -21.2167   13.8414 H         1 UNK         0.0792 
    131 H131      -51.5968  -24.9403   13.0765 H         1 UNK         0.3086 
    132 H132      -50.7957  -25.4441   11.1594 H         1 UNK         0.0583 
    133 H133      -52.1788  -23.8639    9.8568 H         1 UNK         0.1020 
    134 H134      -50.7739  -22.9279    9.4169 H         1 UNK         0.1020 
    135 H135      -53.1688  -25.5946    8.3539 H         1 UNK         0.0694 
    136 H136      -52.2934  -26.6642    7.2869 H         1 UNK         0.0694 
    137 H137      -48.5956  -24.4495    9.7147 H         1 UNK         0.2989 
    138 H138      -45.9875  -25.3107   11.8962 H         1 UNK         0.1055 
    139 H139      -45.3411  -27.0705   10.2536 H         1 UNK         0.0806 
    140 H140      -47.0083  -27.1675    9.6921 H         1 UNK         0.0806 
    141 H141      -46.6002  -27.6386   11.3368 H         1 UNK         0.0806 
    142 H142      -46.4632  -24.8435    9.0091 H         1 UNK         0.3061 
    143 H143      -45.6325  -21.4325    9.1910 H         1 UNK         0.0734 
    144 H144      -43.3019  -22.2620    9.5194 H         1 UNK         0.0832 
    145 H145      -43.5870  -23.5727    8.3838 H         1 UNK         0.0832 
    146 H146      -43.6036  -21.8970    7.8296 H         1 UNK         0.0832 
    147 H147      -45.6370  -23.3369    7.0212 H         1 UNK         0.3156 
    148 H148      -49.1140  -23.3314    6.4487 H         1 UNK         0.0589 
    149 H149      -46.9902  -21.8081    4.8531 H         1 UNK         0.0808 
    150 H150      -48.5616  -22.3457    4.2563 H         1 UNK         0.0808 
    151 H151      -48.4692  -21.1096    5.4974 H         1 UNK         0.0808 
    152 H152      -47.2242  -24.3534    4.7383 H         1 UNK         0.3098 
    153 H153      -47.0767  -26.6141    4.5533 H         1 UNK         0.0720 
    154 H154      -44.8558  -27.6156    5.1612 H         1 UNK         0.0791 
    155 H155      -44.9283  -26.8432    6.7451 H         1 UNK         0.0791 
    156 H156      -44.8073  -25.8657    5.2885 H         1 UNK         0.0791 
    157 H157      -46.7967  -28.4303    6.8293 H         1 UNK         0.3028 
@<TRIPOS>BOND
     1    1    2 1    
     2    1   82 1    
     3    1   83 1    
     4    1   84 1    
     5    2    3 2    
     6    2    4 am   BACKBONE|DICT|INTERRES
     7    4    5 1    
     8    4   85 1    
     9    5    6 1    
    10    5   80 1    
    11    5   86 1    
    12    6    7 1    
    13    6   87 1    
    14    6   88 1    
    15    7    8 1    
    16    8    9 1    
    17    8   89 1    
    18    8   90 1    
    19    9   10 ar   
    20    9   14 ar   
    21   10   11 ar   
    22   10   91 1    
    23   11   12 ar   
    24   11   58 1    
    25   12   13 ar   
    26   12   92 1    
    27   13   14 ar   
    28   13   15 1    
    29   14   93 1    
    30   15   16 1    
    31   15   94 1    
    32   15   95 1    
    33   16   17 1    
    34   17   18 1    
    35   17   96 1    
    36   17   97 1    
    37   18   19 1    
    38   18   22 1    
    39   18   98 1    
    40   19   20 am   BACKBONE|DICT|INTERRES
    41   19   21 2    
    42   20   99 1    
    43   20  100 1    
    44   22   23 am   BACKBONE|DICT|INTERRES
    45   22  101 1    
    46   23   24 2    
    47   23   25 1    
    48   25   26 1    
    49   25   27 1    
    50   25  102 1    
    51   26  103 1    
    52   26  104 1    
    53   26  105 1    
    54   27   28 am   BACKBONE|DICT|INTERRES
    55   27  106 1    
    56   28   29 2    
    57   28   30 1    
    58   30   31 1    
    59   30   32 1    
    60   30  107 1    
    61   31  108 1    
    62   31  109 1    
    63   31  110 1    
    64   32   33 am   BACKBONE|DICT|INTERRES
    65   32  111 1    
    66   33   34 2    
    67   33   35 1    
    68   35   36 1    
    69   35   37 1    
    70   35  112 1    
    71   36  113 1    
    72   36  114 1    
    73   36  115 1    
    74   37   38 am   BACKBONE|DICT|INTERRES
    75   37  116 1    
    76   38   39 2    
    77   38   40 1    
    78   40   41 1    
    79   40   42 1    
    80   40  117 1    
    81   41  118 1    
    82   41  119 1    
    83   41  120 1    
    84   42   43 am   BACKBONE|DICT|INTERRES
    85   42  121 1    
    86   43   44 2    
    87   43   45 1    
    88   45   46 1    
    89   45   47 1    
    90   45  122 1    
    91   46  123 1    
    92   46  124 1    
    93   46  125 1    
    94   47   48 am   BACKBONE|DICT|INTERRES
    95   47  126 1    
    96   48   49 2    
    97   48   50 1    
    98   50   51 1    
    99   50   52 1    
   100   50  127 1    
   101   51  128 1    
   102   51  129 1    
   103   51  130 1    
   104   52   53 am   BACKBONE|DICT|INTERRES
   105   52  131 1    
   106   53   54 2    
   107   53   55 1    
   108   55   56 1    
   109   55   59 1    
   110   55  132 1    
   111   56   57 1    
   112   56  133 1    
   113   56  134 1    
   114   57   58 1    
   115   58  135 1    
   116   58  136 1    
   117   59   60 am   BACKBONE|DICT|INTERRES
   118   59  137 1    
   119   60   61 2    
   120   60   62 1    
   121   62   63 1    
   122   62   64 1    
   123   62  138 1    
   124   63  139 1    
   125   63  140 1    
   126   63  141 1    
   127   64   65 am   BACKBONE|DICT|INTERRES
   128   64  142 1    
   129   65   66 2    
   130   65   67 1    
   131   67   68 1    
   132   67   69 1    
   133   67  143 1    
   134   68  144 1    
   135   68  145 1    
   136   68  146 1    
   137   69   70 am   BACKBONE|DICT|INTERRES
   138   69  147 1    
   139   70   71 2    
   140   70   72 1    
   141   72   73 1    
   142   72   74 1    
   143   72  148 1    
   144   73  149 1    
   145   73  150 1    
   146   73  151 1    
   147   74   75 am   BACKBONE|DICT|INTERRES
   148   74  152 1    
   149   75   76 2    
   150   75   77 1    
   151   77   78 1    
   152   77   79 1    
   153   77  153 1    
   154   78  154 1    
   155   78  155 1    
   156   78  156 1    
   157   79   80 am   BACKBONE|DICT|INTERRES
   158   79  157 1    
   159   80   81 2    
@<TRIPOS>SUBSTRUCTURE
     1 UNK         1 GROUP             0       ****    0 ROOT    
