@<TRIPOS>MOLECULE
3R207
157   159    1
SMALL
USER_CHARGES


@<TRIPOS>ATOM
      1 CA        -46.2844  -31.1478    4.8090 C.3       0 UNK        -0.1975 
      2 C         -47.5477  -30.3312    4.5807 C.2       0 UNK         0.4852 
      3 O         -47.5221  -29.3650    3.8169 O.2       0 UNK        -0.5216 
      4 N         -48.6533  -30.7153    5.2310 N.am      1 UNK        -0.4461 
      5 CA        -49.9281  -29.9923    5.2182 C.3       1 UNK         0.0864 
      6 C6        -51.0953  -30.8810    5.7241 C.3       14 UNK        -0.0898 
      7 S7        -50.8458  -31.5599    7.4060 S.3       14 UNK        -0.2598 
      8 C8        -52.4310  -31.1903    8.2256 C.3       14 UNK         0.0286 
      9 C9        -52.7492  -29.7012    8.2979 C.ar      14 UNK        -0.0844 
     10 C10       -51.9445  -28.8333    9.0449 C.ar      14 UNK        -0.0881 
     11 C11       -52.2720  -27.4753    9.1577 C.ar      14 UNK        -0.0643 
     12 C12       -53.4134  -26.9953    8.5097 C.ar      14 UNK        -0.0930 
     13 C13       -54.2280  -27.8515    7.7662 C.ar      14 UNK        -0.0827 
     14 C14       -53.8877  -29.2017    7.6589 C.ar      14 UNK        -0.1249 
     15 C15       -55.4761  -27.3211    7.0771 C.3       14 UNK         0.0141 
     16 S16       -56.9833  -27.6539    8.0452 S.3       14 UNK        -0.2313 
     17 C17       -56.8835  -26.3988    9.3727 C.3       14 UNK        -0.0915 
     18 CA        -57.2043  -26.9490   10.7889 C.3       13 UNK         0.0968 
     19 C         -58.7221  -27.2564   10.9638 C.2       13 UNK         0.5732 
     20 N         -59.1324  -28.5020   11.1735 N.am      13 UNK        -0.7310 
     21 O         -59.5415  -26.3414   10.9211 O.2       13 UNK        -0.5035 
     22 N         -56.2908  -28.0379   11.1714 N.am      13 UNK        -0.4233 
     23 C         -56.0798  -28.4600   12.4258 C.2       13 UNK         0.4989 
     24 O         -56.6099  -27.9495   13.4152 O.2       13 UNK        -0.4996 
     25 CA        -55.1618  -29.6870   12.6170 C.3       12 UNK         0.0216 
     26 CB        -54.3121  -30.0378   11.3776 C.3       12 UNK        -0.1964 
     27 N         -54.3050  -29.5804   13.8054 N.am      12 UNK        -0.4276 
     28 C         -53.3957  -28.6298   14.0658 C.2       12 UNK         0.5020 
     29 O         -53.1458  -27.6781   13.3213 O.2       12 UNK        -0.5489 
     30 CA        -52.5880  -28.8173   15.3582 C.3       11 UNK         0.0294 
     31 CB        -51.2981  -29.6038   15.0686 C.3       11 UNK        -0.2019 
     32 N         -52.2265  -27.5168   15.9151 N.am      11 UNK        -0.4493 
     33 C         -52.8752  -26.8973   16.9082 C.2       11 UNK         0.4932 
     34 O         -53.8317  -27.3916   17.5086 O.2       11 UNK        -0.5029 
     35 CA        -52.3773  -25.4872   17.2874 C.3       10 UNK         0.0280 
     36 CB        -52.8832  -25.0138   18.6669 C.3       10 UNK        -0.1976 
     37 N         -50.9214  -25.3351   17.1797 N.am      10 UNK        -0.4242 
     38 C         -49.9706  -25.9880   17.8676 C.2       10 UNK         0.5072 
     39 O         -50.2105  -26.7993   18.7633 O.2       10 UNK        -0.5224 
     40 CA        -48.4964  -25.7135   17.4988 C.3       9 UNK         0.0343 
     41 CB        -47.8314  -26.9886   16.9519 C.3       9 UNK        -0.2003 
     42 N         -48.3197  -24.6357   16.5212 N.am      9 UNK        -0.4272 
     43 C         -48.3857  -23.3252   16.7952 C.2       9 UNK         0.4988 
     44 O         -48.5166  -22.8686   17.9311 O.2       9 UNK        -0.5108 
     45 CA        -48.3470  -22.3621   15.5928 C.3       8 UNK         0.0248 
     46 CB        -46.8976  -22.0332   15.2024 C.3       8 UNK        -0.2001 
     47 N         -49.0702  -22.8756   14.4238 N.am      8 UNK        -0.4140 
     48 C         -50.3834  -23.1487   14.3998 C.2       8 UNK         0.5028 
     49 O         -51.1448  -22.9306   15.3413 O.2       8 UNK        -0.5428 
     50 CA        -50.9304  -23.8476   13.1468 C.3       7 UNK         0.0264 
     51 CB        -51.2587  -22.8330   12.0399 C.3       7 UNK        -0.1988 
     52 N         -50.0106  -24.8648   12.6372 N.am      7 UNK        -0.4454 
     53 C         -49.7305  -26.0192   13.2598 C.2       7 UNK         0.5027 
     54 O         -50.2092  -26.3404   14.3461 O.2       7 UNK        -0.5083 
     55 CA        -48.7085  -26.9509   12.5747 C.3       6 UNK         0.0844 
     56 C56       -49.3510  -27.7628   11.4195 C.3       14 UNK        -0.0967 
     57 S57       -49.6453  -26.7716    9.9076 S.3       14 UNK        -0.2604 
     58 C58       -51.4469  -26.5048    9.9988 C.3       14 UNK         0.0134 
     59 N         -47.5178  -26.2258   12.1298 N.am      6 UNK        -0.4116 
     60 C         -46.6754  -25.5356   12.9093 C.2       5 UNK         0.5034 
     61 O         -46.7362  -25.5086   14.1376 O.2       5 UNK        -0.5045 
     62 CA        -45.6285  -24.6768   12.1772 C.3       5 UNK         0.0224 
     63 CB        -44.3686  -25.5011   11.8709 C.3       5 UNK        -0.1978 
     64 N         -46.1446  -24.0916   10.9333 N.am      5 UNK        -0.4737 
     65 C         -47.1827  -23.2494   10.8528 C.2       4 UNK         0.5027 
     66 O         -47.7767  -22.8214   11.8416 O.2       4 UNK        -0.5211 
     67 CA        -47.6964  -22.8658    9.4538 C.3       4 UNK         0.0297 
     68 CB        -47.0382  -21.5638    8.9594 C.3       4 UNK        -0.1993 
     69 N         -47.6142  -23.9411    8.4504 N.am      4 UNK        -0.4486 
     70 C         -46.5308  -24.4795    7.8707 C.2       3 UNK         0.4961 
     71 O         -45.3791  -24.1407    8.1446 O.2       3 UNK        -0.5105 
     72 CA        -46.7499  -25.6164    6.8523 C.3       3 UNK         0.0299 
     73 CB        -45.8679  -26.8325    7.1883 C.3       3 UNK        -0.1972 
     74 N         -48.1383  -26.0734    6.7652 N.am      3 UNK        -0.4305 
     75 C         -49.1122  -25.5440    6.0181 C.2       2 UNK         0.5006 
     76 O         -48.9645  -24.5470    5.3100 O.2       2 UNK        -0.5106 
     77 CA        -50.4773  -26.2619    6.0867 C.3       2 UNK         0.0296 
     78 CB        -51.6101  -25.4527    5.4291 C.3       2 UNK        -0.2002 
     79 N         -50.4505  -27.6067    5.5009 N.am      2 UNK        -0.4032 
     80 C         -49.8106  -28.6712    6.0075 C.2       1 UNK         0.5000 
     81 O         -49.1477  -28.6429    7.0488 O.2       1 UNK        -0.5238 
     82 H82       -45.5029  -30.5171    5.2319 H         1 UNK         0.0889 
     83 H83       -45.9229  -31.5526    3.8641 H         1 UNK         0.0889 
     84 H84       -46.4551  -31.9801    5.4917 H         1 UNK         0.0889 
     85 H85       -48.6113  -31.4886    5.8797 H         1 UNK         0.3028 
     86 H86       -50.1420  -29.7378    4.1776 H         1 UNK         0.0864 
     87 H87       -51.2256  -31.7257    5.0461 H         1 UNK         0.0720 
     88 H88       -52.0348  -30.3284    5.6780 H         1 UNK         0.0720 
     89 H89       -52.4004  -31.5913    9.2394 H         1 UNK         0.0814 
     90 H90       -53.2253  -31.7326    7.7103 H         1 UNK         0.0814 
     91 H91       -51.0688  -29.2234    9.5434 H         1 UNK         0.1469 
     92 H92       -53.6746  -25.9495    8.5926 H         1 UNK         0.1381 
     93 H93       -54.5232  -29.8664    7.0896 H         1 UNK         0.1206 
     94 H94       -55.3906  -26.2502    6.8859 H         1 UNK         0.0813 
     95 H95       -55.5768  -27.7945    6.0994 H         1 UNK         0.0813 
     96 H96       -57.5541  -25.5765    9.1171 H         1 UNK         0.0638 
     97 H97       -55.8866  -25.9601    9.3828 H         1 UNK         0.0638 
     98 H98       -57.0070  -26.1310   11.4843 H         1 UNK         0.0568 
     99 H99       -58.4714  -29.2605   11.2008 H         1 UNK         0.3450 
    100 H100      -60.1166  -28.6837   11.2902 H         1 UNK         0.3450 
    101 H101      -55.8236  -28.5044   10.4077 H         1 UNK         0.2987 
    102 H102      -55.8300  -30.5291   12.8030 H         1 UNK         0.0766 
    103 H103      -54.9318  -30.2939   10.5175 H         1 UNK         0.0798 
    104 H104      -53.6678  -30.8958   11.5692 H         1 UNK         0.0798 
    105 H105      -53.6726  -29.2028   11.0947 H         1 UNK         0.0798 
    106 H106      -54.4466  -30.3002   14.5006 H         1 UNK         0.3198 
    107 H107      -53.1845  -29.3814   16.0786 H         1 UNK         0.0843 
    108 H108      -50.7034  -29.7353   15.9728 H         1 UNK         0.0831 
    109 H109      -50.6749  -29.0985   14.3299 H         1 UNK         0.0831 
    110 H110      -51.5236  -30.5975   14.6798 H         1 UNK         0.0831 
    111 H111      -51.4958  -27.0137   15.4115 H         1 UNK         0.3133 
    112 H112      -52.8005  -24.8155   16.5395 H         1 UNK         0.0566 
    113 H113      -52.5295  -24.0082   18.8945 H         1 UNK         0.0814 
    114 H114      -52.5546  -25.6756   19.4688 H         1 UNK         0.0814 
    115 H115      -53.9731  -24.9865   18.6954 H         1 UNK         0.0814 
    116 H116      -50.6194  -24.6862   16.4627 H         1 UNK         0.3091 
    117 H117      -47.9814  -25.4321   18.4196 H         1 UNK         0.0702 
    118 H118      -46.7761  -26.8231   16.7336 H         1 UNK         0.0785 
    119 H119      -48.3120  -27.3321   16.0353 H         1 UNK         0.0785 
    120 H120      -47.8884  -27.8033   17.6748 H         1 UNK         0.0785 
    121 H121      -48.1378  -24.9228   15.5652 H         1 UNK         0.2998 
    122 H122      -48.8361  -21.4343   15.8968 H         1 UNK         0.0697 
    123 H123      -46.3450  -22.9262   14.9115 H         1 UNK         0.0825 
    124 H124      -46.3637  -21.5785   16.0379 H         1 UNK         0.0825 
    125 H125      -46.8593  -21.3297   14.3703 H         1 UNK         0.0825 
    126 H126      -48.5316  -23.0252   13.5732 H         1 UNK         0.3029 
    127 H127      -51.8578  -24.3522   13.4289 H         1 UNK         0.0897 
    128 H128      -50.3756  -22.2848   11.7115 H         1 UNK         0.0792 
    129 H129      -51.9829  -22.0976   12.3928 H         1 UNK         0.0792 
    130 H130      -51.6947  -23.3224   11.1690 H         1 UNK         0.0792 
    131 H131      -49.5399  -24.6611   11.7681 H         1 UNK         0.3086 
    132 H132      -48.3789  -27.6640   13.3334 H         1 UNK         0.0583 
    133 H133      -48.6846  -28.5819   11.1443 H         1 UNK         0.1020 
    134 H134      -50.2751  -28.2444   11.7472 H         1 UNK         0.1020 
    135 H135      -51.7904  -26.5558   11.0328 H         1 UNK         0.0694 
    136 H136      -51.6348  -25.4818    9.6700 H         1 UNK         0.0694 
    137 H137      -47.3897  -26.1718   11.1302 H         1 UNK         0.2989 
    138 H138      -45.3526  -23.8563   12.8426 H         1 UNK         0.1055 
    139 H139      -44.5774  -26.3210   11.1825 H         1 UNK         0.0806 
    140 H140      -43.5887  -24.8819   11.4272 H         1 UNK         0.0806 
    141 H141      -43.9558  -25.9360   12.7824 H         1 UNK         0.0806 
    142 H142      -45.6833  -24.3413   10.0630 H         1 UNK         0.3061 
    143 H143      -48.7625  -22.6627    9.5682 H         1 UNK         0.0734 
    144 H144      -45.9577  -21.6639    8.8539 H         1 UNK         0.0832 
    145 H145      -47.4431  -21.2554    7.9956 H         1 UNK         0.0832 
    146 H146      -47.2177  -20.7491    9.6622 H         1 UNK         0.0832 
    147 H147      -48.5022  -24.3367    8.1759 H         1 UNK         0.3156 
    148 H148      -46.4450  -25.2350    5.8759 H         1 UNK         0.0589 
    149 H149      -45.9930  -27.6269    6.4517 H         1 UNK         0.0808 
    150 H150      -44.8102  -26.5658    7.1958 H         1 UNK         0.0808 
    151 H151      -46.1094  -27.2456    8.1686 H         1 UNK         0.0808 
    152 H152      -48.3650  -26.9398    7.2520 H         1 UNK         0.3098 
    153 H153      -50.7258  -26.3643    7.1425 H         1 UNK         0.0720 
    154 H154      -51.6807  -24.4551    5.8647 H         1 UNK         0.0791 
    155 H155      -52.5768  -25.9355    5.5752 H         1 UNK         0.0791 
    156 H156      -51.4519  -25.3311    4.3568 H         1 UNK         0.0791 
    157 H157      -50.9485  -27.7156    4.6296 H         1 UNK         0.3028 
@<TRIPOS>BOND
     1    1    2 1    
     2    1   82 1    
     3    1   83 1    
     4    1   84 1    
     5    2    3 2    
     6    2    4 am   BACKBONE|DICT|INTERRES
     7    4    5 1    
     8    4   85 1    
     9    5    6 1    
    10    5   80 1    
    11    5   86 1    
    12    6    7 1    
    13    6   87 1    
    14    6   88 1    
    15    7    8 1    
    16    8    9 1    
    17    8   89 1    
    18    8   90 1    
    19    9   10 ar   
    20    9   14 ar   
    21   10   11 ar   
    22   10   91 1    
    23   11   12 ar   
    24   11   58 1    
    25   12   13 ar   
    26   12   92 1    
    27   13   14 ar   
    28   13   15 1    
    29   14   93 1    
    30   15   16 1    
    31   15   94 1    
    32   15   95 1    
    33   16   17 1    
    34   17   18 1    
    35   17   96 1    
    36   17   97 1    
    37   18   19 1    
    38   18   22 1    
    39   18   98 1    
    40   19   20 am   BACKBONE|DICT|INTERRES
    41   19   21 2    
    42   20   99 1    
    43   20  100 1    
    44   22   23 am   BACKBONE|DICT|INTERRES
    45   22  101 1    
    46   23   24 2    
    47   23   25 1    
    48   25   26 1    
    49   25   27 1    
    50   25  102 1    
    51   26  103 1    
    52   26  104 1    
    53   26  105 1    
    54   27   28 am   BACKBONE|DICT|INTERRES
    55   27  106 1    
    56   28   29 2    
    57   28   30 1    
    58   30   31 1    
    59   30   32 1    
    60   30  107 1    
    61   31  108 1    
    62   31  109 1    
    63   31  110 1    
    64   32   33 am   BACKBONE|DICT|INTERRES
    65   32  111 1    
    66   33   34 2    
    67   33   35 1    
    68   35   36 1    
    69   35   37 1    
    70   35  112 1    
    71   36  113 1    
    72   36  114 1    
    73   36  115 1    
    74   37   38 am   BACKBONE|DICT|INTERRES
    75   37  116 1    
    76   38   39 2    
    77   38   40 1    
    78   40   41 1    
    79   40   42 1    
    80   40  117 1    
    81   41  118 1    
    82   41  119 1    
    83   41  120 1    
    84   42   43 am   BACKBONE|DICT|INTERRES
    85   42  121 1    
    86   43   44 2    
    87   43   45 1    
    88   45   46 1    
    89   45   47 1    
    90   45  122 1    
    91   46  123 1    
    92   46  124 1    
    93   46  125 1    
    94   47   48 am   BACKBONE|DICT|INTERRES
    95   47  126 1    
    96   48   49 2    
    97   48   50 1    
    98   50   51 1    
    99   50   52 1    
   100   50  127 1    
   101   51  128 1    
   102   51  129 1    
   103   51  130 1    
   104   52   53 am   BACKBONE|DICT|INTERRES
   105   52  131 1    
   106   53   54 2    
   107   53   55 1    
   108   55   56 1    
   109   55   59 1    
   110   55  132 1    
   111   56   57 1    
   112   56  133 1    
   113   56  134 1    
   114   57   58 1    
   115   58  135 1    
   116   58  136 1    
   117   59   60 am   BACKBONE|DICT|INTERRES
   118   59  137 1    
   119   60   61 2    
   120   60   62 1    
   121   62   63 1    
   122   62   64 1    
   123   62  138 1    
   124   63  139 1    
   125   63  140 1    
   126   63  141 1    
   127   64   65 am   BACKBONE|DICT|INTERRES
   128   64  142 1    
   129   65   66 2    
   130   65   67 1    
   131   67   68 1    
   132   67   69 1    
   133   67  143 1    
   134   68  144 1    
   135   68  145 1    
   136   68  146 1    
   137   69   70 am   BACKBONE|DICT|INTERRES
   138   69  147 1    
   139   70   71 2    
   140   70   72 1    
   141   72   73 1    
   142   72   74 1    
   143   72  148 1    
   144   73  149 1    
   145   73  150 1    
   146   73  151 1    
   147   74   75 am   BACKBONE|DICT|INTERRES
   148   74  152 1    
   149   75   76 2    
   150   75   77 1    
   151   77   78 1    
   152   77   79 1    
   153   77  153 1    
   154   78  154 1    
   155   78  155 1    
   156   78  156 1    
   157   79   80 am   BACKBONE|DICT|INTERRES
   158   79  157 1    
   159   80   81 2    
@<TRIPOS>SUBSTRUCTURE
     1 UNK         1 GROUP             0       ****    0 ROOT    
