@<TRIPOS>MOLECULE
3R207
157   159    1
SMALL
USER_CHARGES


@<TRIPOS>ATOM
      1 CA        -46.3022  -28.1443    2.3142 C.3       0 UNK        -0.1975 
      2 C         -47.6673  -27.8079    2.8958 C.2       0 UNK         0.4852 
      3 O         -48.1201  -26.6691    2.7728 O.2       0 UNK        -0.5216 
      4 N         -48.3278  -28.7890    3.5258 N.am      1 UNK        -0.4461 
      5 CA        -49.6066  -28.6206    4.2226 C.3       1 UNK         0.0864 
      6 C6        -50.2594  -29.9921    4.5294 C.3       14 UNK        -0.0898 
      7 S7        -52.0654  -29.8809    4.7715 S.3       14 UNK        -0.2598 
      8 C8        -52.2963  -30.7035    6.3820 C.3       14 UNK         0.0286 
      9 C9        -51.9908  -29.7694    7.5430 C.ar      14 UNK        -0.0844 
     10 C10       -50.7182  -29.7534    8.1233 C.ar      14 UNK        -0.0881 
     11 C11       -50.4265  -28.8685    9.1640 C.ar      14 UNK        -0.0643 
     12 C12       -51.4249  -28.0153    9.6352 C.ar      14 UNK        -0.0930 
     13 C13       -52.7081  -28.0374    9.0871 C.ar      14 UNK        -0.0827 
     14 C14       -52.9845  -28.9155    8.0350 C.ar      14 UNK        -0.1249 
     15 C15       -53.7748  -27.0831    9.6072 C.3       14 UNK         0.0141 
     16 S16       -53.9924  -27.2131   11.4120 S.3       14 UNK        -0.2313 
     17 C17       -55.3213  -25.9921   11.6871 C.3       14 UNK        -0.0915 
     18 CA        -56.6946  -26.6301   12.0273 C.3       13 UNK         0.0968 
     19 C         -57.3548  -27.3205   10.7980 C.2       13 UNK         0.5732 
     20 N         -57.6231  -28.6207   10.8270 N.am      13 UNK        -0.7310 
     21 O         -57.6409  -26.6580    9.8036 O.2       13 UNK        -0.5035 
     22 N         -56.6062  -27.4649   13.2329 N.am      13 UNK        -0.4233 
     23 C         -57.6144  -27.7422   14.0659 C.2       13 UNK         0.4989 
     24 O         -58.7570  -27.3073   13.9172 O.2       13 UNK        -0.4996 
     25 CA        -57.3119  -28.6251   15.2933 C.3       12 UNK         0.0216 
     26 CB        -57.8012  -30.0707   15.0737 C.3       12 UNK        -0.1964 
     27 N         -55.9141  -28.5877   15.7551 N.am      12 UNK        -0.4276 
     28 C         -54.8120  -29.0701   15.1658 C.2       12 UNK         0.5020 
     29 O         -54.8163  -29.6494   14.0791 O.2       12 UNK        -0.5489 
     30 CA        -53.4802  -28.7843   15.8853 C.3       11 UNK         0.0294 
     31 CB        -52.3237  -29.6405   15.3376 C.3       11 UNK        -0.2019 
     32 N         -53.1084  -27.3724   15.7749 N.am      11 UNK        -0.4493 
     33 C         -53.6925  -26.3523   16.4172 C.2       11 UNK         0.4932 
     34 O         -54.6222  -26.4911   17.2158 O.2       11 UNK        -0.5029 
     35 CA        -53.1263  -24.9545   16.1099 C.3       10 UNK         0.0280 
     36 CB        -53.8157  -23.8258   16.9047 C.3       10 UNK        -0.1976 
     37 N         -51.6704  -24.9099   16.2763 N.am      10 UNK        -0.4242 
     38 C         -50.9591  -25.1226   17.3949 C.2       10 UNK         0.5072 
     39 O         -51.4546  -25.3319   18.5029 O.2       10 UNK        -0.5224 
     40 CA        -49.4233  -25.1192   17.2594 C.3       9 UNK         0.0343 
     41 CB        -48.8898  -26.5612   17.2717 C.3       9 UNK        -0.2003 
     42 N         -48.9417  -24.4504   16.0482 N.am      9 UNK        -0.4272 
     43 C         -48.9879  -23.1295   15.8222 C.2       9 UNK         0.4988 
     44 O         -49.3629  -22.3016   16.6524 O.2       9 UNK        -0.5108 
     45 CA        -48.5901  -22.6637   14.4120 C.3       8 UNK         0.0248 
     46 CB        -47.0647  -22.5207   14.2813 C.3       8 UNK        -0.2001 
     47 N         -49.0940  -23.5784   13.3844 N.am      8 UNK        -0.4140 
     48 C         -50.3760  -23.6476   12.9961 C.2       8 UNK         0.5028 
     49 O         -51.2588  -22.8983   13.4121 O.2       8 UNK        -0.5428 
     50 CA        -50.7465  -24.7586   12.0024 C.3       7 UNK         0.0264 
     51 CB        -50.6377  -24.2528   10.5561 C.3       7 UNK        -0.1988 
     52 N         -49.9170  -25.9540   12.1724 N.am      7 UNK        -0.4454 
     53 C         -50.1152  -26.8638   13.1389 C.2       7 UNK         0.5027 
     54 O         -51.0154  -26.7745   13.9737 O.2       7 UNK        -0.5083 
     55 CA        -49.1430  -28.0629   13.2164 C.3       6 UNK         0.0844 
     56 C56       -49.7190  -29.3076   12.4637 C.3       14 UNK        -0.0967 
     57 S57       -48.7254  -29.9815   11.0772 S.3       14 UNK        -0.2604 
     58 C58       -49.0205  -28.7855    9.7362 C.3       14 UNK         0.0134 
     59 N         -47.7689  -27.7251   12.8314 N.am      6 UNK        -0.4116 
     60 C         -47.0145  -26.7373   13.3294 C.2       5 UNK         0.5034 
     61 O         -47.3686  -26.0036   14.2522 O.2       5 UNK        -0.5045 
     62 CA        -45.6716  -26.4588   12.6286 C.3       5 UNK         0.0224 
     63 CB        -45.1780  -27.6220   11.7370 C.3       5 UNK        -0.1978 
     64 N         -45.7136  -25.2115   11.8496 N.am      5 UNK        -0.4737 
     65 C         -46.6003  -24.8850   10.8958 C.2       4 UNK         0.5027 
     66 O         -47.5620  -25.5917   10.5884 O.2       4 UNK        -0.5211 
     67 CA        -46.4239  -23.5337   10.1752 C.3       4 UNK         0.0297 
     68 CB        -45.0717  -22.8336   10.4427 C.3       4 UNK        -0.1993 
     69 N         -46.6772  -23.6770    8.7362 N.am      4 UNK        -0.4486 
     70 C         -45.9920  -24.4336    7.8662 C.2       3 UNK         0.4961 
     71 O         -44.9589  -25.0467    8.1422 O.2       3 UNK        -0.5105 
     72 CA        -46.5967  -24.5431    6.4553 C.3       3 UNK         0.0299 
     73 CB        -45.6460  -25.2172    5.4482 C.3       3 UNK        -0.1972 
     74 N         -47.8467  -25.3001    6.4946 N.am      3 UNK        -0.4305 
     75 C         -49.0500  -24.8238    6.8319 C.2       2 UNK         0.5006 
     76 O         -49.2348  -23.6464    7.1479 O.2       2 UNK        -0.5106 
     77 CA        -50.2340  -25.8199    6.8259 C.3       2 UNK         0.0296 
     78 CB        -51.6011  -25.1098    6.8714 C.3       2 UNK        -0.2002 
     79 N         -50.2414  -26.7540    5.6922 N.am      2 UNK        -0.4032 
     80 C         -49.3988  -27.7771    5.4967 C.2       1 UNK         0.5000 
     81 O         -48.4658  -28.0509    6.2572 O.2       1 UNK        -0.5238 
     82 H82       -46.2948  -27.9556    1.2409 H         1 UNK         0.0889 
     83 H83       -46.0351  -29.1884    2.4769 H         1 UNK         0.0889 
     84 H84       -45.5357  -27.5220    2.7755 H         1 UNK         0.0889 
     85 H85       -47.8922  -29.6950    3.6230 H         1 UNK         0.3028 
     86 H86       -50.2650  -28.0732    3.5437 H         1 UNK         0.0864 
     87 H87       -49.7794  -30.4794    5.3794 H         1 UNK         0.0720 
     88 H88       -50.1106  -30.6675    3.6852 H         1 UNK         0.0720 
     89 H89       -51.6807  -31.6029    6.4347 H         1 UNK         0.0814 
     90 H90       -53.3303  -31.0443    6.4538 H         1 UNK         0.0814 
     91 H91       -49.9427  -30.4070    7.7492 H         1 UNK         0.1469 
     92 H92       -51.2085  -27.3226   10.4305 H         1 UNK         0.1381 
     93 H93       -53.9691  -28.9274    7.5877 H         1 UNK         0.1206 
     94 H94       -54.7316  -27.2740    9.1189 H         1 UNK         0.0813 
     95 H95       -53.4893  -26.0617    9.3524 H         1 UNK         0.0813 
     96 H96       -55.4046  -25.3284   10.8246 H         1 UNK         0.0638 
     97 H97       -55.0069  -25.3529   12.5135 H         1 UNK         0.0638 
     98 H98       -57.3621  -25.8009   12.2692 H         1 UNK         0.0568 
     99 H99       -58.0562  -29.0541   10.0274 H         1 UNK         0.3450 
    100 H100      -57.3785  -29.1728   11.6329 H         1 UNK         0.3450 
    101 H101      -55.7250  -27.9457   13.3767 H         1 UNK         0.2987 
    102 H102      -57.8957  -28.2064   16.1146 H         1 UNK         0.0766 
    103 H103      -57.6474  -30.6809   15.9637 H         1 UNK         0.0798 
    104 H104      -57.2897  -30.5555   14.2419 H         1 UNK         0.0798 
    105 H105      -58.8686  -30.0892   14.8494 H         1 UNK         0.0798 
    106 H106      -55.7511  -28.0127   16.5780 H         1 UNK         0.3198 
    107 H107      -53.6100  -29.0305   16.9415 H         1 UNK         0.0843 
    108 H108      -52.1387  -29.4343   14.2829 H         1 UNK         0.0831 
    109 H109      -52.5490  -30.7039   15.4272 H         1 UNK         0.0831 
    110 H110      -51.3981  -29.4556   15.8829 H         1 UNK         0.0831 
    111 H111      -52.3608  -27.1558   15.1156 H         1 UNK         0.3133 
    112 H112      -53.3159  -24.7727   15.0507 H         1 UNK         0.0566 
    113 H113      -53.4054  -22.8506   16.6424 H         1 UNK         0.0814 
    114 H114      -54.8846  -23.7967   16.6904 H         1 UNK         0.0814 
    115 H115      -53.7051  -23.9582   17.9814 H         1 UNK         0.0814 
    116 H116      -51.1466  -24.7979   15.4196 H         1 UNK         0.3091 
    117 H117      -49.0159  -24.5918   18.1243 H         1 UNK         0.0702 
    118 H118      -47.8012  -26.5833   17.2160 H         1 UNK         0.0785 
    119 H119      -49.2802  -27.1401   16.4341 H         1 UNK         0.0785 
    120 H120      -49.1789  -27.0776   18.1881 H         1 UNK         0.0785 
    121 H121      -48.5264  -25.0472   15.3360 H         1 UNK         0.2998 
    122 H122      -49.0358  -21.6802   14.2470 H         1 UNK         0.0697 
    123 H123      -46.5490  -23.4699   14.4289 H         1 UNK         0.0825 
    124 H124      -46.6764  -21.8226   15.0241 H         1 UNK         0.0825 
    125 H125      -46.7864  -22.1351   13.3007 H         1 UNK         0.0825 
    126 H126      -48.4509  -24.2792   13.0448 H         1 UNK         0.3029 
    127 H127      -51.7894  -25.0309   12.1832 H         1 UNK         0.0897 
    128 H128      -51.3187  -23.4185   10.3835 H         1 UNK         0.0792 
    129 H129      -50.8981  -25.0354    9.8461 H         1 UNK         0.0792 
    130 H130      -49.6329  -23.9059   10.3156 H         1 UNK         0.0792 
    131 H131      -49.1175  -26.0481   11.5480 H         1 UNK         0.3086 
    132 H132      -49.0888  -28.3234   14.2754 H         1 UNK         0.0583 
    133 H133      -49.8158  -30.1222   13.1832 H         1 UNK         0.1020 
    134 H134      -50.7406  -29.1511   12.1108 H         1 UNK         0.1020 
    135 H135      -48.8206  -27.7764   10.0923 H         1 UNK         0.0694 
    136 H136      -48.2950  -28.9673    8.9417 H         1 UNK         0.0694 
    137 H137      -47.4028  -28.2603   12.0568 H         1 UNK         0.2989 
    138 H138      -44.9400  -26.3149   13.4255 H         1 UNK         0.1055 
    139 H139      -45.1258  -28.5573   12.2963 H         1 UNK         0.0806 
    140 H140      -44.1746  -27.4217   11.3609 H         1 UNK         0.0806 
    141 H141      -45.8204  -27.7847   10.8703 H         1 UNK         0.0806 
    142 H142      -44.9756  -24.5505   12.0485 H         1 UNK         0.3061 
    143 H143      -47.2121  -22.8839   10.5582 H         1 UNK         0.0734 
    144 H144      -44.9956  -21.9040    9.8786 H         1 UNK         0.0832 
    145 H145      -44.9600  -22.5717   11.4954 H         1 UNK         0.0832 
    146 H146      -44.2218  -23.4572   10.1630 H         1 UNK         0.0832 
    147 H147      -47.5568  -23.2963    8.4027 H         1 UNK         0.3156 
    148 H148      -46.7985  -23.5310    6.0980 H         1 UNK         0.0589 
    149 H149      -45.4235  -26.2478    5.7282 H         1 UNK         0.0808 
    150 H150      -46.0763  -25.2293    4.4465 H         1 UNK         0.0808 
    151 H151      -44.6976  -24.6817    5.3872 H         1 UNK         0.0808 
    152 H152      -47.7814  -26.3022    6.3326 H         1 UNK         0.3098 
    153 H153      -50.1333  -26.4070    7.7389 H         1 UNK         0.0720 
    154 H154      -52.4164  -25.8284    6.9566 H         1 UNK         0.0791 
    155 H155      -51.7715  -24.5125    5.9750 H         1 UNK         0.0791 
    156 H156      -51.6773  -24.4368    7.7253 H         1 UNK         0.0791 
    157 H157      -50.9567  -26.5918    4.9984 H         1 UNK         0.3028 
@<TRIPOS>BOND
     1    1    2 1    
     2    1   82 1    
     3    1   83 1    
     4    1   84 1    
     5    2    3 2    
     6    2    4 am   BACKBONE|DICT|INTERRES
     7    4    5 1    
     8    4   85 1    
     9    5    6 1    
    10    5   80 1    
    11    5   86 1    
    12    6    7 1    
    13    6   87 1    
    14    6   88 1    
    15    7    8 1    
    16    8    9 1    
    17    8   89 1    
    18    8   90 1    
    19    9   10 ar   
    20    9   14 ar   
    21   10   11 ar   
    22   10   91 1    
    23   11   12 ar   
    24   11   58 1    
    25   12   13 ar   
    26   12   92 1    
    27   13   14 ar   
    28   13   15 1    
    29   14   93 1    
    30   15   16 1    
    31   15   94 1    
    32   15   95 1    
    33   16   17 1    
    34   17   18 1    
    35   17   96 1    
    36   17   97 1    
    37   18   19 1    
    38   18   22 1    
    39   18   98 1    
    40   19   20 am   BACKBONE|DICT|INTERRES
    41   19   21 2    
    42   20   99 1    
    43   20  100 1    
    44   22   23 am   BACKBONE|DICT|INTERRES
    45   22  101 1    
    46   23   24 2    
    47   23   25 1    
    48   25   26 1    
    49   25   27 1    
    50   25  102 1    
    51   26  103 1    
    52   26  104 1    
    53   26  105 1    
    54   27   28 am   BACKBONE|DICT|INTERRES
    55   27  106 1    
    56   28   29 2    
    57   28   30 1    
    58   30   31 1    
    59   30   32 1    
    60   30  107 1    
    61   31  108 1    
    62   31  109 1    
    63   31  110 1    
    64   32   33 am   BACKBONE|DICT|INTERRES
    65   32  111 1    
    66   33   34 2    
    67   33   35 1    
    68   35   36 1    
    69   35   37 1    
    70   35  112 1    
    71   36  113 1    
    72   36  114 1    
    73   36  115 1    
    74   37   38 am   BACKBONE|DICT|INTERRES
    75   37  116 1    
    76   38   39 2    
    77   38   40 1    
    78   40   41 1    
    79   40   42 1    
    80   40  117 1    
    81   41  118 1    
    82   41  119 1    
    83   41  120 1    
    84   42   43 am   BACKBONE|DICT|INTERRES
    85   42  121 1    
    86   43   44 2    
    87   43   45 1    
    88   45   46 1    
    89   45   47 1    
    90   45  122 1    
    91   46  123 1    
    92   46  124 1    
    93   46  125 1    
    94   47   48 am   BACKBONE|DICT|INTERRES
    95   47  126 1    
    96   48   49 2    
    97   48   50 1    
    98   50   51 1    
    99   50   52 1    
   100   50  127 1    
   101   51  128 1    
   102   51  129 1    
   103   51  130 1    
   104   52   53 am   BACKBONE|DICT|INTERRES
   105   52  131 1    
   106   53   54 2    
   107   53   55 1    
   108   55   56 1    
   109   55   59 1    
   110   55  132 1    
   111   56   57 1    
   112   56  133 1    
   113   56  134 1    
   114   57   58 1    
   115   58  135 1    
   116   58  136 1    
   117   59   60 am   BACKBONE|DICT|INTERRES
   118   59  137 1    
   119   60   61 2    
   120   60   62 1    
   121   62   63 1    
   122   62   64 1    
   123   62  138 1    
   124   63  139 1    
   125   63  140 1    
   126   63  141 1    
   127   64   65 am   BACKBONE|DICT|INTERRES
   128   64  142 1    
   129   65   66 2    
   130   65   67 1    
   131   67   68 1    
   132   67   69 1    
   133   67  143 1    
   134   68  144 1    
   135   68  145 1    
   136   68  146 1    
   137   69   70 am   BACKBONE|DICT|INTERRES
   138   69  147 1    
   139   70   71 2    
   140   70   72 1    
   141   72   73 1    
   142   72   74 1    
   143   72  148 1    
   144   73  149 1    
   145   73  150 1    
   146   73  151 1    
   147   74   75 am   BACKBONE|DICT|INTERRES
   148   74  152 1    
   149   75   76 2    
   150   75   77 1    
   151   77   78 1    
   152   77   79 1    
   153   77  153 1    
   154   78  154 1    
   155   78  155 1    
   156   78  156 1    
   157   79   80 am   BACKBONE|DICT|INTERRES
   158   79  157 1    
   159   80   81 2    
@<TRIPOS>SUBSTRUCTURE
     1 UNK         1 GROUP             0       ****    0 ROOT    
