@<TRIPOS>MOLECULE
3R207
157   159    1
SMALL
USER_CHARGES


@<TRIPOS>ATOM
      1 CA        -48.1943  -21.5415    6.0319 C.3       0 UNK        -0.1975 
      2 C         -49.2535  -22.4403    6.6532 C.2       0 UNK         0.4852 
      3 O         -50.1308  -21.9492    7.3623 O.2       0 UNK        -0.5216 
      4 N         -49.1779  -23.7485    6.3894 N.am      1 UNK        -0.4461 
      5 CA        -50.1142  -24.7680    6.8536 C.3       1 UNK         0.0864 
      6 C6        -51.4526  -24.6824    6.0660 C.3       14 UNK        -0.0898 
      7 S7        -52.6887  -25.9711    6.4439 S.3       14 UNK        -0.2598 
      8 C8        -53.7182  -25.1501    7.6996 C.3       14 UNK         0.0286 
      9 C9        -53.0605  -25.1344    9.0728 C.ar      14 UNK        -0.0844 
     10 C10       -52.7758  -23.9241    9.7109 C.ar      14 UNK        -0.0881 
     11 C11       -52.2538  -23.9114   11.0081 C.ar      14 UNK        -0.0643 
     12 C12       -52.0071  -25.1225   11.6637 C.ar      14 UNK        -0.0930 
     13 C13       -52.2667  -26.3410   11.0289 C.ar      14 UNK        -0.0827 
     14 C14       -52.7889  -26.3364    9.7315 C.ar      14 UNK        -0.1249 
     15 C15       -51.9731  -27.6593   11.7352 C.3       14 UNK         0.0141 
     16 S16       -53.3979  -28.7967   11.7092 S.3       14 UNK        -0.2313 
     17 C17       -52.5742  -30.4160   11.9172 C.3       14 UNK        -0.0915 
     18 CA        -52.9051  -31.1272   13.2549 C.3       13 UNK         0.0968 
     19 C         -52.1762  -30.4781   14.4696 C.2       13 UNK         0.5732 
     20 N         -52.8719  -29.9633   15.4763 N.am      13 UNK        -0.7310 
     21 O         -50.9484  -30.4646   14.5056 O.2       13 UNK        -0.5035 
     22 N         -54.3537  -31.3074   13.4193 N.am      13 UNK        -0.4233 
     23 C         -54.9350  -32.1817   14.2496 C.2       13 UNK         0.4989 
     24 O         -54.3149  -33.0567   14.8570 O.2       13 UNK        -0.4996 
     25 CA        -56.4647  -32.0559   14.4366 C.3       12 UNK         0.0216 
     26 CB        -56.9206  -32.5382   15.8306 C.3       12 UNK        -0.1964 
     27 N         -57.0101  -30.7142   14.1633 N.am      12 UNK        -0.4276 
     28 C         -56.6397  -29.5594   14.7365 C.2       12 UNK         0.5020 
     29 O         -55.7371  -29.4571   15.5703 O.2       12 UNK        -0.5489 
     30 CA        -57.3929  -28.3022   14.2975 C.3       11 UNK         0.0294 
     31 CB        -58.3910  -27.8526   15.3805 C.3       11 UNK        -0.2019 
     32 N         -56.4076  -27.2578   14.0433 N.am      11 UNK        -0.4493 
     33 C         -56.5939  -26.1649   13.2980 C.2       11 UNK         0.4932 
     34 O         -57.6684  -25.8899   12.7605 O.2       11 UNK        -0.5029 
     35 CA        -55.3829  -25.2222   13.1288 C.3       10 UNK         0.0280 
     36 CB        -55.7438  -23.9228   12.3842 C.3       10 UNK        -0.1976 
     37 N         -54.7362  -24.8773   14.4010 N.am      10 UNK        -0.4242 
     38 C         -53.9086  -25.6769   15.0846 C.2       10 UNK         0.5072 
     39 O         -53.6373  -26.8283   14.7397 O.2       10 UNK        -0.5224 
     40 CA        -53.3227  -25.1175   16.3939 C.3       9 UNK         0.0343 
     41 CB        -54.2777  -25.3962   17.5661 C.3       9 UNK        -0.2003 
     42 N         -52.0192  -25.7201   16.6865 N.am      9 UNK        -0.4272 
     43 C         -50.9161  -25.5091   15.9570 C.2       9 UNK         0.4988 
     44 O         -50.8440  -24.6521   15.0732 O.2       9 UNK        -0.5108 
     45 CA        -49.7011  -26.4179   16.2068 C.3       8 UNK         0.0248 
     46 CB        -50.0347  -27.7194   16.9714 C.3       8 UNK        -0.2001 
     47 N         -49.1417  -26.7060   14.8904 N.am      8 UNK        -0.4140 
     48 C         -47.9699  -27.2763   14.5937 C.2       8 UNK         0.5028 
     49 O         -47.1683  -27.6951   15.4297 O.2       8 UNK        -0.5428 
     50 CA        -47.6295  -27.3818   13.0943 C.3       7 UNK         0.0264 
     51 CB        -48.0951  -28.7354   12.5313 C.3       7 UNK        -0.1988 
     52 N         -48.2129  -26.3003   12.2909 N.am      7 UNK        -0.4454 
     53 C         -47.8283  -25.0176   12.3533 C.2       7 UNK         0.5027 
     54 O         -46.9203  -24.6039   13.0770 O.2       7 UNK        -0.5083 
     55 CA        -48.5821  -24.0264   11.4461 C.3       6 UNK         0.0844 
     56 C56       -49.2569  -22.9155   12.2831 C.3       14 UNK        -0.0967 
     57 S57       -50.3739  -21.8827   11.2796 S.3       14 UNK        -0.2604 
     58 C58       -51.9982  -22.5850   11.7101 C.3       14 UNK         0.0134 
     59 N         -47.6706  -23.4846   10.4386 N.am      6 UNK        -0.4116 
     60 C         -47.1637  -24.2067    9.4359 C.2       5 UNK         0.5034 
     61 O         -47.4761  -25.3852    9.2156 O.2       5 UNK        -0.5045 
     62 CA        -46.1353  -23.5112    8.5307 C.3       5 UNK         0.0224 
     63 CB        -44.7856  -23.3684    9.2620 C.3       5 UNK        -0.1978 
     64 N         -46.0016  -24.3766    7.3702 N.am      5 UNK        -0.4737 
     65 C         -45.2351  -24.2821    6.2816 C.2       4 UNK         0.5027 
     66 O         -44.5624  -23.2940    5.9881 O.2       4 UNK        -0.5211 
     67 CA        -45.2458  -25.5357    5.3779 C.3       4 UNK         0.0297 
     68 CB        -43.9406  -25.7159    4.5744 C.3       4 UNK        -0.1993 
     69 N         -45.6060  -26.7473    6.1396 N.am      4 UNK        -0.4486 
     70 C         -44.9016  -27.3104    7.1385 C.2       3 UNK         0.4961 
     71 O         -43.7250  -27.0391    7.3802 O.2       3 UNK        -0.5105 
     72 CA        -45.6497  -28.2808    8.0750 C.3       3 UNK         0.0299 
     73 CB        -45.1878  -28.1254    9.5373 C.3       3 UNK        -0.1972 
     74 N         -47.1023  -28.0809    8.0323 N.am      3 UNK        -0.4305 
     75 C         -47.9600  -28.8709    7.3742 C.2       2 UNK         0.5006 
     76 O         -47.6166  -29.8512    6.7128 O.2       2 UNK        -0.5106 
     77 CA        -49.4570  -28.5213    7.4567 C.3       2 UNK         0.0296 
     78 CB        -50.1033  -29.2649    8.6373 C.3       2 UNK        -0.2002 
     79 N         -49.7899  -27.0947    7.5511 N.am      2 UNK        -0.4032 
     80 C         -49.4072  -26.1290    6.7032 C.2       1 UNK         0.5000 
     81 O         -48.5481  -26.2746    5.8269 O.2       1 UNK        -0.5238 
     82 H82       -47.7454  -20.9040    6.7929 H         1 UNK         0.0889 
     83 H83       -48.6466  -20.8995    5.2766 H         1 UNK         0.0889 
     84 H84       -47.3981  -22.1150    5.5577 H         1 UNK         0.0889 
     85 H85       -48.4380  -24.1242    5.8092 H         1 UNK         0.3028 
     86 H86       -50.3060  -24.6001    7.9161 H         1 UNK         0.0864 
     87 H87       -51.9137  -23.7066    6.2239 H         1 UNK         0.0720 
     88 H88       -51.2511  -24.7377    4.9946 H         1 UNK         0.0720 
     89 H89       -54.6641  -25.6880    7.7767 H         1 UNK         0.0814 
     90 H90       -53.9712  -24.1419    7.3681 H         1 UNK         0.0814 
     91 H91       -52.9792  -22.9878    9.2091 H         1 UNK         0.1469 
     92 H92       -51.6216  -25.1133   12.6725 H         1 UNK         0.1381 
     93 H93       -53.0093  -27.2737    9.2387 H         1 UNK         0.1206 
     94 H94       -51.6834  -27.4947   12.7745 H         1 UNK         0.0813 
     95 H95       -51.1213  -28.1218   11.2402 H         1 UNK         0.0813 
     96 H96       -51.4948  -30.3149   11.7931 H         1 UNK         0.0638 
     97 H97       -52.8970  -31.0476   11.0884 H         1 UNK         0.0638 
     98 H98       -52.4772  -32.1288   13.1814 H         1 UNK         0.0568 
     99 H99       -52.3810  -29.5597   16.2540 H         1 UNK         0.3450 
    100 H100      -53.8858  -29.9009   15.4388 H         1 UNK         0.3450 
    101 H101      -54.9280  -30.6097   12.9713 H         1 UNK         0.2987 
    102 H102      -56.9090  -32.7223   13.6957 H         1 UNK         0.0766 
    103 H103      -56.6458  -33.5805   15.9980 H         1 UNK         0.0798 
    104 H104      -58.0030  -32.4709   15.9400 H         1 UNK         0.0798 
    105 H105      -56.4659  -31.9493   16.6282 H         1 UNK         0.0798 
    106 H106      -57.7511  -30.6848   13.4753 H         1 UNK         0.3198 
    107 H107      -57.9332  -28.5107   13.3714 H         1 UNK         0.0843 
    108 H108      -57.8842  -27.6065   16.3146 H         1 UNK         0.0831 
    109 H109      -59.1128  -28.6410   15.5976 H         1 UNK         0.0831 
    110 H110      -58.9558  -26.9754   15.0648 H         1 UNK         0.0831 
    111 H111      -55.4797  -27.4284   14.4303 H         1 UNK         0.3133 
    112 H112      -54.6615  -25.7604   12.5118 H         1 UNK         0.0566 
    113 H113      -54.8701  -23.2871   12.2463 H         1 UNK         0.0814 
    114 H114      -56.4986  -23.3458   12.9198 H         1 UNK         0.0814 
    115 H115      -56.1392  -24.1400   11.3910 H         1 UNK         0.0814 
    116 H116      -54.9507  -23.9656   14.7784 H         1 UNK         0.3091 
    117 H117      -53.1901  -24.0383   16.2907 H         1 UNK         0.0702 
    118 H118      -53.8855  -24.9979   18.5021 H         1 UNK         0.0785 
    119 H119      -54.4489  -26.4656   17.7002 H         1 UNK         0.0785 
    120 H120      -55.2500  -24.9307   17.3993 H         1 UNK         0.0785 
    121 H121      -52.0120  -26.4697   17.3615 H         1 UNK         0.2998 
    122 H122      -48.9693  -25.8423   16.7762 H         1 UNK         0.0697 
    123 H123      -50.7784  -28.3124   16.4405 H         1 UNK         0.0825 
    124 H124      -50.4157  -27.5114   17.9717 H         1 UNK         0.0825 
    125 H125      -49.1521  -28.3452   17.1019 H         1 UNK         0.0825 
    126 H126      -49.6928  -26.3294   14.1316 H         1 UNK         0.3029 
    127 H127      -46.5429  -27.3252   12.9969 H         1 UNK         0.0897 
    128 H128      -49.1722  -28.8709   12.6370 H         1 UNK         0.0792 
    129 H129      -47.6155  -29.5595   13.0614 H         1 UNK         0.0792 
    130 H130      -47.8421  -28.8399   11.4763 H         1 UNK         0.0792 
    131 H131      -48.9255  -26.5593   11.6250 H         1 UNK         0.3086 
    132 H132      -49.3658  -24.5732   10.9181 H         1 UNK         0.0583 
    133 H133      -49.8208  -23.3417   13.1130 H         1 UNK         0.1020 
    134 H134      -48.5061  -22.2689   12.7416 H         1 UNK         0.1020 
    135 H135      -52.0824  -22.6991   12.7923 H         1 UNK         0.0694 
    136 H136      -52.7707  -21.8696   11.4242 H         1 UNK         0.0694 
    137 H137      -47.3701  -22.5308   10.5728 H         1 UNK         0.2989 
    138 H138      -46.5106  -22.5349    8.2227 H         1 UNK         0.1055 
    139 H139      -44.0405  -22.8767    8.6367 H         1 UNK         0.0806 
    140 H140      -44.3843  -24.3395    9.5563 H         1 UNK         0.0806 
    141 H141      -44.8861  -22.7681   10.1669 H         1 UNK         0.0806 
    142 H142      -46.5239  -25.2360    7.4953 H         1 UNK         0.3061 
    143 H143      -46.0528  -25.3828    4.6598 H         1 UNK         0.0734 
    144 H144      -43.0637  -25.7546    5.2207 H         1 UNK         0.0832 
    145 H145      -43.9623  -26.6288    3.9796 H         1 UNK         0.0832 
    146 H146      -43.7929  -24.8834    3.8856 H         1 UNK         0.0832 
    147 H147      -46.5721  -27.0384    6.0263 H         1 UNK         0.3156 
    148 H148      -45.3934  -29.2917    7.7520 H         1 UNK         0.0589 
    149 H149      -45.7056  -28.8258   10.1921 H         1 UNK         0.0808 
    150 H150      -45.3702  -27.1177    9.9133 H         1 UNK         0.0808 
    151 H151      -44.1203  -28.3246    9.6393 H         1 UNK         0.0808 
    152 H152      -47.4583  -27.2677    8.5272 H         1 UNK         0.3098 
    153 H153      -49.9186  -28.8848    6.5364 H         1 UNK         0.0720 
    154 H154      -49.6738  -28.9514    9.5888 H         1 UNK         0.0791 
    155 H155      -49.9481  -30.3414    8.5522 H         1 UNK         0.0791 
    156 H156      -51.1802  -29.0986    8.6780 H         1 UNK         0.0791 
    157 H157      -50.5002  -26.8574    8.2286 H         1 UNK         0.3028 
@<TRIPOS>BOND
     1    1    2 1    
     2    1   82 1    
     3    1   83 1    
     4    1   84 1    
     5    2    3 2    
     6    2    4 am   BACKBONE|DICT|INTERRES
     7    4    5 1    
     8    4   85 1    
     9    5    6 1    
    10    5   80 1    
    11    5   86 1    
    12    6    7 1    
    13    6   87 1    
    14    6   88 1    
    15    7    8 1    
    16    8    9 1    
    17    8   89 1    
    18    8   90 1    
    19    9   10 ar   
    20    9   14 ar   
    21   10   11 ar   
    22   10   91 1    
    23   11   12 ar   
    24   11   58 1    
    25   12   13 ar   
    26   12   92 1    
    27   13   14 ar   
    28   13   15 1    
    29   14   93 1    
    30   15   16 1    
    31   15   94 1    
    32   15   95 1    
    33   16   17 1    
    34   17   18 1    
    35   17   96 1    
    36   17   97 1    
    37   18   19 1    
    38   18   22 1    
    39   18   98 1    
    40   19   20 am   BACKBONE|DICT|INTERRES
    41   19   21 2    
    42   20   99 1    
    43   20  100 1    
    44   22   23 am   BACKBONE|DICT|INTERRES
    45   22  101 1    
    46   23   24 2    
    47   23   25 1    
    48   25   26 1    
    49   25   27 1    
    50   25  102 1    
    51   26  103 1    
    52   26  104 1    
    53   26  105 1    
    54   27   28 am   BACKBONE|DICT|INTERRES
    55   27  106 1    
    56   28   29 2    
    57   28   30 1    
    58   30   31 1    
    59   30   32 1    
    60   30  107 1    
    61   31  108 1    
    62   31  109 1    
    63   31  110 1    
    64   32   33 am   BACKBONE|DICT|INTERRES
    65   32  111 1    
    66   33   34 2    
    67   33   35 1    
    68   35   36 1    
    69   35   37 1    
    70   35  112 1    
    71   36  113 1    
    72   36  114 1    
    73   36  115 1    
    74   37   38 am   BACKBONE|DICT|INTERRES
    75   37  116 1    
    76   38   39 2    
    77   38   40 1    
    78   40   41 1    
    79   40   42 1    
    80   40  117 1    
    81   41  118 1    
    82   41  119 1    
    83   41  120 1    
    84   42   43 am   BACKBONE|DICT|INTERRES
    85   42  121 1    
    86   43   44 2    
    87   43   45 1    
    88   45   46 1    
    89   45   47 1    
    90   45  122 1    
    91   46  123 1    
    92   46  124 1    
    93   46  125 1    
    94   47   48 am   BACKBONE|DICT|INTERRES
    95   47  126 1    
    96   48   49 2    
    97   48   50 1    
    98   50   51 1    
    99   50   52 1    
   100   50  127 1    
   101   51  128 1    
   102   51  129 1    
   103   51  130 1    
   104   52   53 am   BACKBONE|DICT|INTERRES
   105   52  131 1    
   106   53   54 2    
   107   53   55 1    
   108   55   56 1    
   109   55   59 1    
   110   55  132 1    
   111   56   57 1    
   112   56  133 1    
   113   56  134 1    
   114   57   58 1    
   115   58  135 1    
   116   58  136 1    
   117   59   60 am   BACKBONE|DICT|INTERRES
   118   59  137 1    
   119   60   61 2    
   120   60   62 1    
   121   62   63 1    
   122   62   64 1    
   123   62  138 1    
   124   63  139 1    
   125   63  140 1    
   126   63  141 1    
   127   64   65 am   BACKBONE|DICT|INTERRES
   128   64  142 1    
   129   65   66 2    
   130   65   67 1    
   131   67   68 1    
   132   67   69 1    
   133   67  143 1    
   134   68  144 1    
   135   68  145 1    
   136   68  146 1    
   137   69   70 am   BACKBONE|DICT|INTERRES
   138   69  147 1    
   139   70   71 2    
   140   70   72 1    
   141   72   73 1    
   142   72   74 1    
   143   72  148 1    
   144   73  149 1    
   145   73  150 1    
   146   73  151 1    
   147   74   75 am   BACKBONE|DICT|INTERRES
   148   74  152 1    
   149   75   76 2    
   150   75   77 1    
   151   77   78 1    
   152   77   79 1    
   153   77  153 1    
   154   78  154 1    
   155   78  155 1    
   156   78  156 1    
   157   79   80 am   BACKBONE|DICT|INTERRES
   158   79  157 1    
   159   80   81 2    
@<TRIPOS>SUBSTRUCTURE
     1 UNK         1 GROUP             0       ****    0 ROOT    
