@<TRIPOS>MOLECULE
3R207
157   159    1
SMALL
USER_CHARGES


@<TRIPOS>ATOM
      1 CA        -50.2992  -22.0399    5.1311 C.3       0 UNK        -0.1975 
      2 C         -49.8669  -23.4026    5.6513 C.2       0 UNK         0.4852 
      3 O         -48.8214  -23.5067    6.2933 O.2       0 UNK        -0.5216 
      4 N         -50.6691  -24.4432    5.3884 N.am      1 UNK        -0.4461 
      5 CA        -50.4007  -25.8293    5.7869 C.3       1 UNK         0.0864 
      6 C6        -51.6744  -26.7141    5.7249 C.3       14 UNK        -0.0898 
      7 S7        -53.0882  -26.0733    6.6914 S.3       14 UNK        -0.2598 
      8 C8        -52.4501  -26.0059    8.3986 C.3       14 UNK         0.0286 
      9 C9        -52.2319  -27.3855    9.0048 C.ar      14 UNK        -0.0844 
     10 C10       -51.0079  -28.0451    8.8545 C.ar      14 UNK        -0.0881 
     11 C11       -50.8068  -29.3102    9.4142 C.ar      14 UNK        -0.0643 
     12 C12       -51.8303  -29.9012   10.1609 C.ar      14 UNK        -0.0930 
     13 C13       -53.0476  -29.2397   10.3433 C.ar      14 UNK        -0.0827 
     14 C14       -53.2483  -27.9900    9.7499 C.ar      14 UNK        -0.1249 
     15 C15       -54.1282  -29.8470   11.2223 C.3       14 UNK         0.0141 
     16 S16       -55.4477  -30.6376   10.2525 S.3       14 UNK        -0.2313 
     17 C17       -56.5955  -31.0874   11.5990 C.3       14 UNK        -0.0915 
     18 CA        -57.5400  -29.9075   11.9906 C.3       13 UNK         0.0968 
     19 C         -58.8738  -29.8937   11.1965 C.2       13 UNK         0.5732 
     20 N         -58.8115  -29.9007    9.8728 N.am      13 UNK        -0.7310 
     21 O         -59.9645  -29.8727   11.7668 O.2       13 UNK        -0.5035 
     22 N         -57.7901  -29.8161   13.4351 N.am      13 UNK        -0.4233 
     23 C         -56.8816  -29.4854   14.3560 C.2       13 UNK         0.4989 
     24 O         -55.6815  -29.3286   14.1133 O.2       13 UNK        -0.4996 
     25 CA        -57.3846  -29.2951   15.7942 C.3       12 UNK         0.0216 
     26 CB        -57.5918  -30.6468   16.4980 C.3       12 UNK        -0.1964 
     27 N         -56.3569  -28.5350   16.4941 N.am      12 UNK        -0.4276 
     28 C         -56.5312  -27.4690   17.2797 C.2       12 UNK         0.5020 
     29 O         -57.6247  -27.0971   17.7077 O.2       12 UNK        -0.5489 
     30 CA        -55.2604  -26.6635   17.6196 C.3       11 UNK         0.0294 
     31 CB        -54.7131  -27.0712   18.9967 C.3       11 UNK        -0.2019 
     32 N         -54.2037  -26.8253   16.6121 N.am      11 UNK        -0.4493 
     33 C         -54.2485  -26.3446   15.3626 C.2       11 UNK         0.4932 
     34 O         -55.1285  -25.5799   14.9635 O.2       11 UNK        -0.5029 
     35 CA        -53.1429  -26.8291   14.4021 C.3       10 UNK         0.0280 
     36 CB        -53.3999  -26.3945   12.9484 C.3       10 UNK        -0.1976 
     37 N         -51.7976  -26.4054   14.8013 N.am      10 UNK        -0.4242 
     38 C         -51.0921  -26.9034   15.8277 C.2       10 UNK         0.5072 
     39 O         -51.5395  -27.7510   16.6039 O.2       10 UNK        -0.5224 
     40 CA        -49.6460  -26.4097   16.0333 C.3       9 UNK         0.0343 
     41 CB        -48.6493  -27.5553   15.7884 C.3       9 UNK        -0.2003 
     42 N         -49.2723  -25.2727   15.1890 N.am      9 UNK        -0.4272 
     43 C         -49.6200  -23.9991   15.4174 C.2       9 UNK         0.4988 
     44 O         -50.2859  -23.6351   16.3870 O.2       9 UNK        -0.5108 
     45 CA        -49.1608  -22.9553   14.3825 C.3       8 UNK         0.0248 
     46 CB        -47.7522  -22.4425   14.7216 C.3       8 UNK        -0.2001 
     47 N         -49.1837  -23.4592   13.0054 N.am      8 UNK        -0.4140 
     48 C         -50.2971  -23.8171   12.3502 C.2       8 UNK         0.5028 
     49 O         -51.4273  -23.6949   12.8196 O.2       8 UNK        -0.5428 
     50 CA        -50.1278  -24.4568   10.9605 C.3       7 UNK         0.0264 
     51 CB        -49.9584  -23.3808    9.8760 C.3       7 UNK        -0.1988 
     52 N         -49.0139  -25.4067   10.8947 N.am      7 UNK        -0.4454 
     53 C         -48.9363  -26.5372   11.6157 C.2       7 UNK         0.5027 
     54 O         -49.8171  -26.9212   12.3832 O.2       7 UNK        -0.5083 
     55 CA        -47.6195  -27.3315   11.5161 C.3       6 UNK         0.0844 
     56 C56       -47.5786  -28.2595   10.2753 C.3       14 UNK        -0.0967 
     57 S57       -48.3545  -29.8785   10.5988 S.3       14 UNK        -0.2604 
     58 C58       -49.4989  -30.0565    9.1954 C.3       14 UNK         0.0134 
     59 N         -46.4667  -26.4306   11.5626 N.am      6 UNK        -0.4116 
     60 C         -46.0732  -25.7506   12.6490 C.2       5 UNK         0.5034 
     61 O         -46.6097  -25.8465   13.7520 O.2       5 UNK        -0.5045 
     62 CA        -44.9089  -24.7632   12.4592 C.3       5 UNK         0.0224 
     63 CB        -43.5593  -25.4792   12.6262 C.3       5 UNK        -0.1978 
     64 N         -44.9483  -24.0866   11.1592 N.am      5 UNK        -0.4737 
     65 C         -45.9103  -23.2309   10.7859 C.2       4 UNK         0.5027 
     66 O         -46.8262  -22.8748   11.5244 O.2       4 UNK        -0.5211 
     67 CA        -45.8770  -22.7320    9.3318 C.3       4 UNK         0.0297 
     68 CB        -45.0426  -21.4463    9.2244 C.3       4 UNK        -0.1993 
     69 N         -45.3742  -23.7288    8.3796 N.am      4 UNK        -0.4486 
     70 C         -45.9457  -24.9170    8.1458 C.2       3 UNK         0.4961 
     71 O         -46.9435  -25.3388    8.7419 O.2       3 UNK        -0.5105 
     72 CA        -45.2530  -25.8121    7.1150 C.3       3 UNK         0.0299 
     73 CB        -44.1430  -26.6485    7.7789 C.3       3 UNK        -0.1972 
     74 N         -46.2720  -26.6807    6.5444 N.am      3 UNK        -0.4305 
     75 C         -46.1942  -27.3722    5.4012 C.2       2 UNK         0.5006 
     76 O         -45.1958  -27.4027    4.6809 O.2       2 UNK        -0.5106 
     77 CA        -47.4499  -28.1632    4.9883 C.3       2 UNK         0.0296 
     78 CB        -47.3568  -29.6127    5.4933 C.3       2 UNK        -0.2002 
     79 N         -48.6808  -27.5486    5.4962 N.am      2 UNK        -0.4032 
     80 C         -49.2448  -26.4502    4.9722 C.2       1 UNK         0.5000 
     81 O         -48.8842  -25.9406    3.9070 O.2       1 UNK        -0.5238 
     82 H82       -51.2493  -22.0887    4.5992 H         1 UNK         0.0889 
     83 H83       -49.5476  -21.6444    4.4485 H         1 UNK         0.0889 
     84 H84       -50.4096  -21.3409    5.9597 H         1 UNK         0.0889 
     85 H85       -51.5089  -24.3017    4.8460 H         1 UNK         0.3028 
     86 H86       -50.0474  -25.7954    6.8176 H         1 UNK         0.0864 
     87 H87       -52.0075  -26.8152    4.6901 H         1 UNK         0.0720 
     88 H88       -51.4678  -27.7293    6.0670 H         1 UNK         0.0720 
     89 H89       -53.1654  -25.4512    9.0078 H         1 UNK         0.0814 
     90 H90       -51.5319  -25.4233    8.4311 H         1 UNK         0.0814 
     91 H91       -50.2118  -27.5760    8.2993 H         1 UNK         0.1469 
     92 H92       -51.6720  -30.8719   10.6108 H         1 UNK         0.1381 
     93 H93       -54.1914  -27.4788    9.8873 H         1 UNK         0.1206 
     94 H94       -53.6987  -30.5727   11.9147 H         1 UNK         0.0813 
     95 H95       -54.5603  -29.0583   11.8362 H         1 UNK         0.0813 
     96 H96       -55.9959  -31.4183   12.4477 H         1 UNK         0.0638 
     97 H97       -57.1654  -31.9683   11.2979 H         1 UNK         0.0638 
     98 H98       -57.0553  -28.9638   11.7330 H         1 UNK         0.0568 
     99 H99       -59.6656  -29.8905    9.3379 H         1 UNK         0.3450 
    100 H100      -57.9194  -29.9336    9.4027 H         1 UNK         0.3450 
    101 H101      -58.7642  -29.9180   13.6906 H         1 UNK         0.2987 
    102 H102      -58.3220  -28.7351   15.7699 H         1 UNK         0.0766 
    103 H103      -57.9068  -30.5080   17.5325 H         1 UNK         0.0798 
    104 H104      -56.6782  -31.2430   16.5043 H         1 UNK         0.0798 
    105 H105      -58.3637  -31.2351   16.0005 H         1 UNK         0.0798 
    106 H106      -55.4261  -28.7017   16.1316 H         1 UNK         0.3198 
    107 H107      -55.5385  -25.6080   17.6563 H         1 UNK         0.0843 
    108 H108      -55.4696  -26.9382   19.7715 H         1 UNK         0.0831 
    109 H109      -53.8526  -26.4636   19.2775 H         1 UNK         0.0831 
    110 H110      -54.4065  -28.1178   19.0163 H         1 UNK         0.0831 
    111 H111      -53.3924  -27.3872   16.8621 H         1 UNK         0.3133 
    112 H112      -53.1652  -27.9209   14.4160 H         1 UNK         0.0566 
    113 H113      -52.6209  -26.7628   12.2805 H         1 UNK         0.0814 
    114 H114      -54.3516  -26.7867   12.5890 H         1 UNK         0.0814 
    115 H115      -53.4428  -25.3101   12.8506 H         1 UNK         0.0814 
    116 H116      -51.3548  -25.7136   14.2107 H         1 UNK         0.3091 
    117 H117      -49.5580  -26.1056   17.0784 H         1 UNK         0.0702 
    118 H118      -47.6261  -27.2425   15.9975 H         1 UNK         0.0785 
    119 H119      -48.6877  -27.9069   14.7568 H         1 UNK         0.0785 
    120 H120      -48.8640  -28.4089   16.4327 H         1 UNK         0.0785 
    121 H121      -48.6842  -25.4803   14.3902 H         1 UNK         0.2998 
    122 H122      -49.8513  -22.1111   14.4369 H         1 UNK         0.0697 
    123 H123      -47.0094  -23.2389   14.6696 H         1 UNK         0.0825 
    124 H124      -47.7190  -22.0302   15.7310 H         1 UNK         0.0825 
    125 H125      -47.4426  -21.6518   14.0379 H         1 UNK         0.0825 
    126 H126      -48.2939  -23.4926   12.5120 H         1 UNK         0.3029 
    127 H127      -51.0410  -25.0174   10.7534 H         1 UNK         0.0897 
    128 H128      -49.8006  -23.8220    8.8921 H         1 UNK         0.0792 
    129 H129      -50.8464  -22.7507    9.8134 H         1 UNK         0.0792 
    130 H130      -49.1118  -22.7268   10.0834 H         1 UNK         0.0792 
    131 H131      -48.2497  -25.1800   10.2650 H         1 UNK         0.3086 
    132 H132      -47.5523  -27.9566   12.4098 H         1 UNK         0.0583 
    133 H133      -48.0184  -27.7813    9.3994 H         1 UNK         0.1020 
    134 H134      -46.5440  -28.4704    9.9997 H         1 UNK         0.1020 
    135 H135      -49.0135  -29.7293    8.2758 H         1 UNK         0.0694 
    136 H136      -49.7117  -31.1177    9.0575 H         1 UNK         0.0694 
    137 H137      -46.0174  -26.2286   10.6814 H         1 UNK         0.2989 
    138 H138      -44.9937  -24.0028   13.2390 H         1 UNK         0.1055 
    139 H139      -43.5003  -25.9770   13.5953 H         1 UNK         0.0806 
    140 H140      -42.7281  -24.7756   12.5753 H         1 UNK         0.0806 
    141 H141      -43.4041  -26.2394   11.8595 H         1 UNK         0.0806 
    142 H142      -44.2232  -24.3143   10.4945 H         1 UNK         0.3061 
    143 H143      -46.9036  -22.4966    9.0435 H         1 UNK         0.0734 
    144 H144      -45.4141  -20.6833    9.9102 H         1 UNK         0.0832 
    145 H145      -43.9941  -21.6210    9.4694 H         1 UNK         0.0832 
    146 H146      -45.0890  -21.0249    8.2201 H         1 UNK         0.0832 
    147 H147      -44.5516  -23.4744    7.8511 H         1 UNK         0.3156 
    148 H148      -44.8315  -25.1878    6.3244 H         1 UNK         0.0589 
    149 H149      -44.5391  -27.2955    8.5625 H         1 UNK         0.0808 
    150 H150      -43.6331  -27.2814    7.0524 H         1 UNK         0.0808 
    151 H151      -43.3853  -26.0087    8.2328 H         1 UNK         0.0808 
    152 H152      -47.1383  -26.6656    7.0655 H         1 UNK         0.3098 
    153 H153      -47.4908  -28.1835    3.8969 H         1 UNK         0.0720 
    154 H154      -48.2327  -30.1936    5.2033 H         1 UNK         0.0791 
    155 H155      -47.2621  -29.6610    6.5786 H         1 UNK         0.0791 
    156 H156      -46.4842  -30.1135    5.0713 H         1 UNK         0.0791 
    157 H157      -49.0725  -27.9560    6.3306 H         1 UNK         0.3028 
@<TRIPOS>BOND
     1    1    2 1    
     2    1   82 1    
     3    1   83 1    
     4    1   84 1    
     5    2    3 2    
     6    2    4 am   BACKBONE|DICT|INTERRES
     7    4    5 1    
     8    4   85 1    
     9    5    6 1    
    10    5   80 1    
    11    5   86 1    
    12    6    7 1    
    13    6   87 1    
    14    6   88 1    
    15    7    8 1    
    16    8    9 1    
    17    8   89 1    
    18    8   90 1    
    19    9   10 ar   
    20    9   14 ar   
    21   10   11 ar   
    22   10   91 1    
    23   11   12 ar   
    24   11   58 1    
    25   12   13 ar   
    26   12   92 1    
    27   13   14 ar   
    28   13   15 1    
    29   14   93 1    
    30   15   16 1    
    31   15   94 1    
    32   15   95 1    
    33   16   17 1    
    34   17   18 1    
    35   17   96 1    
    36   17   97 1    
    37   18   19 1    
    38   18   22 1    
    39   18   98 1    
    40   19   20 am   BACKBONE|DICT|INTERRES
    41   19   21 2    
    42   20   99 1    
    43   20  100 1    
    44   22   23 am   BACKBONE|DICT|INTERRES
    45   22  101 1    
    46   23   24 2    
    47   23   25 1    
    48   25   26 1    
    49   25   27 1    
    50   25  102 1    
    51   26  103 1    
    52   26  104 1    
    53   26  105 1    
    54   27   28 am   BACKBONE|DICT|INTERRES
    55   27  106 1    
    56   28   29 2    
    57   28   30 1    
    58   30   31 1    
    59   30   32 1    
    60   30  107 1    
    61   31  108 1    
    62   31  109 1    
    63   31  110 1    
    64   32   33 am   BACKBONE|DICT|INTERRES
    65   32  111 1    
    66   33   34 2    
    67   33   35 1    
    68   35   36 1    
    69   35   37 1    
    70   35  112 1    
    71   36  113 1    
    72   36  114 1    
    73   36  115 1    
    74   37   38 am   BACKBONE|DICT|INTERRES
    75   37  116 1    
    76   38   39 2    
    77   38   40 1    
    78   40   41 1    
    79   40   42 1    
    80   40  117 1    
    81   41  118 1    
    82   41  119 1    
    83   41  120 1    
    84   42   43 am   BACKBONE|DICT|INTERRES
    85   42  121 1    
    86   43   44 2    
    87   43   45 1    
    88   45   46 1    
    89   45   47 1    
    90   45  122 1    
    91   46  123 1    
    92   46  124 1    
    93   46  125 1    
    94   47   48 am   BACKBONE|DICT|INTERRES
    95   47  126 1    
    96   48   49 2    
    97   48   50 1    
    98   50   51 1    
    99   50   52 1    
   100   50  127 1    
   101   51  128 1    
   102   51  129 1    
   103   51  130 1    
   104   52   53 am   BACKBONE|DICT|INTERRES
   105   52  131 1    
   106   53   54 2    
   107   53   55 1    
   108   55   56 1    
   109   55   59 1    
   110   55  132 1    
   111   56   57 1    
   112   56  133 1    
   113   56  134 1    
   114   57   58 1    
   115   58  135 1    
   116   58  136 1    
   117   59   60 am   BACKBONE|DICT|INTERRES
   118   59  137 1    
   119   60   61 2    
   120   60   62 1    
   121   62   63 1    
   122   62   64 1    
   123   62  138 1    
   124   63  139 1    
   125   63  140 1    
   126   63  141 1    
   127   64   65 am   BACKBONE|DICT|INTERRES
   128   64  142 1    
   129   65   66 2    
   130   65   67 1    
   131   67   68 1    
   132   67   69 1    
   133   67  143 1    
   134   68  144 1    
   135   68  145 1    
   136   68  146 1    
   137   69   70 am   BACKBONE|DICT|INTERRES
   138   69  147 1    
   139   70   71 2    
   140   70   72 1    
   141   72   73 1    
   142   72   74 1    
   143   72  148 1    
   144   73  149 1    
   145   73  150 1    
   146   73  151 1    
   147   74   75 am   BACKBONE|DICT|INTERRES
   148   74  152 1    
   149   75   76 2    
   150   75   77 1    
   151   77   78 1    
   152   77   79 1    
   153   77  153 1    
   154   78  154 1    
   155   78  155 1    
   156   78  156 1    
   157   79   80 am   BACKBONE|DICT|INTERRES
   158   79  157 1    
   159   80   81 2    
@<TRIPOS>SUBSTRUCTURE
     1 UNK         1 GROUP             0       ****    0 ROOT    
