@<TRIPOS>MOLECULE
3R207
157   159    1
SMALL
USER_CHARGES


@<TRIPOS>ATOM
      1 CA        -48.4121  -29.8228    4.3212 C.3       0 UNK        -0.1975 
      2 C         -48.5640  -28.5903    5.1995 C.2       0 UNK         0.4852 
      3 O         -47.8964  -28.4896    6.2280 O.2       0 UNK        -0.5216 
      4 N         -49.4197  -27.6440    4.7882 N.am      1 UNK        -0.4461 
      5 CA        -49.8072  -26.3977    5.4767 C.3       1 UNK         0.0864 
      6 C6        -50.5033  -26.6297    6.8446 C.3       14 UNK        -0.0898 
      7 S7        -52.0690  -27.5435    6.6375 S.3       14 UNK        -0.2598 
      8 C8        -51.7003  -29.1332    7.4439 C.3       14 UNK         0.0286 
      9 C9        -51.9716  -29.0758    8.9393 C.ar      14 UNK        -0.0844 
     10 C10       -50.9183  -29.0794    9.8599 C.ar      14 UNK        -0.0881 
     11 C11       -51.1790  -29.0384   11.2345 C.ar      14 UNK        -0.0643 
     12 C12       -52.5024  -28.9867   11.6815 C.ar      14 UNK        -0.0930 
     13 C13       -53.5615  -28.9938   10.7702 C.ar      14 UNK        -0.0827 
     14 C14       -53.2908  -29.0418    9.4012 C.ar      14 UNK        -0.1249 
     15 C15       -54.9947  -28.9636   11.2699 C.3       14 UNK         0.0141 
     16 S16       -55.5156  -30.6299   11.7729 S.3       14 UNK        -0.2313 
     17 C17       -57.2158  -30.3450   12.3747 C.3       14 UNK        -0.0915 
     18 CA        -57.3584  -29.3372   13.5586 C.3       13 UNK         0.0968 
     19 C         -58.8206  -29.2582   14.0940 C.2       13 UNK         0.5732 
     20 N         -59.0528  -28.8376   15.3301 N.am      13 UNK        -0.7310 
     21 O         -59.7704  -29.5593   13.3738 O.2       13 UNK        -0.5035 
     22 N         -56.3234  -29.5036   14.5935 N.am      13 UNK        -0.4233 
     23 C         -56.1373  -30.5885   15.3591 C.2       13 UNK         0.4989 
     24 O         -56.8841  -31.5676   15.3723 O.2       13 UNK        -0.4996 
     25 CA        -54.8888  -30.5864   16.2543 C.3       12 UNK         0.0216 
     26 CB        -53.6260  -30.8691   15.4224 C.3       12 UNK        -0.1964 
     27 N         -54.7449  -29.3018   16.9372 N.am      12 UNK        -0.4276 
     28 C         -55.1597  -29.0557   18.1878 C.2       12 UNK         0.5020 
     29 O         -55.5862  -29.9197   18.9552 O.2       12 UNK        -0.5489 
     30 CA        -55.1144  -27.5899   18.6628 C.3       11 UNK         0.0294 
     31 CB        -53.7859  -27.2970   19.3788 C.3       11 UNK        -0.2019 
     32 N         -55.3041  -26.6223   17.5778 N.am      11 UNK        -0.4493 
     33 C         -56.4040  -26.5308   16.8155 C.2       11 UNK         0.4932 
     34 O         -57.4249  -27.1877   17.0127 O.2       11 UNK        -0.5029 
     35 CA        -56.3456  -25.5924   15.5968 C.3       10 UNK         0.0280 
     36 CB        -57.0622  -24.2686   15.9050 C.3       10 UNK        -0.1976 
     37 N         -54.9870  -25.3102   15.1197 N.am      10 UNK        -0.4242 
     38 C         -54.1238  -26.2175   14.6422 C.2       10 UNK         0.5072 
     39 O         -54.3636  -27.4265   14.5705 O.2       10 UNK        -0.5224 
     40 CA        -52.7351  -25.6859   14.2484 C.3       9 UNK         0.0343 
     41 CB        -51.6437  -26.4066   15.0567 C.3       9 UNK        -0.2003 
     42 N         -52.4377  -25.7984   12.8175 N.am      9 UNK        -0.4272 
     43 C         -53.1756  -25.2922   11.8175 C.2       9 UNK         0.4988 
     44 O         -54.2526  -24.7143   11.9787 O.2       9 UNK        -0.5108 
     45 CA        -52.5669  -25.4072   10.4047 C.3       8 UNK         0.0248 
     46 CB        -53.5189  -24.9096    9.2976 C.3       8 UNK        -0.2001 
     47 N         -51.2613  -24.7443   10.2940 N.am      8 UNK        -0.4140 
     48 C         -50.9513  -23.4727   10.5929 C.2       8 UNK         0.5028 
     49 O         -51.7639  -22.6433   11.0053 O.2       8 UNK        -0.5428 
     50 CA        -49.4744  -23.0621   10.4082 C.3       7 UNK         0.0264 
     51 CB        -49.1638  -21.6727   10.9987 C.3       7 UNK        -0.1988 
     52 N         -48.5464  -24.0387   10.9896 N.am      7 UNK        -0.4454 
     53 C         -48.1581  -25.1704   10.3906 C.2       7 UNK         0.5027 
     54 O         -48.5470  -25.5082    9.2725 O.2       7 UNK        -0.5083 
     55 CA        -47.2384  -26.1066   11.1863 C.3       6 UNK         0.0844 
     56 C56       -47.8907  -27.4966   11.4012 C.3       14 UNK        -0.0967 
     57 S57       -49.3227  -27.4382   12.5278 S.3       14 UNK        -0.2604 
     58 C58       -50.0438  -29.0829   12.2461 C.3       14 UNK         0.0134 
     59 N         -45.9695  -26.1913   10.4728 N.am      6 UNK        -0.4116 
     60 C         -44.8330  -26.6937   10.9707 C.2       5 UNK         0.5034 
     61 O         -44.7170  -27.1289   12.1169 O.2       5 UNK        -0.5045 
     62 CA        -43.6137  -26.7060   10.0393 C.3       5 UNK         0.0224 
     63 CB        -43.7914  -27.7393    8.9127 C.3       5 UNK        -0.1978 
     64 N         -43.3973  -25.3808    9.4608 N.am      5 UNK        -0.4737 
     65 C         -42.5173  -24.4804    9.9195 C.2       4 UNK         0.5027 
     66 O         -41.7386  -24.6972   10.8484 O.2       4 UNK        -0.5211 
     67 CA        -42.4866  -23.1031    9.2280 C.3       4 UNK         0.0297 
     68 CB        -41.3692  -23.0596    8.1731 C.3       4 UNK        -0.1993 
     69 N         -43.7575  -22.7409    8.5962 N.am      4 UNK        -0.4486 
     70 C         -44.8830  -22.4462    9.2610 C.2       3 UNK         0.4961 
     71 O         -44.9521  -22.3556   10.4866 O.2       3 UNK        -0.5105 
     72 CA        -46.1588  -22.2472    8.4226 C.3       3 UNK         0.0299 
     73 CB        -46.4196  -20.7523    8.1807 C.3       3 UNK        -0.1972 
     74 N         -46.1886  -22.9626    7.1398 N.am      3 UNK        -0.4305 
     75 C         -46.0677  -24.2888    6.9892 C.2       2 UNK         0.5006 
     76 O         -45.7953  -25.0641    7.9061 O.2       2 UNK        -0.5106 
     77 CA        -46.2535  -24.8500    5.5754 C.3       2 UNK         0.0296 
     78 CB        -45.0077  -25.6336    5.1278 C.3       2 UNK        -0.2002 
     79 N         -47.4181  -25.7313    5.5351 N.am      2 UNK        -0.4032 
     80 C         -48.6942  -25.3267    5.5687 C.2       1 UNK         0.5000 
     81 O         -49.0195  -24.1379    5.6098 O.2       1 UNK        -0.5238 
     82 H82       -49.0535  -29.7793    3.4410 H         1 UNK         0.0889 
     83 H83       -48.6721  -30.7177    4.8858 H         1 UNK         0.0889 
     84 H84       -47.3801  -29.9193    3.9853 H         1 UNK         0.0889 
     85 H85       -49.9015  -27.7918    3.9121 H         1 UNK         0.3028 
     86 H86       -50.5530  -25.9478    4.8187 H         1 UNK         0.0864 
     87 H87       -49.8448  -27.1527    7.5396 H         1 UNK         0.0720 
     88 H88       -50.7453  -25.6775    7.3204 H         1 UNK         0.0720 
     89 H89       -50.6705  -29.4289    7.2393 H         1 UNK         0.0814 
     90 H90       -52.3304  -29.9046    6.9988 H         1 UNK         0.0814 
     91 H91       -49.8987  -29.1244    9.5049 H         1 UNK         0.1469 
     92 H92       -52.7137  -28.9513   12.7414 H         1 UNK         0.1381 
     93 H93       -54.1065  -29.0495    8.6910 H         1 UNK         0.1206 
     94 H94       -55.0672  -28.2755   12.1121 H         1 UNK         0.0813 
     95 H95       -55.6667  -28.5865   10.4976 H         1 UNK         0.0813 
     96 H96       -57.8188  -30.0159   11.5267 H         1 UNK         0.0638 
     97 H97       -57.6149  -31.3183   12.6654 H         1 UNK         0.0638 
     98 H98       -57.1807  -28.3431   13.1489 H         1 UNK         0.0568 
     99 H99       -58.3054  -28.4935   15.9239 H         1 UNK         0.3450 
    100 H100      -60.0044  -28.7904   15.6558 H         1 UNK         0.3450 
    101 H101      -55.6347  -28.7570   14.6335 H         1 UNK         0.2987 
    102 H102      -54.9966  -31.3921   16.9839 H         1 UNK         0.0766 
    103 H103      -53.7143  -31.8165   14.8889 H         1 UNK         0.0798 
    104 H104      -52.7413  -30.9336   16.0559 H         1 UNK         0.0798 
    105 H105      -53.4477  -30.0930   14.6779 H         1 UNK         0.0798 
    106 H106      -54.4355  -28.5225   16.3678 H         1 UNK         0.3198 
    107 H107      -55.9293  -27.4519   19.3769 H         1 UNK         0.0843 
    108 H108      -52.9324  -27.3980   18.7071 H         1 UNK         0.0831 
    109 H109      -53.6306  -27.9888   20.2080 H         1 UNK         0.0831 
    110 H110      -53.7713  -26.2893   19.7944 H         1 UNK         0.0831 
    111 H111      -54.5217  -26.0240   17.3574 H         1 UNK         0.3133 
    112 H112      -56.8800  -26.0879   14.7835 H         1 UNK         0.0566 
    113 H113      -57.1146  -23.6301   15.0229 H         1 UNK         0.0814 
    114 H114      -58.0874  -24.4470   16.2333 H         1 UNK         0.0814 
    115 H115      -56.5597  -23.7106   16.6962 H         1 UNK         0.0814 
    116 H116      -54.7036  -24.3405   15.1292 H         1 UNK         0.3091 
    117 H117      -52.6858  -24.6241   14.4979 H         1 UNK         0.0702 
    118 H118      -50.6632  -25.9629   14.8835 H         1 UNK         0.0785 
    119 H119      -51.5841  -27.4652   14.7994 H         1 UNK         0.0785 
    120 H120      -51.8393  -26.3429   16.1279 H         1 UNK         0.0785 
    121 H121      -51.5749  -26.2690   12.5805 H         1 UNK         0.2998 
    122 H122      -52.3828  -26.4644   10.2246 H         1 UNK         0.0697 
    123 H123      -53.7506  -23.8497    9.4081 H         1 UNK         0.0825 
    124 H124      -54.4623  -25.4562    9.3232 H         1 UNK         0.0825 
    125 H125      -53.0875  -25.0578    8.3080 H         1 UNK         0.0825 
    126 H126      -50.5021  -25.3232    9.9508 H         1 UNK         0.3029 
    127 H127      -49.3040  -23.0077    9.3305 H         1 UNK         0.0897 
    128 H128      -48.1206  -21.3963   10.8451 H         1 UNK         0.0792 
    129 H129      -49.3649  -21.6363   12.0700 H         1 UNK         0.0792 
    130 H130      -49.7729  -20.9014   10.5254 H         1 UNK         0.0792 
    131 H131      -48.2225  -23.8474   11.9273 H         1 UNK         0.3086 
    132 H132      -47.0380  -25.6568   12.1613 H         1 UNK         0.0583 
    133 H133      -48.1811  -27.9343   10.4452 H         1 UNK         0.1020 
    134 H134      -47.1705  -28.1894   11.8379 H         1 UNK         0.1020 
    135 H135      -49.2748  -29.7846   11.9195 H         1 UNK         0.0694 
    136 H136      -50.4105  -29.4653   13.2001 H         1 UNK         0.0694 
    137 H137      -45.9845  -25.8359    9.5161 H         1 UNK         0.2989 
    138 H138      -42.7450  -27.0039   10.6311 H         1 UNK         0.1055 
    139 H139      -44.6468  -27.5116    8.2754 H         1 UNK         0.0806 
    140 H140      -43.9480  -28.7381    9.3223 H         1 UNK         0.0806 
    141 H141      -42.9068  -27.7853    8.2775 H         1 UNK         0.0806 
    142 H142      -44.0515  -25.1012    8.7360 H         1 UNK         0.3061 
    143 H143      -42.2639  -22.3566    9.9936 H         1 UNK         0.0734 
    144 H144      -41.2824  -22.0694    7.7254 H         1 UNK         0.0832 
    145 H145      -40.4025  -23.2961    8.6203 H         1 UNK         0.0832 
    146 H146      -41.5410  -23.7792    7.3716 H         1 UNK         0.0832 
    147 H147      -43.7969  -22.7819    7.5882 H         1 UNK         0.3156 
    148 H148      -46.9824  -22.6408    9.0165 H         1 UNK         0.0589 
    149 H149      -47.3884  -20.5893    7.7080 H         1 UNK         0.0808 
    150 H150      -46.4250  -20.1987    9.1209 H         1 UNK         0.0808 
    151 H151      -45.6537  -20.3065    7.5449 H         1 UNK         0.0808 
    152 H152      -46.4138  -22.4087    6.3254 H         1 UNK         0.3098 
    153 H153      -46.4117  -24.0276    4.8746 H         1 UNK         0.0720 
    154 H154      -45.1175  -26.0017    4.1076 H         1 UNK         0.0791 
    155 H155      -44.8146  -26.4918    5.7733 H         1 UNK         0.0791 
    156 H156      -44.1189  -25.0017    5.1506 H         1 UNK         0.0791 
    157 H157      -47.2522  -26.7284    5.6246 H         1 UNK         0.3028 
@<TRIPOS>BOND
     1    1    2 1    
     2    1   82 1    
     3    1   83 1    
     4    1   84 1    
     5    2    3 2    
     6    2    4 am   BACKBONE|DICT|INTERRES
     7    4    5 1    
     8    4   85 1    
     9    5    6 1    
    10    5   80 1    
    11    5   86 1    
    12    6    7 1    
    13    6   87 1    
    14    6   88 1    
    15    7    8 1    
    16    8    9 1    
    17    8   89 1    
    18    8   90 1    
    19    9   10 ar   
    20    9   14 ar   
    21   10   11 ar   
    22   10   91 1    
    23   11   12 ar   
    24   11   58 1    
    25   12   13 ar   
    26   12   92 1    
    27   13   14 ar   
    28   13   15 1    
    29   14   93 1    
    30   15   16 1    
    31   15   94 1    
    32   15   95 1    
    33   16   17 1    
    34   17   18 1    
    35   17   96 1    
    36   17   97 1    
    37   18   19 1    
    38   18   22 1    
    39   18   98 1    
    40   19   20 am   BACKBONE|DICT|INTERRES
    41   19   21 2    
    42   20   99 1    
    43   20  100 1    
    44   22   23 am   BACKBONE|DICT|INTERRES
    45   22  101 1    
    46   23   24 2    
    47   23   25 1    
    48   25   26 1    
    49   25   27 1    
    50   25  102 1    
    51   26  103 1    
    52   26  104 1    
    53   26  105 1    
    54   27   28 am   BACKBONE|DICT|INTERRES
    55   27  106 1    
    56   28   29 2    
    57   28   30 1    
    58   30   31 1    
    59   30   32 1    
    60   30  107 1    
    61   31  108 1    
    62   31  109 1    
    63   31  110 1    
    64   32   33 am   BACKBONE|DICT|INTERRES
    65   32  111 1    
    66   33   34 2    
    67   33   35 1    
    68   35   36 1    
    69   35   37 1    
    70   35  112 1    
    71   36  113 1    
    72   36  114 1    
    73   36  115 1    
    74   37   38 am   BACKBONE|DICT|INTERRES
    75   37  116 1    
    76   38   39 2    
    77   38   40 1    
    78   40   41 1    
    79   40   42 1    
    80   40  117 1    
    81   41  118 1    
    82   41  119 1    
    83   41  120 1    
    84   42   43 am   BACKBONE|DICT|INTERRES
    85   42  121 1    
    86   43   44 2    
    87   43   45 1    
    88   45   46 1    
    89   45   47 1    
    90   45  122 1    
    91   46  123 1    
    92   46  124 1    
    93   46  125 1    
    94   47   48 am   BACKBONE|DICT|INTERRES
    95   47  126 1    
    96   48   49 2    
    97   48   50 1    
    98   50   51 1    
    99   50   52 1    
   100   50  127 1    
   101   51  128 1    
   102   51  129 1    
   103   51  130 1    
   104   52   53 am   BACKBONE|DICT|INTERRES
   105   52  131 1    
   106   53   54 2    
   107   53   55 1    
   108   55   56 1    
   109   55   59 1    
   110   55  132 1    
   111   56   57 1    
   112   56  133 1    
   113   56  134 1    
   114   57   58 1    
   115   58  135 1    
   116   58  136 1    
   117   59   60 am   BACKBONE|DICT|INTERRES
   118   59  137 1    
   119   60   61 2    
   120   60   62 1    
   121   62   63 1    
   122   62   64 1    
   123   62  138 1    
   124   63  139 1    
   125   63  140 1    
   126   63  141 1    
   127   64   65 am   BACKBONE|DICT|INTERRES
   128   64  142 1    
   129   65   66 2    
   130   65   67 1    
   131   67   68 1    
   132   67   69 1    
   133   67  143 1    
   134   68  144 1    
   135   68  145 1    
   136   68  146 1    
   137   69   70 am   BACKBONE|DICT|INTERRES
   138   69  147 1    
   139   70   71 2    
   140   70   72 1    
   141   72   73 1    
   142   72   74 1    
   143   72  148 1    
   144   73  149 1    
   145   73  150 1    
   146   73  151 1    
   147   74   75 am   BACKBONE|DICT|INTERRES
   148   74  152 1    
   149   75   76 2    
   150   75   77 1    
   151   77   78 1    
   152   77   79 1    
   153   77  153 1    
   154   78  154 1    
   155   78  155 1    
   156   78  156 1    
   157   79   80 am   BACKBONE|DICT|INTERRES
   158   79  157 1    
   159   80   81 2    
@<TRIPOS>SUBSTRUCTURE
     1 UNK         1 GROUP             0       ****    0 ROOT    
