@<TRIPOS>MOLECULE
3R207
157   159    1
SMALL
USER_CHARGES


@<TRIPOS>ATOM
      1 CA        -44.1009  -28.8885    6.6020 C.3       0 UNK        -0.1975 
      2 C         -45.2468  -28.9937    5.6062 C.2       0 UNK         0.4852 
      3 O         -45.0110  -29.2607    4.4267 O.2       0 UNK        -0.5216 
      4 N         -46.4797  -28.7852    6.0770 N.am      1 UNK        -0.4461 
      5 CA        -47.7009  -28.7159    5.2765 C.3       1 UNK         0.0864 
      6 C6        -48.8515  -29.4812    5.9857 C.3       14 UNK        -0.0898 
      7 S7        -50.2038  -29.9389    4.8483 S.3       14 UNK        -0.2598 
      8 C8        -51.1122  -31.1769    5.8261 C.3       14 UNK         0.0286 
      9 C9        -51.7197  -30.6037    7.1014 C.ar      14 UNK        -0.0844 
     10 C10       -51.3501  -31.1258    8.3467 C.ar      14 UNK        -0.0881 
     11 C11       -51.9446  -30.6512    9.5194 C.ar      14 UNK        -0.0643 
     12 C12       -52.9110  -29.6491    9.4372 C.ar      14 UNK        -0.0930 
     13 C13       -53.2657  -29.0917    8.2089 C.ar      14 UNK        -0.0827 
     14 C14       -52.6748  -29.5803    7.0390 C.ar      14 UNK        -0.1249 
     15 C15       -54.2897  -27.9672    8.1735 C.3       14 UNK         0.0141 
     16 S16       -53.6306  -26.4660    8.9674 S.3       14 UNK        -0.2313 
     17 C17       -55.1348  -25.4570    9.1777 C.3       14 UNK        -0.0915 
     18 CA        -55.3938  -25.0856   10.6634 C.3       13 UNK         0.0968 
     19 C         -56.5475  -24.0483   10.7911 C.2       13 UNK         0.5732 
     20 N         -57.6449  -24.3489   11.4758 N.am      13 UNK        -0.7310 
     21 O         -56.4400  -22.9430   10.2654 O.2       13 UNK        -0.5035 
     22 N         -55.5498  -26.2804   11.5126 N.am      13 UNK        -0.4233 
     23 C         -55.2854  -26.3174   12.8244 C.2       13 UNK         0.4989 
     24 O         -54.8796  -25.3461   13.4661 O.2       13 UNK        -0.4996 
     25 CA        -55.5001  -27.6536   13.5550 C.3       12 UNK         0.0216 
     26 CB        -55.3733  -28.8982   12.6486 C.3       12 UNK        -0.1964 
     27 N         -54.5406  -27.7185   14.6532 N.am      12 UNK        -0.4276 
     28 C         -54.5807  -28.5428   15.7058 C.2       12 UNK         0.5020 
     29 O         -55.4549  -29.3916   15.8853 O.2       12 UNK        -0.5489 
     30 CA        -53.4497  -28.3974   16.7361 C.3       11 UNK         0.0294 
     31 CB        -52.3069  -29.3757   16.4165 C.3       11 UNK        -0.2019 
     32 N         -52.9132  -27.0372   16.7672 N.am      11 UNK        -0.4493 
     33 C         -53.4298  -26.0215   17.4706 C.2       11 UNK         0.4932 
     34 O         -54.4073  -26.1322   18.2125 O.2       11 UNK        -0.5029 
     35 CA        -52.7331  -24.6555   17.3048 C.3       10 UNK         0.0280 
     36 CB        -53.0311  -23.6773   18.4607 C.3       10 UNK        -0.1976 
     37 N         -51.2888  -24.7790   17.0727 N.am      10 UNK        -0.4242 
     38 C         -50.3644  -25.3036   17.8938 C.2       10 UNK         0.5072 
     39 O         -50.6011  -25.6978   19.0364 O.2       10 UNK        -0.5224 
     40 CA        -48.9318  -25.4497   17.3428 C.3       9 UNK         0.0343 
     41 CB        -48.6260  -26.9292   17.0527 C.3       9 UNK        -0.2003 
     42 N         -48.6907  -24.6789   16.1218 N.am      9 UNK        -0.4272 
     43 C         -48.5743  -23.3461   16.0537 C.2       9 UNK         0.4988 
     44 O         -48.5662  -22.6039   17.0359 O.2       9 UNK        -0.5108 
     45 CA        -48.5021  -22.7414   14.6418 C.3       8 UNK         0.0248 
     46 CB        -47.0622  -22.7695   14.1024 C.3       8 UNK        -0.2001 
     47 N         -49.3993  -23.4221   13.7017 N.am      8 UNK        -0.4140 
     48 C         -50.7382  -23.3516   13.7415 C.2       8 UNK         0.5028 
     49 O         -51.3635  -22.6834   14.5640 O.2       8 UNK        -0.5428 
     50 CA        -51.5124  -24.1852   12.7087 C.3       7 UNK         0.0264 
     51 CB        -51.6551  -23.4058   11.3941 C.3       7 UNK        -0.1988 
     52 N         -50.8900  -25.4859   12.4486 N.am      7 UNK        -0.4454 
     53 C         -50.8956  -26.5021   13.3227 C.2       7 UNK         0.5027 
     54 O         -51.4541  -26.4537   14.4203 O.2       7 UNK        -0.5083 
     55 CA        -50.1370  -27.7847   12.9287 C.3       6 UNK         0.0844 
     56 C56       -51.0224  -28.6958   12.0487 C.3       14 UNK        -0.0967 
     57 S57       -50.2022  -30.2789   11.6458 S.3       14 UNK        -0.2604 
     58 C58       -51.5575  -31.2198   10.8768 C.3       14 UNK         0.0134 
     59 N         -48.8316  -27.5433   12.3087 N.am      6 UNK        -0.4116 
     60 C         -47.8140  -26.8420   12.8232 C.2       5 UNK         0.5034 
     61 O         -47.8989  -26.1593   13.8420 O.2       5 UNK        -0.5045 
     62 CA        -46.4589  -26.9335   12.0969 C.3       5 UNK         0.0224 
     63 CB        -45.4623  -27.7274   12.9569 C.3       5 UNK        -0.1978 
     64 N         -46.5629  -27.5835   10.7835 N.am      5 UNK        -0.4737 
     65 C         -46.9123  -27.0270    9.6154 C.2       4 UNK         0.5027 
     66 O         -47.0489  -27.7147    8.6058 O.2       4 UNK        -0.5211 
     67 CA        -47.0761  -25.4965    9.5082 C.3       4 UNK         0.0297 
     68 CB        -45.7418  -24.8537    9.0974 C.3       4 UNK        -0.1993 
     69 N         -48.0990  -25.1241    8.5320 N.am      4 UNK        -0.4486 
     70 C         -49.4172  -25.2040    8.7609 C.2       3 UNK         0.4961 
     71 O         -49.8957  -25.6230    9.8154 O.2       3 UNK        -0.5105 
     72 CA        -50.3522  -24.7178    7.6432 C.3       3 UNK         0.0299 
     73 CB        -50.5349  -23.1889    7.7046 C.3       3 UNK        -0.1972 
     74 N         -49.8484  -25.1252    6.3352 N.am      3 UNK        -0.4305 
     75 C         -50.5239  -25.1425    5.1821 C.2       2 UNK         0.5006 
     76 O         -51.6825  -24.7456    5.0550 O.2       2 UNK        -0.5106 
     77 CA        -49.7906  -25.7260    3.9574 C.3       2 UNK         0.0296 
     78 CB        -48.8516  -24.6847    3.3165 C.3       2 UNK        -0.2002 
     79 N         -49.0982  -26.9962    4.2291 N.am      2 UNK        -0.4032 
     80 C         -48.0586  -27.2323    5.0425 C.2       1 UNK         0.5000 
     81 O         -47.4468  -26.3374    5.6369 O.2       1 UNK        -0.5238 
     82 H82       -43.5589  -29.8324    6.6530 H         1 UNK         0.0889 
     83 H83       -44.4557  -28.6456    7.6039 H         1 UNK         0.0889 
     84 H84       -43.4046  -28.1098    6.2916 H         1 UNK         0.0889 
     85 H85       -46.6008  -28.4689    7.0399 H         1 UNK         0.3028 
     86 H86       -47.5215  -29.1732    4.3011 H         1 UNK         0.0864 
     87 H87       -48.4656  -30.4078    6.4144 H         1 UNK         0.0720 
     88 H88       -49.2554  -28.9104    6.8254 H         1 UNK         0.0720 
     89 H89       -50.4445  -32.0105    6.0495 H         1 UNK         0.0814 
     90 H90       -51.9141  -31.5873    5.2110 H         1 UNK         0.0814 
     91 H91       -50.6078  -31.9101    8.4060 H         1 UNK         0.1469 
     92 H92       -53.3728  -29.2756   10.3363 H         1 UNK         0.1381 
     93 H93       -52.9548  -29.1673    6.0795 H         1 UNK         0.1206 
     94 H94       -55.1930  -28.2931    8.6910 H         1 UNK         0.0813 
     95 H95       -54.5804  -27.7339    7.1481 H         1 UNK         0.0813 
     96 H96       -55.0001  -24.5567    8.5752 H         1 UNK         0.0638 
     97 H97       -55.9969  -25.9772    8.7570 H         1 UNK         0.0638 
     98 H98       -54.5053  -24.5573   11.0133 H         1 UNK         0.0568 
     99 H99       -58.3798  -23.6637   11.5529 H         1 UNK         0.3450 
    100 H100      -57.7463  -25.2492   11.9146 H         1 UNK         0.3450 
    101 H101      -55.8862  -27.1122   11.0530 H         1 UNK         0.2987 
    102 H102      -56.5062  -27.6248   13.9775 H         1 UNK         0.0766 
    103 H103      -55.5734  -29.8149   13.2032 H         1 UNK         0.0798 
    104 H104      -54.3700  -28.9811   12.2381 H         1 UNK         0.0798 
    105 H105      -56.0823  -28.8802   11.8206 H         1 UNK         0.0798 
    106 H106      -53.8228  -27.0030   14.6245 H         1 UNK         0.3198 
    107 H107      -53.8538  -28.6479   17.7195 H         1 UNK         0.0843 
    108 H108      -51.8695  -29.1823   15.4363 H         1 UNK         0.0831 
    109 H109      -52.6655  -30.4060   16.4158 H         1 UNK         0.0831 
    110 H110      -51.5103  -29.3102   17.1580 H         1 UNK         0.0831 
    111 H111      -52.1560  -26.8311   16.1193 H         1 UNK         0.3133 
    112 H112      -53.1437  -24.2199   16.3925 H         1 UNK         0.0566 
    113 H113      -52.5300  -22.7214   18.3089 H         1 UNK         0.0814 
    114 H114      -54.1000  -23.4736   18.5341 H         1 UNK         0.0814 
    115 H115      -52.7106  -24.0763   19.4235 H         1 UNK         0.0814 
    116 H116      -50.9798  -24.4929   16.1533 H         1 UNK         0.3091 
    117 H117      -48.2438  -25.0972   18.1139 H         1 UNK         0.0702 
    118 H118      -47.5992  -27.0627   16.7116 H         1 UNK         0.0785 
    119 H119      -49.2877  -27.3330   16.2850 H         1 UNK         0.0785 
    120 H120      -48.7528  -27.5397   17.9477 H         1 UNK         0.0785 
    121 H121      -48.5953  -25.2138   15.2605 H         1 UNK         0.2998 
    122 H122      -48.8171  -21.6980   14.7112 H         1 UNK         0.0697 
    123 H123      -46.6786  -23.7860   14.0115 H         1 UNK         0.0825 
    124 H124      -46.3888  -22.2284   14.7685 H         1 UNK         0.0825 
    125 H125      -46.9956  -22.2962   13.1227 H         1 UNK         0.0825 
    126 H126      -48.9718  -24.0383   13.0260 H         1 UNK         0.3029 
    127 H127      -52.5122  -24.3610   13.1083 H         1 UNK         0.0897 
    128 H128      -50.6811  -23.1283   10.9903 H         1 UNK         0.0792 
    129 H129      -52.2214  -22.4860   11.5454 H         1 UNK         0.0792 
    130 H130      -52.1778  -23.9914   10.6376 H         1 UNK         0.0792 
    131 H131      -50.4487  -25.6113   11.5367 H         1 UNK         0.3086 
    132 H132      -49.9341  -28.3194   13.8590 H         1 UNK         0.0583 
    133 H133      -51.9641  -28.9139   12.5557 H         1 UNK         0.1020 
    134 H134      -51.2742  -28.1842   11.1172 H         1 UNK         0.1020 
    135 H135      -51.2442  -32.2591   10.7668 H         1 UNK         0.0694 
    136 H136      -52.4200  -31.2324   11.5452 H         1 UNK         0.0694 
    137 H137      -48.6617  -28.0572   11.4565 H         1 UNK         0.2989 
    138 H138      -46.0597  -25.9232   11.9966 H         1 UNK         0.1055 
    139 H139      -45.3314  -27.2616   13.9351 H         1 UNK         0.0806 
    140 H140      -44.4790  -27.7698   12.4880 H         1 UNK         0.0806 
    141 H141      -45.7978  -28.7513   13.1276 H         1 UNK         0.0806 
    142 H142      -46.4096  -28.5820   10.7869 H         1 UNK         0.3061 
    143 H143      -47.3864  -25.0746   10.4640 H         1 UNK         0.0734 
    144 H144      -45.8220  -23.7678    9.0447 H         1 UNK         0.0832 
    145 H145      -44.9560  -25.0847    9.8178 H         1 UNK         0.0832 
    146 H146      -45.4056  -25.2141    8.1238 H         1 UNK         0.0832 
    147 H147      -47.7642  -24.8117    7.6323 H         1 UNK         0.3156 
    148 H148      -51.3209  -25.1944    7.7940 H         1 UNK         0.0589 
    149 H149      -51.2556  -22.8408    6.9649 H         1 UNK         0.0808 
    150 H150      -50.9084  -22.8756    8.6780 H         1 UNK         0.0808 
    151 H151      -49.5959  -22.6631    7.5288 H         1 UNK         0.0808 
    152 H152      -48.9120  -25.5257    6.3099 H         1 UNK         0.3098 
    153 H153      -50.5591  -25.9662    3.2208 H         1 UNK         0.0720 
    154 H154      -48.3784  -25.0792    2.4174 H         1 UNK         0.0791 
    155 H155      -48.0625  -24.3655    3.9977 H         1 UNK         0.0791 
    156 H156      -49.4061  -23.7915    3.0258 H         1 UNK         0.0791 
    157 H157      -49.5606  -27.8136    3.8502 H         1 UNK         0.3028 
@<TRIPOS>BOND
     1    1    2 1    
     2    1   82 1    
     3    1   83 1    
     4    1   84 1    
     5    2    3 2    
     6    2    4 am   BACKBONE|DICT|INTERRES
     7    4    5 1    
     8    4   85 1    
     9    5    6 1    
    10    5   80 1    
    11    5   86 1    
    12    6    7 1    
    13    6   87 1    
    14    6   88 1    
    15    7    8 1    
    16    8    9 1    
    17    8   89 1    
    18    8   90 1    
    19    9   10 ar   
    20    9   14 ar   
    21   10   11 ar   
    22   10   91 1    
    23   11   12 ar   
    24   11   58 1    
    25   12   13 ar   
    26   12   92 1    
    27   13   14 ar   
    28   13   15 1    
    29   14   93 1    
    30   15   16 1    
    31   15   94 1    
    32   15   95 1    
    33   16   17 1    
    34   17   18 1    
    35   17   96 1    
    36   17   97 1    
    37   18   19 1    
    38   18   22 1    
    39   18   98 1    
    40   19   20 am   BACKBONE|DICT|INTERRES
    41   19   21 2    
    42   20   99 1    
    43   20  100 1    
    44   22   23 am   BACKBONE|DICT|INTERRES
    45   22  101 1    
    46   23   24 2    
    47   23   25 1    
    48   25   26 1    
    49   25   27 1    
    50   25  102 1    
    51   26  103 1    
    52   26  104 1    
    53   26  105 1    
    54   27   28 am   BACKBONE|DICT|INTERRES
    55   27  106 1    
    56   28   29 2    
    57   28   30 1    
    58   30   31 1    
    59   30   32 1    
    60   30  107 1    
    61   31  108 1    
    62   31  109 1    
    63   31  110 1    
    64   32   33 am   BACKBONE|DICT|INTERRES
    65   32  111 1    
    66   33   34 2    
    67   33   35 1    
    68   35   36 1    
    69   35   37 1    
    70   35  112 1    
    71   36  113 1    
    72   36  114 1    
    73   36  115 1    
    74   37   38 am   BACKBONE|DICT|INTERRES
    75   37  116 1    
    76   38   39 2    
    77   38   40 1    
    78   40   41 1    
    79   40   42 1    
    80   40  117 1    
    81   41  118 1    
    82   41  119 1    
    83   41  120 1    
    84   42   43 am   BACKBONE|DICT|INTERRES
    85   42  121 1    
    86   43   44 2    
    87   43   45 1    
    88   45   46 1    
    89   45   47 1    
    90   45  122 1    
    91   46  123 1    
    92   46  124 1    
    93   46  125 1    
    94   47   48 am   BACKBONE|DICT|INTERRES
    95   47  126 1    
    96   48   49 2    
    97   48   50 1    
    98   50   51 1    
    99   50   52 1    
   100   50  127 1    
   101   51  128 1    
   102   51  129 1    
   103   51  130 1    
   104   52   53 am   BACKBONE|DICT|INTERRES
   105   52  131 1    
   106   53   54 2    
   107   53   55 1    
   108   55   56 1    
   109   55   59 1    
   110   55  132 1    
   111   56   57 1    
   112   56  133 1    
   113   56  134 1    
   114   57   58 1    
   115   58  135 1    
   116   58  136 1    
   117   59   60 am   BACKBONE|DICT|INTERRES
   118   59  137 1    
   119   60   61 2    
   120   60   62 1    
   121   62   63 1    
   122   62   64 1    
   123   62  138 1    
   124   63  139 1    
   125   63  140 1    
   126   63  141 1    
   127   64   65 am   BACKBONE|DICT|INTERRES
   128   64  142 1    
   129   65   66 2    
   130   65   67 1    
   131   67   68 1    
   132   67   69 1    
   133   67  143 1    
   134   68  144 1    
   135   68  145 1    
   136   68  146 1    
   137   69   70 am   BACKBONE|DICT|INTERRES
   138   69  147 1    
   139   70   71 2    
   140   70   72 1    
   141   72   73 1    
   142   72   74 1    
   143   72  148 1    
   144   73  149 1    
   145   73  150 1    
   146   73  151 1    
   147   74   75 am   BACKBONE|DICT|INTERRES
   148   74  152 1    
   149   75   76 2    
   150   75   77 1    
   151   77   78 1    
   152   77   79 1    
   153   77  153 1    
   154   78  154 1    
   155   78  155 1    
   156   78  156 1    
   157   79   80 am   BACKBONE|DICT|INTERRES
   158   79  157 1    
   159   80   81 2    
@<TRIPOS>SUBSTRUCTURE
     1 UNK         1 GROUP             0       ****    0 ROOT    
