@<TRIPOS>MOLECULE
3R207
157   159    1
SMALL
USER_CHARGES


@<TRIPOS>ATOM
      1 CA        -47.2337  -32.3165    7.7755 C.3       0 UNK        -0.1975 
      2 C         -47.0252  -31.5617    6.4707 C.2       0 UNK         0.4852 
      3 O         -45.9776  -31.7037    5.8399 O.2       0 UNK        -0.5216 
      4 N         -48.0119  -30.7509    6.0664 N.am      1 UNK        -0.4461 
      5 CA        -47.9856  -29.9206    4.8538 C.3       1 UNK         0.0864 
      6 C6        -49.4226  -29.5807    4.3723 C.3       14 UNK        -0.0898 
      7 S7        -50.4015  -28.6274    5.5878 S.3       14 UNK        -0.2598 
      8 C8        -51.5632  -29.8808    6.2156 C.3       14 UNK         0.0286 
      9 C9        -51.9294  -29.5678    7.6562 C.ar      14 UNK        -0.0844 
     10 C10       -51.1239  -30.0414    8.6942 C.ar      14 UNK        -0.0881 
     11 C11       -51.3889  -29.6884   10.0200 C.ar      14 UNK        -0.0643 
     12 C12       -52.5010  -28.8894   10.3067 C.ar      14 UNK        -0.0930 
     13 C13       -53.3367  -28.4391    9.2793 C.ar      14 UNK        -0.0827 
     14 C14       -53.0425  -28.7767    7.9542 C.ar      14 UNK        -0.1249 
     15 C15       -54.5431  -27.5689    9.5975 C.3       14 UNK         0.0141 
     16 S16       -55.9036  -28.5482   10.3042 S.3       14 UNK        -0.2313 
     17 C17       -57.2886  -27.3656   10.1849 C.3       14 UNK        -0.0915 
     18 CA        -57.1891  -26.1503   11.1486 C.3       13 UNK         0.0968 
     19 C         -58.3821  -25.1840   10.9354 C.2       13 UNK         0.5732 
     20 N         -58.3182  -24.3334    9.9203 N.am      13 UNK        -0.7310 
     21 O         -59.3755  -25.2140   11.6614 O.2       13 UNK        -0.5035 
     22 N         -57.1121  -26.5575   12.5580 N.am      13 UNK        -0.4233 
     23 C         -56.0192  -26.4753   13.3207 C.2       13 UNK         0.4989 
     24 O         -54.9171  -26.1078   12.9119 O.2       13 UNK        -0.4996 
     25 CA        -56.1780  -26.8916   14.7862 C.3       12 UNK         0.0216 
     26 CB        -56.2302  -28.4256   14.9191 C.3       12 UNK        -0.1964 
     27 N         -55.0460  -26.3735   15.5493 N.am      12 UNK        -0.4276 
     28 C         -55.0335  -26.1218   16.8631 C.2       12 UNK         0.5020 
     29 O         -56.0183  -26.2441   17.5951 O.2       12 UNK        -0.5489 
     30 CA        -53.6741  -25.6925   17.4483 C.3       11 UNK         0.0294 
     31 CB        -53.6630  -25.6007   18.9892 C.3       11 UNK        -0.2019 
     32 N         -52.5930  -26.5511   16.9515 N.am      11 UNK        -0.4493 
     33 C         -52.4443  -27.8714   17.1421 C.2       11 UNK         0.4932 
     34 O         -53.1390  -28.5481   17.9009 O.2       11 UNK        -0.5029 
     35 CA        -51.3513  -28.5719   16.3182 C.3       10 UNK         0.0280 
     36 CB        -51.9555  -29.1439   15.0248 C.3       10 UNK        -0.1976 
     37 N         -50.2266  -27.6965   15.9807 N.am      10 UNK        -0.4242 
     38 C         -49.3021  -27.2737   16.8542 C.2       10 UNK         0.5072 
     39 O         -49.2730  -27.6080   18.0396 O.2       10 UNK        -0.5224 
     40 CA        -48.2305  -26.3085   16.3184 C.3       9 UNK         0.0343 
     41 CB        -47.1471  -27.0718   15.5393 C.3       9 UNK        -0.2003 
     42 N         -48.7888  -25.2440   15.4805 N.am      9 UNK        -0.4272 
     43 C         -49.5973  -24.2718   15.9295 C.2       9 UNK         0.4988 
     44 O         -49.9269  -24.1428   17.1087 O.2       9 UNK        -0.5108 
     45 CA        -50.1464  -23.2797   14.8905 C.3       8 UNK         0.0248 
     46 CB        -49.1116  -22.1851   14.5847 C.3       8 UNK        -0.2001 
     47 N         -50.5624  -23.9253   13.6445 N.am      8 UNK        -0.4140 
     48 C         -51.5579  -24.8177   13.5414 C.2       8 UNK         0.5028 
     49 O         -52.2707  -25.1653   14.4836 O.2       8 UNK        -0.5428 
     50 CA        -51.7483  -25.4784   12.1666 C.3       7 UNK         0.0264 
     51 CB        -52.4659  -24.5334   11.1886 C.3       7 UNK        -0.1988 
     52 N         -50.4850  -25.9314   11.5812 N.am      7 UNK        -0.4454 
     53 C         -49.6757  -26.8485   12.1327 C.2       7 UNK         0.5027 
     54 O         -49.9070  -27.4107   13.2020 O.2       7 UNK        -0.5083 
     55 CA        -48.3638  -27.1543   11.3859 C.3       6 UNK         0.0844 
     56 C56       -48.5901  -28.1738   10.2436 C.3       14 UNK        -0.0967 
     57 S57       -48.6898  -29.9089   10.8100 S.3       14 UNK        -0.2604 
     58 C58       -50.4725  -30.1572   11.1447 C.3       14 UNK         0.0134 
     59 N         -47.7268  -25.9253   10.9037 N.am      6 UNK        -0.4116 
     60 C         -47.2605  -24.9499   11.6974 C.2       5 UNK         0.5034 
     61 O         -47.2821  -24.9944   12.9278 O.2       5 UNK        -0.5045 
     62 CA        -46.7250  -23.6895   11.0013 C.3       5 UNK         0.0224 
     63 CB        -45.3463  -23.9504   10.3748 C.3       5 UNK        -0.1978 
     64 N         -47.6367  -23.1663    9.9807 N.am      5 UNK        -0.4737 
     65 C         -48.8811  -22.7259   10.2021 C.2       4 UNK         0.5027 
     66 O         -49.4123  -22.7295   11.3113 O.2       4 UNK        -0.5211 
     67 CA        -49.6892  -22.2220    8.9915 C.3       4 UNK         0.0297 
     68 CB        -49.3436  -20.7571    8.6610 C.3       4 UNK        -0.1993 
     69 N         -49.6046  -23.0920    7.8086 N.am      4 UNK        -0.4486 
     70 C         -48.5469  -23.3400    7.0246 C.2       3 UNK         0.4961 
     71 O         -47.4508  -22.7853    7.1340 O.2       3 UNK        -0.5105 
     72 CA        -48.7446  -24.4294    5.9571 C.3       3 UNK         0.0299 
     73 CB        -48.9503  -23.7971    4.5718 C.3       3 UNK        -0.1972 
     74 N         -47.6286  -25.3783    5.8961 N.am      3 UNK        -0.4305 
     75 C         -47.1274  -26.0680    6.9303 C.2       2 UNK         0.5006 
     76 O         -47.5404  -25.9828    8.0893 O.2       2 UNK        -0.5106 
     77 CA        -46.0256  -27.0820    6.5928 C.3       2 UNK         0.0296 
     78 CB        -45.0666  -27.3257    7.7731 C.3       2 UNK        -0.2002 
     79 N         -46.6689  -28.3402    6.2268 N.am      2 UNK        -0.4032 
     80 C         -47.1183  -28.6466    5.0012 C.2       1 UNK         0.5000 
     81 O         -46.8970  -27.9497    4.0080 O.2       1 UNK        -0.5238 
     82 H82       -48.2106  -32.1162    8.2145 H         1 UNK         0.0889 
     83 H83       -46.4730  -32.0289    8.5008 H         1 UNK         0.0889 
     84 H84       -47.1534  -33.3896    7.6050 H         1 UNK         0.0889 
     85 H85       -48.8485  -30.6649    6.6236 H         1 UNK         0.3028 
     86 H86       -47.5148  -30.5083    4.0625 H         1 UNK         0.0864 
     87 H87       -49.3854  -29.0068    3.4444 H         1 UNK         0.0720 
     88 H88       -49.9527  -30.4993    4.1167 H         1 UNK         0.0720 
     89 H89       -51.1224  -30.8770    6.1569 H         1 UNK         0.0814 
     90 H90       -52.4537  -29.8997    5.5854 H         1 UNK         0.0814 
     91 H91       -50.2645  -30.6562    8.4706 H         1 UNK         0.1469 
     92 H92       -52.7214  -28.6168   11.3299 H         1 UNK         0.1381 
     93 H93       -53.6697  -28.4116    7.1523 H         1 UNK         0.1206 
     94 H94       -54.2556  -26.7936   10.3079 H         1 UNK         0.0813 
     95 H95       -54.8891  -27.0555    8.6992 H         1 UNK         0.0813 
     96 H96       -58.2085  -27.9210   10.3766 H         1 UNK         0.0638 
     97 H97       -57.3526  -27.0289    9.1485 H         1 UNK         0.0638 
     98 H98       -56.2935  -25.5828   10.8900 H         1 UNK         0.0568 
     99 H99       -59.0905  -23.7054    9.7609 H         1 UNK         0.3450 
    100 H100      -57.5158  -24.3034    9.3111 H         1 UNK         0.3450 
    101 H101      -57.9941  -26.8233   12.9729 H         1 UNK         0.2987 
    102 H102      -57.1024  -26.4541   15.1692 H         1 UNK         0.0766 
    103 H103      -56.3489  -28.7311   15.9588 H         1 UNK         0.0798 
    104 H104      -55.3205  -28.8910   14.5369 H         1 UNK         0.0798 
    105 H105      -57.0697  -28.8431   14.3620 H         1 UNK         0.0798 
    106 H106      -54.2203  -26.1640   14.9929 H         1 UNK         0.3198 
    107 H107      -53.4730  -24.6936   17.0576 H         1 UNK         0.0843 
    108 H108      -53.9206  -26.5509   19.4575 H         1 UNK         0.0831 
    109 H109      -54.3860  -24.8627   19.3383 H         1 UNK         0.0831 
    110 H110      -52.6839  -25.2972   19.3597 H         1 UNK         0.0831 
    111 H111      -52.0201  -26.1193   16.2321 H         1 UNK         0.3133 
    112 H112      -50.9689  -29.4045   16.9123 H         1 UNK         0.0566 
    113 H113      -51.2179  -29.7216   14.4682 H         1 UNK         0.0814 
    114 H114      -52.7916  -29.8097   15.2428 H         1 UNK         0.0814 
    115 H115      -52.3281  -28.3545   14.3699 H         1 UNK         0.0814 
    116 H116      -50.1387  -27.4248   15.0017 H         1 UNK         0.3091 
    117 H117      -47.7532  -25.8351   17.1790 H         1 UNK         0.0702 
    118 H118      -46.3421  -26.4066   15.2264 H         1 UNK         0.0785 
    119 H119      -47.5508  -27.5495   14.6462 H         1 UNK         0.0785 
    120 H120      -46.7012  -27.8540   16.1551 H         1 UNK         0.0785 
    121 H121      -48.5184  -25.2441   14.5016 H         1 UNK         0.2998 
    122 H122      -51.0284  -22.8029   15.3231 H         1 UNK         0.0697 
    123 H123      -48.2184  -22.5950   14.1116 H         1 UNK         0.0825 
    124 H124      -48.7963  -21.6779   15.4975 H         1 UNK         0.0825 
    125 H125      -49.5228  -21.4275   13.9174 H         1 UNK         0.0825 
    126 H126      -50.0553  -23.6586   12.8027 H         1 UNK         0.3029 
    127 H127      -52.3725  -26.3620   12.3107 H         1 UNK         0.0897 
    128 H128      -52.6131  -25.0016   10.2156 H         1 UNK         0.0792 
    129 H129      -53.4510  -24.2611   11.5695 H         1 UNK         0.0792 
    130 H130      -51.9140  -23.6068   11.0356 H         1 UNK         0.0792 
    131 H131      -50.1973  -25.4929   10.7196 H         1 UNK         0.3086 
    132 H132      -47.6720  -27.5975   12.1054 H         1 UNK         0.0583 
    133 H133      -49.4450  -27.9031    9.6218 H         1 UNK         0.1020 
    134 H134      -47.7362  -28.1482    9.5676 H         1 UNK         0.1020 
    135 H135      -50.6482  -31.2197   11.3167 H         1 UNK         0.0694 
    136 H136      -50.7258  -29.6556   12.0781 H         1 UNK         0.0694 
    137 H137      -47.6631  -25.8122    9.8927 H         1 UNK         0.2989 
    138 H138      -46.6125  -22.9195   11.7677 H         1 UNK         0.1055 
    139 H139      -44.6491  -24.3493   11.1131 H         1 UNK         0.0806 
    140 H140      -44.9105  -23.0318    9.9816 H         1 UNK         0.0806 
    141 H141      -45.4047  -24.6685    9.5567 H         1 UNK         0.0806 
    142 H142      -47.2986  -23.1318    9.0223 H         1 UNK         0.3061 
    143 H143      -50.7383  -22.2422    9.2907 H         1 UNK         0.0734 
    144 H144      -49.9521  -20.3814    7.8385 H         1 UNK         0.0832 
    145 H145      -49.5291  -20.1134    9.5219 H         1 UNK         0.0832 
    146 H146      -48.2956  -20.6321    8.3878 H         1 UNK         0.0832 
    147 H147      -50.4436  -23.6247    7.6229 H         1 UNK         0.3156 
    148 H148      -49.6364  -25.0084    6.2063 H         1 UNK         0.0589 
    149 H149      -48.0704  -23.2379    4.2506 H         1 UNK         0.0808 
    150 H150      -49.7921  -23.1033    4.5793 H         1 UNK         0.0808 
    151 H151      -49.1631  -24.5538    3.8163 H         1 UNK         0.0808 
    152 H152      -47.2388  -25.5529    4.9802 H         1 UNK         0.3098 
    153 H153      -45.4373  -26.7019    5.7547 H         1 UNK         0.0720 
    154 H154      -44.5639  -26.4017    8.0598 H         1 UNK         0.0791 
    155 H155      -44.2912  -28.0443    7.5073 H         1 UNK         0.0791 
    156 H156      -45.5815  -27.7051    8.6558 H         1 UNK         0.0791 
    157 H157      -46.9223  -28.9544    6.9857 H         1 UNK         0.3028 
@<TRIPOS>BOND
     1    1    2 1    
     2    1   82 1    
     3    1   83 1    
     4    1   84 1    
     5    2    3 2    
     6    2    4 am   BACKBONE|DICT|INTERRES
     7    4    5 1    
     8    4   85 1    
     9    5    6 1    
    10    5   80 1    
    11    5   86 1    
    12    6    7 1    
    13    6   87 1    
    14    6   88 1    
    15    7    8 1    
    16    8    9 1    
    17    8   89 1    
    18    8   90 1    
    19    9   10 ar   
    20    9   14 ar   
    21   10   11 ar   
    22   10   91 1    
    23   11   12 ar   
    24   11   58 1    
    25   12   13 ar   
    26   12   92 1    
    27   13   14 ar   
    28   13   15 1    
    29   14   93 1    
    30   15   16 1    
    31   15   94 1    
    32   15   95 1    
    33   16   17 1    
    34   17   18 1    
    35   17   96 1    
    36   17   97 1    
    37   18   19 1    
    38   18   22 1    
    39   18   98 1    
    40   19   20 am   BACKBONE|DICT|INTERRES
    41   19   21 2    
    42   20   99 1    
    43   20  100 1    
    44   22   23 am   BACKBONE|DICT|INTERRES
    45   22  101 1    
    46   23   24 2    
    47   23   25 1    
    48   25   26 1    
    49   25   27 1    
    50   25  102 1    
    51   26  103 1    
    52   26  104 1    
    53   26  105 1    
    54   27   28 am   BACKBONE|DICT|INTERRES
    55   27  106 1    
    56   28   29 2    
    57   28   30 1    
    58   30   31 1    
    59   30   32 1    
    60   30  107 1    
    61   31  108 1    
    62   31  109 1    
    63   31  110 1    
    64   32   33 am   BACKBONE|DICT|INTERRES
    65   32  111 1    
    66   33   34 2    
    67   33   35 1    
    68   35   36 1    
    69   35   37 1    
    70   35  112 1    
    71   36  113 1    
    72   36  114 1    
    73   36  115 1    
    74   37   38 am   BACKBONE|DICT|INTERRES
    75   37  116 1    
    76   38   39 2    
    77   38   40 1    
    78   40   41 1    
    79   40   42 1    
    80   40  117 1    
    81   41  118 1    
    82   41  119 1    
    83   41  120 1    
    84   42   43 am   BACKBONE|DICT|INTERRES
    85   42  121 1    
    86   43   44 2    
    87   43   45 1    
    88   45   46 1    
    89   45   47 1    
    90   45  122 1    
    91   46  123 1    
    92   46  124 1    
    93   46  125 1    
    94   47   48 am   BACKBONE|DICT|INTERRES
    95   47  126 1    
    96   48   49 2    
    97   48   50 1    
    98   50   51 1    
    99   50   52 1    
   100   50  127 1    
   101   51  128 1    
   102   51  129 1    
   103   51  130 1    
   104   52   53 am   BACKBONE|DICT|INTERRES
   105   52  131 1    
   106   53   54 2    
   107   53   55 1    
   108   55   56 1    
   109   55   59 1    
   110   55  132 1    
   111   56   57 1    
   112   56  133 1    
   113   56  134 1    
   114   57   58 1    
   115   58  135 1    
   116   58  136 1    
   117   59   60 am   BACKBONE|DICT|INTERRES
   118   59  137 1    
   119   60   61 2    
   120   60   62 1    
   121   62   63 1    
   122   62   64 1    
   123   62  138 1    
   124   63  139 1    
   125   63  140 1    
   126   63  141 1    
   127   64   65 am   BACKBONE|DICT|INTERRES
   128   64  142 1    
   129   65   66 2    
   130   65   67 1    
   131   67   68 1    
   132   67   69 1    
   133   67  143 1    
   134   68  144 1    
   135   68  145 1    
   136   68  146 1    
   137   69   70 am   BACKBONE|DICT|INTERRES
   138   69  147 1    
   139   70   71 2    
   140   70   72 1    
   141   72   73 1    
   142   72   74 1    
   143   72  148 1    
   144   73  149 1    
   145   73  150 1    
   146   73  151 1    
   147   74   75 am   BACKBONE|DICT|INTERRES
   148   74  152 1    
   149   75   76 2    
   150   75   77 1    
   151   77   78 1    
   152   77   79 1    
   153   77  153 1    
   154   78  154 1    
   155   78  155 1    
   156   78  156 1    
   157   79   80 am   BACKBONE|DICT|INTERRES
   158   79  157 1    
   159   80   81 2    
@<TRIPOS>SUBSTRUCTURE
     1 UNK         1 GROUP             0       ****    0 ROOT    
