@<TRIPOS>MOLECULE
3R207
157   159    1
SMALL
USER_CHARGES


@<TRIPOS>ATOM
      1 CA        -46.5852  -31.1719    3.0903 C.3       0 UNK        -0.1975 
      2 C         -47.5366  -29.9867    3.1596 C.2       0 UNK         0.4852 
      3 O         -47.4774  -29.1036    2.3033 O.2       0 UNK        -0.5216 
      4 N         -48.4125  -29.9611    4.1732 N.am      1 UNK        -0.4461 
      5 CA        -49.3964  -28.8982    4.4207 C.3       1 UNK         0.0864 
      6 C6        -50.5342  -29.3582    5.3694 C.3       14 UNK        -0.0898 
      7 S7        -49.9921  -30.3186    6.8305 S.3       14 UNK        -0.2598 
      8 C8        -49.9226  -29.0641    8.1462 C.3       14 UNK         0.0286 
      9 C9        -51.2669  -28.4033    8.4047 C.ar      14 UNK        -0.0844 
     10 C10       -51.4584  -27.0691    8.0420 C.ar      14 UNK        -0.0881 
     11 C11       -52.6762  -26.4330    8.2902 C.ar      14 UNK        -0.0643 
     12 C12       -53.7209  -27.1538    8.8749 C.ar      14 UNK        -0.0930 
     13 C13       -53.5477  -28.4957    9.2295 C.ar      14 UNK        -0.0827 
     14 C14       -52.3118  -29.1123    9.0059 C.ar      14 UNK        -0.1249 
     15 C15       -54.7149  -29.2861    9.8023 C.3       14 UNK         0.0141 
     16 S16       -55.2221  -28.6875   11.4457 S.3       14 UNK        -0.2313 
     17 C17       -56.7895  -29.6065   11.6493 C.3       14 UNK        -0.0915 
     18 CA        -56.7868  -30.6509   12.7955 C.3       13 UNK         0.0968 
     19 C         -55.7821  -31.8161   12.5569 C.2       13 UNK         0.5732 
     20 N         -54.8288  -32.0669   13.4466 N.am      13 UNK        -0.7310 
     21 O         -55.8816  -32.5157   11.5515 O.2       13 UNK        -0.5035 
     22 N         -56.6868  -30.0033   14.1112 N.am      13 UNK        -0.4233 
     23 C         -57.2046  -30.4839   15.2461 C.2       13 UNK         0.4989 
     24 O         -57.8452  -31.5342   15.3083 O.2       13 UNK        -0.4996 
     25 CA        -57.0059  -29.6653   16.5374 C.3       12 UNK         0.0216 
     26 CB        -55.7787  -30.1718   17.3219 C.3       12 UNK        -0.1964 
     27 N         -56.9680  -28.2010   16.3727 N.am      12 UNK        -0.4276 
     28 C         -56.0445  -27.4491   15.7576 C.2       12 UNK         0.5020 
     29 O         -55.0836  -27.9205   15.1462 O.2       12 UNK        -0.5489 
     30 CA        -56.2148  -25.9220   15.8208 C.3       11 UNK         0.0294 
     31 CB        -57.1180  -25.4255   16.9704 C.3       11 UNK        -0.2019 
     32 N         -54.8837  -25.3427   15.9449 N.am      11 UNK        -0.4493 
     33 C         -54.4745  -24.1516   15.5061 C.2       11 UNK         0.4932 
     34 O         -55.2230  -23.3205   14.9908 O.2       11 UNK        -0.5029 
     35 CA        -52.9735  -23.8287   15.6489 C.3       10 UNK         0.0280 
     36 CB        -52.6600  -23.2338   17.0349 C.3       10 UNK        -0.1976 
     37 N         -52.0674  -24.9419   15.3239 N.am      10 UNK        -0.4242 
     38 C         -51.9002  -26.1158   15.9536 C.2       10 UNK         0.5072 
     39 O         -52.5145  -26.4516   16.9674 O.2       10 UNK        -0.5224 
     40 CA        -50.8799  -27.0869   15.3408 C.3       9 UNK         0.0343 
     41 CB        -51.4466  -27.7426   14.0697 C.3       9 UNK        -0.2003 
     42 N         -49.6031  -26.4368   15.0420 N.am      9 UNK        -0.4272 
     43 C         -48.7495  -25.9775   15.9695 C.2       9 UNK         0.4988 
     44 O         -48.9143  -26.1131   17.1826 O.2       9 UNK        -0.5108 
     45 CA        -47.4985  -25.2385   15.4646 C.3       8 UNK         0.0248 
     46 CB        -46.4127  -26.2384   15.0367 C.3       8 UNK        -0.2001 
     47 N         -47.7880  -24.3125   14.3667 N.am      8 UNK        -0.4140 
     48 C         -48.5374  -23.2064   14.4879 C.2       8 UNK         0.5028 
     49 O         -49.0107  -22.8106   15.5536 O.2       8 UNK        -0.5428 
     50 CA        -48.8243  -22.4093   13.2042 C.3       7 UNK         0.0264 
     51 CB        -47.6621  -21.4568   12.8814 C.3       7 UNK        -0.1988 
     52 N         -49.0984  -23.2569   12.0422 N.am      7 UNK        -0.4454 
     53 C         -50.1368  -24.0996   11.9325 C.2       7 UNK         0.5027 
     54 O         -50.9907  -24.2555   12.8060 O.2       7 UNK        -0.5083 
     55 CA        -50.1983  -24.9439   10.6428 C.3       6 UNK         0.0844 
     56 C56       -50.6357  -24.0778    9.4300 C.3       14 UNK        -0.0967 
     57 S57       -52.4464  -23.8776    9.3235 S.3       14 UNK        -0.2604 
     58 C58       -52.8619  -24.9688    7.9263 C.3       14 UNK         0.0134 
     59 N         -48.9323  -25.6473   10.3998 N.am      6 UNK        -0.4116 
     60 C         -48.3366  -26.4935   11.2552 C.2       5 UNK         0.5034 
     61 O         -48.8355  -26.8658   12.3154 O.2       5 UNK        -0.5045 
     62 CA        -46.9059  -26.9440   10.9163 C.3       5 UNK         0.0224 
     63 CB        -46.8924  -28.1856   10.0134 C.3       5 UNK        -0.1978 
     64 N         -46.1203  -25.8709   10.3059 N.am      5 UNK        -0.4737 
     65 C         -45.7027  -24.7809   10.9649 C.2       4 UNK         0.5027 
     66 O         -45.8830  -24.5984   12.1679 O.2       4 UNK        -0.5211 
     67 CA        -45.0186  -23.6903   10.1250 C.3       4 UNK         0.0297 
     68 CB        -43.5374  -24.0296    9.8966 C.3       4 UNK        -0.1993 
     69 N         -45.6850  -23.4845    8.8360 N.am      4 UNK        -0.4486 
     70 C         -46.9348  -23.0181    8.6999 C.2       3 UNK         0.4961 
     71 O         -47.6323  -22.6492    9.6439 O.2       3 UNK        -0.5105 
     72 CA        -47.5239  -23.0060    7.2791 C.3       3 UNK         0.0299 
     73 CB        -47.1913  -21.6838    6.5708 C.3       3 UNK        -0.1972 
     74 N         -47.0768  -24.1344    6.4549 N.am      3 UNK        -0.4305 
     75 C         -47.3515  -25.4227    6.7041 C.2       2 UNK         0.5006 
     76 O         -48.0065  -25.8116    7.6732 O.2       2 UNK        -0.5106 
     77 CA        -46.7129  -26.4458    5.7504 C.3       2 UNK         0.0296 
     78 CB        -45.3809  -26.9479    6.3325 C.3       2 UNK        -0.2002 
     79 N         -47.5648  -27.6003    5.4502 N.am      2 UNK        -0.4032 
     80 C         -48.7652  -27.5535    4.8513 C.2       1 UNK         0.5000 
     81 O         -49.3542  -26.5055    4.5786 O.2       1 UNK        -0.5238 
     82 H82       -46.7200  -31.7063    2.1503 H         1 UNK         0.0889 
     83 H83       -45.5526  -30.8277    3.1420 H         1 UNK         0.0889 
     84 H84       -46.7496  -31.8753    3.9065 H         1 UNK         0.0889 
     85 H85       -48.4273  -30.7175    4.8442 H         1 UNK         0.3028 
     86 H86       -49.8679  -28.6882    3.4577 H         1 UNK         0.0864 
     87 H87       -51.1636  -28.5193    5.6685 H         1 UNK         0.0720 
     88 H88       -51.2014  -30.0150    4.8093 H         1 UNK         0.0720 
     89 H89       -49.1772  -28.3171    7.8751 H         1 UNK         0.0814 
     90 H90       -49.5717  -29.5330    9.0661 H         1 UNK         0.0814 
     91 H91       -50.6519  -26.5251    7.5698 H         1 UNK         0.1469 
     92 H92       -54.6715  -26.6706    9.0556 H         1 UNK         0.1381 
     93 H93       -52.1669  -30.1496    9.2755 H         1 UNK         0.1206 
     94 H94       -54.4704  -30.3474    9.8710 H         1 UNK         0.0813 
     95 H95       -55.5552  -29.2068    9.1111 H         1 UNK         0.0813 
     96 H96       -57.0604  -30.0912   10.7099 H         1 UNK         0.0638 
     97 H97       -57.5781  -28.8741   11.8286 H         1 UNK         0.0638 
     98 H98       -57.7677  -31.1287   12.7578 H         1 UNK         0.0568 
     99 H99       -54.1890  -32.8279   13.2840 H         1 UNK         0.3450 
    100 H100      -54.7356  -31.4918   14.2677 H         1 UNK         0.3450 
    101 H101      -56.0998  -29.1749   14.1707 H         1 UNK         0.2987 
    102 H102      -57.8847  -29.8611   17.1541 H         1 UNK         0.0766 
    103 H103      -54.8495  -30.0221   16.7712 H         1 UNK         0.0798 
    104 H104      -55.6840  -29.6626   18.2810 H         1 UNK         0.0798 
    105 H105      -55.8624  -31.2394   17.5297 H         1 UNK         0.0798 
    106 H106      -57.7350  -27.7088   16.8102 H         1 UNK         0.3198 
    107 H107      -56.6482  -25.6115   14.8678 H         1 UNK         0.0843 
    108 H108      -57.1502  -24.3362   17.0018 H         1 UNK         0.0831 
    109 H109      -56.7627  -25.7711   17.9422 H         1 UNK         0.0831 
    110 H110      -58.1473  -25.7635   16.8467 H         1 UNK         0.0831 
    111 H111      -54.1727  -25.9681   16.3229 H         1 UNK         0.3133 
    112 H112      -52.7507  -23.0589   14.9083 H         1 UNK         0.0566 
    113 H113      -51.6128  -22.9393   17.1090 H         1 UNK         0.0814 
    114 H114      -53.2624  -22.3437   17.2205 H         1 UNK         0.0814 
    115 H115      -52.8683  -23.9390   17.8399 H         1 UNK         0.0814 
    116 H116      -51.5433  -24.8000   14.4606 H         1 UNK         0.3091 
    117 H117      -50.6921  -27.8768   16.0711 H         1 UNK         0.0702 
    118 H118      -50.7707  -28.5052   13.6828 H         1 UNK         0.0785 
    119 H119      -51.6134  -27.0136   13.2755 H         1 UNK         0.0785 
    120 H120      -52.4028  -28.2276   14.2721 H         1 UNK         0.0785 
    121 H121      -49.3588  -26.3472   14.0586 H         1 UNK         0.2998 
    122 H122      -47.1039  -24.6497   16.2954 H         1 UNK         0.0697 
    123 H123      -46.7450  -26.8648   14.2092 H         1 UNK         0.0825 
    124 H124      -46.1479  -26.9018   15.8610 H         1 UNK         0.0825 
    125 H125      -45.5013  -25.7272   14.7261 H         1 UNK         0.0825 
    126 H126      -47.3612  -24.5177   13.4674 H         1 UNK         0.3029 
    127 H127      -49.7173  -21.8076   13.3867 H         1 UNK         0.0897 
    128 H128      -47.8919  -20.8289   12.0203 H         1 UNK         0.0792 
    129 H129      -47.4559  -20.7929   13.7221 H         1 UNK         0.0792 
    130 H130      -46.7431  -22.0009   12.6609 H         1 UNK         0.0792 
    131 H131      -48.4638  -23.1628   11.2513 H         1 UNK         0.3086 
    132 H132      -50.9443  -25.7268   10.7975 H         1 UNK         0.0583 
    133 H133      -50.1887  -23.0829    9.4587 H         1 UNK         0.1020 
    134 H134      -50.2769  -24.5126    8.4984 H         1 UNK         0.1020 
    135 H135      -53.8982  -24.7891    7.6359 H         1 UNK         0.0694 
    136 H136      -52.2539  -24.7073    7.0586 H         1 UNK         0.0694 
    137 H137      -48.4706  -25.4648    9.5141 H         1 UNK         0.2989 
    138 H138      -46.4248  -27.2179   11.8576 H         1 UNK         0.1055 
    139 H139      -47.5176  -28.9776   10.4275 H         1 UNK         0.0806 
    140 H140      -45.8844  -28.5889    9.9160 H         1 UNK         0.0806 
    141 H141      -47.2566  -27.9634    9.0127 H         1 UNK         0.0806 
    142 H142      -45.9716  -25.9212    9.3092 H         1 UNK         0.3061 
    143 H143      -45.0737  -22.7552   10.6868 H         1 UNK         0.0734 
    144 H144      -43.0229  -23.2263    9.3689 H         1 UNK         0.0832 
    145 H145      -43.0211  -24.1722   10.8471 H         1 UNK         0.0832 
    146 H146      -43.4131  -24.9462    9.3186 H         1 UNK         0.0832 
    147 H147      -45.1766  -23.7487    8.0052 H         1 UNK         0.3156 
    148 H148      -48.6093  -23.0743    7.3711 H         1 UNK         0.0589 
    149 H149      -47.5360  -20.8308    7.1574 H         1 UNK         0.0808 
    150 H150      -47.6779  -21.6213    5.5972 H         1 UNK         0.0808 
    151 H151      -46.1180  -21.5620    6.4194 H         1 UNK         0.0808 
    152 H152      -46.5241  -23.9056    5.6407 H         1 UNK         0.3098 
    153 H153      -46.5075  -25.9479    4.8005 H         1 UNK         0.0720 
    154 H154      -44.7055  -26.1188    6.5481 H         1 UNK         0.0791 
    155 H155      -44.8651  -27.6049    5.6317 H         1 UNK         0.0791 
    156 H156      -45.5272  -27.5000    7.2614 H         1 UNK         0.0791 
    157 H157      -47.1750  -28.5106    5.6427 H         1 UNK         0.3028 
@<TRIPOS>BOND
     1    1    2 1    
     2    1   82 1    
     3    1   83 1    
     4    1   84 1    
     5    2    3 2    
     6    2    4 am   BACKBONE|DICT|INTERRES
     7    4    5 1    
     8    4   85 1    
     9    5    6 1    
    10    5   80 1    
    11    5   86 1    
    12    6    7 1    
    13    6   87 1    
    14    6   88 1    
    15    7    8 1    
    16    8    9 1    
    17    8   89 1    
    18    8   90 1    
    19    9   10 ar   
    20    9   14 ar   
    21   10   11 ar   
    22   10   91 1    
    23   11   12 ar   
    24   11   58 1    
    25   12   13 ar   
    26   12   92 1    
    27   13   14 ar   
    28   13   15 1    
    29   14   93 1    
    30   15   16 1    
    31   15   94 1    
    32   15   95 1    
    33   16   17 1    
    34   17   18 1    
    35   17   96 1    
    36   17   97 1    
    37   18   19 1    
    38   18   22 1    
    39   18   98 1    
    40   19   20 am   BACKBONE|DICT|INTERRES
    41   19   21 2    
    42   20   99 1    
    43   20  100 1    
    44   22   23 am   BACKBONE|DICT|INTERRES
    45   22  101 1    
    46   23   24 2    
    47   23   25 1    
    48   25   26 1    
    49   25   27 1    
    50   25  102 1    
    51   26  103 1    
    52   26  104 1    
    53   26  105 1    
    54   27   28 am   BACKBONE|DICT|INTERRES
    55   27  106 1    
    56   28   29 2    
    57   28   30 1    
    58   30   31 1    
    59   30   32 1    
    60   30  107 1    
    61   31  108 1    
    62   31  109 1    
    63   31  110 1    
    64   32   33 am   BACKBONE|DICT|INTERRES
    65   32  111 1    
    66   33   34 2    
    67   33   35 1    
    68   35   36 1    
    69   35   37 1    
    70   35  112 1    
    71   36  113 1    
    72   36  114 1    
    73   36  115 1    
    74   37   38 am   BACKBONE|DICT|INTERRES
    75   37  116 1    
    76   38   39 2    
    77   38   40 1    
    78   40   41 1    
    79   40   42 1    
    80   40  117 1    
    81   41  118 1    
    82   41  119 1    
    83   41  120 1    
    84   42   43 am   BACKBONE|DICT|INTERRES
    85   42  121 1    
    86   43   44 2    
    87   43   45 1    
    88   45   46 1    
    89   45   47 1    
    90   45  122 1    
    91   46  123 1    
    92   46  124 1    
    93   46  125 1    
    94   47   48 am   BACKBONE|DICT|INTERRES
    95   47  126 1    
    96   48   49 2    
    97   48   50 1    
    98   50   51 1    
    99   50   52 1    
   100   50  127 1    
   101   51  128 1    
   102   51  129 1    
   103   51  130 1    
   104   52   53 am   BACKBONE|DICT|INTERRES
   105   52  131 1    
   106   53   54 2    
   107   53   55 1    
   108   55   56 1    
   109   55   59 1    
   110   55  132 1    
   111   56   57 1    
   112   56  133 1    
   113   56  134 1    
   114   57   58 1    
   115   58  135 1    
   116   58  136 1    
   117   59   60 am   BACKBONE|DICT|INTERRES
   118   59  137 1    
   119   60   61 2    
   120   60   62 1    
   121   62   63 1    
   122   62   64 1    
   123   62  138 1    
   124   63  139 1    
   125   63  140 1    
   126   63  141 1    
   127   64   65 am   BACKBONE|DICT|INTERRES
   128   64  142 1    
   129   65   66 2    
   130   65   67 1    
   131   67   68 1    
   132   67   69 1    
   133   67  143 1    
   134   68  144 1    
   135   68  145 1    
   136   68  146 1    
   137   69   70 am   BACKBONE|DICT|INTERRES
   138   69  147 1    
   139   70   71 2    
   140   70   72 1    
   141   72   73 1    
   142   72   74 1    
   143   72  148 1    
   144   73  149 1    
   145   73  150 1    
   146   73  151 1    
   147   74   75 am   BACKBONE|DICT|INTERRES
   148   74  152 1    
   149   75   76 2    
   150   75   77 1    
   151   77   78 1    
   152   77   79 1    
   153   77  153 1    
   154   78  154 1    
   155   78  155 1    
   156   78  156 1    
   157   79   80 am   BACKBONE|DICT|INTERRES
   158   79  157 1    
   159   80   81 2    
@<TRIPOS>SUBSTRUCTURE
     1 UNK         1 GROUP             0       ****    0 ROOT    
