@<TRIPOS>MOLECULE
3R207
157   159    1
SMALL
USER_CHARGES


@<TRIPOS>ATOM
      1 CA        -45.5945  -29.1361    6.1782 C.3       0 UNK        -0.1975 
      2 C         -46.4323  -28.4254    7.2301 C.2       0 UNK         0.4852 
      3 O         -46.1397  -27.2773    7.5600 O.2       0 UNK        -0.5216 
      4 N         -47.4666  -29.1005    7.7499 N.am      1 UNK        -0.4461 
      5 CA        -48.4112  -28.6204    8.7683 C.3       1 UNK         0.0864 
      6 C6        -49.4842  -29.6936    9.0915 C.3       14 UNK        -0.0898 
      7 S7        -50.3402  -30.3101    7.5997 S.3       14 UNK        -0.2598 
      8 C8        -52.0735  -30.3731    8.1464 C.3       14 UNK         0.0286 
      9 C9        -52.7004  -28.9896    8.2112 C.ar      14 UNK        -0.0844 
     10 C10       -53.0414  -28.3185    7.0330 C.ar      14 UNK        -0.0881 
     11 C11       -53.6403  -27.0566    7.0822 C.ar      14 UNK        -0.0643 
     12 C12       -53.9148  -26.4756    8.3250 C.ar      14 UNK        -0.0930 
     13 C13       -53.5595  -27.1286    9.5079 C.ar      14 UNK        -0.0827 
     14 C14       -52.9522  -28.3855    9.4455 C.ar      14 UNK        -0.1249 
     15 C15       -53.7883  -26.4565   10.8522 C.3       14 UNK         0.0141 
     16 S16       -55.5171  -26.5440   11.4189 S.3       14 UNK        -0.2313 
     17 C17       -55.8044  -28.3370   11.6505 C.3       14 UNK        -0.0915 
     18 CA        -55.5155  -28.8888   13.0786 C.3       13 UNK         0.0968 
     19 C         -54.0069  -29.1304   13.3136 C.2       13 UNK         0.5732 
     20 N         -53.4937  -30.2870   12.9191 N.am      13 UNK        -0.7310 
     21 O         -53.2885  -28.2707   13.8178 O.2       13 UNK        -0.5035 
     22 N         -56.0999  -28.0779   14.1541 N.am      13 UNK        -0.4233 
     23 C         -57.4097  -27.9887   14.4134 C.2       13 UNK         0.4989 
     24 O         -58.2706  -28.6191   13.7953 O.2       13 UNK        -0.4996 
     25 CA        -57.8292  -27.0252   15.5436 C.3       12 UNK         0.0216 
     26 CB        -59.3316  -27.1166   15.8910 C.3       12 UNK        -0.1964 
     27 N         -57.0090  -27.1547   16.7539 N.am      12 UNK        -0.4276 
     28 C         -56.8494  -28.2445   17.5187 C.2       12 UNK         0.5020 
     29 O         -57.3924  -29.3321   17.3129 O.2       12 UNK        -0.5489 
     30 CA        -55.8846  -28.0947   18.7101 C.3       11 UNK         0.0294 
     31 CB        -56.4960  -28.6613   20.0036 C.3       11 UNK        -0.2019 
     32 N         -54.6053  -28.7577   18.4479 N.am      11 UNK        -0.4493 
     33 C         -53.7622  -28.4242   17.4629 C.2       11 UNK         0.4932 
     34 O         -53.9504  -27.4723   16.6993 O.2       11 UNK        -0.5029 
     35 CA        -52.5102  -29.3002   17.3061 C.3       10 UNK         0.0280 
     36 CB        -52.8717  -30.7666   17.0023 C.3       10 UNK        -0.1976 
     37 N         -51.7211  -28.7673   16.2045 N.am      10 UNK        -0.4242 
     38 C         -50.3897  -28.7584   16.0865 C.2       10 UNK         0.5072 
     39 O         -49.6214  -29.2531   16.9124 O.2       10 UNK        -0.5224 
     40 CA        -49.8181  -28.0809   14.8286 C.3       9 UNK         0.0343 
     41 CB        -49.5442  -29.1288   13.7371 C.3       9 UNK        -0.2003 
     42 N         -50.7455  -27.0804   14.2986 N.am      9 UNK        -0.4272 
     43 C         -50.7423  -25.7823   14.6162 C.2       9 UNK         0.4988 
     44 O         -49.8792  -25.2363   15.3066 O.2       9 UNK        -0.5108 
     45 CA        -51.9218  -24.9537   14.0785 C.3       8 UNK         0.0248 
     46 CB        -52.6832  -24.2644   15.2231 C.3       8 UNK        -0.2001 
     47 N         -51.4887  -23.9502   13.1047 N.am      8 UNK        -0.4140 
     48 C         -50.9484  -24.2339   11.9129 C.2       8 UNK         0.5028 
     49 O         -50.7434  -25.3807   11.5075 O.2       8 UNK        -0.5428 
     50 CA        -50.5881  -23.0345   11.0224 C.3       7 UNK         0.0264 
     51 CB        -49.2426  -22.4143   11.4312 C.3       7 UNK        -0.1988 
     52 N         -50.5078  -23.4742    9.6309 N.am      7 UNK        -0.4454 
     53 C         -51.5381  -23.4875    8.7774 C.2       7 UNK         0.5027 
     54 O         -52.6200  -22.9524    9.0286 O.2       7 UNK        -0.5083 
     55 CA        -51.3269  -24.2189    7.4276 C.3       6 UNK         0.0844 
     56 C56       -52.5100  -24.0107    6.4410 C.3       14 UNK        -0.0967 
     57 S57       -52.5823  -25.3268    5.1808 S.3       14 UNK        -0.2604 
     58 C58       -53.9832  -26.3247    5.7915 C.3       14 UNK         0.0134 
     59 N         -50.0522  -23.8462    6.8027 N.am      6 UNK        -0.4116 
     60 C         -48.8396  -24.3002    7.1404 C.2       5 UNK         0.5034 
     61 O         -48.6418  -25.1553    8.0085 O.2       5 UNK        -0.5045 
     62 CA        -47.6613  -23.6167    6.4359 C.3       5 UNK         0.0224 
     63 CB        -47.4665  -22.1858    6.9785 C.3       5 UNK        -0.1978 
     64 N         -46.4352  -24.3815    6.6398 N.am      5 UNK        -0.4737 
     65 C         -45.3357  -24.2990    5.8820 C.2       4 UNK         0.5027 
     66 O         -45.2632  -23.6088    4.8631 O.2       4 UNK        -0.5211 
     67 CA        -44.1117  -25.1098    6.3552 C.3       4 UNK         0.0297 
     68 CB        -42.8124  -24.7466    5.6032 C.3       4 UNK        -0.1993 
     69 N         -43.9225  -25.0361    7.8118 N.am      4 UNK        -0.4486 
     70 C         -43.6618  -23.9383    8.5409 C.2       3 UNK         0.4961 
     71 O         -43.4804  -22.8193    8.0574 O.2       3 UNK        -0.5105 
     72 CA        -43.5690  -24.1289   10.0717 C.3       3 UNK         0.0299 
     73 CB        -43.7209  -22.8018   10.8472 C.3       3 UNK        -0.1972 
     74 N         -44.4855  -25.1457   10.6088 N.am      3 UNK        -0.4305 
     75 C         -45.8245  -25.1411   10.5322 C.2       2 UNK         0.5006 
     76 O         -46.4839  -24.2680    9.9688 O.2       2 UNK        -0.5106 
     77 CA        -46.5484  -26.3119   11.2023 C.3       2 UNK         0.0296 
     78 CB        -47.2941  -25.8741   12.4733 C.3       2 UNK        -0.2002 
     79 N         -47.4792  -26.8793   10.2321 N.am      2 UNK        -0.4032 
     80 C         -47.6581  -28.1914   10.0457 C.2       1 UNK         0.5000 
     81 O         -47.2004  -29.0594   10.7945 O.2       1 UNK        -0.5238 
     82 H82       -45.9568  -30.1447    5.9802 H         1 UNK         0.0889 
     83 H83       -44.5588  -29.2056    6.5093 H         1 UNK         0.0889 
     84 H84       -45.6168  -28.5772    5.2431 H         1 UNK         0.0889 
     85 H85       -47.6476  -30.0400    7.4271 H         1 UNK         0.3028 
     86 H86       -48.9231  -27.7491    8.3554 H         1 UNK         0.0864 
     87 H87       -49.0368  -30.5558    9.5897 H         1 UNK         0.0720 
     88 H88       -50.2154  -29.2853    9.7909 H         1 UNK         0.0720 
     89 H89       -52.6400  -30.9889    7.4464 H         1 UNK         0.0814 
     90 H90       -52.1345  -30.8782    9.1119 H         1 UNK         0.0814 
     91 H91       -52.8315  -28.7767    6.0760 H         1 UNK         0.1469 
     92 H92       -54.3866  -25.5047    8.3789 H         1 UNK         0.1381 
     93 H93       -52.6767  -28.8932   10.3597 H         1 UNK         0.1206 
     94 H94       -53.5081  -25.4053   10.7742 H         1 UNK         0.0813 
     95 H95       -53.1269  -26.8830   11.6048 H         1 UNK         0.0813 
     96 H96       -56.8557  -28.5095   11.4175 H         1 UNK         0.0638 
     97 H97       -55.2605  -28.9037   10.8945 H         1 UNK         0.0638 
     98 H98       -55.9869  -29.8713   13.1480 H         1 UNK         0.0568 
     99 H99       -52.5131  -30.4630   13.0572 H         1 UNK         0.3450 
    100 H100      -54.0713  -30.9958   12.4953 H         1 UNK         0.3450 
    101 H101      -55.4287  -27.5766   14.7236 H         1 UNK         0.2987 
    102 H102      -57.6462  -26.0209   15.1584 H         1 UNK         0.0766 
    103 H103      -59.9490  -26.9021   15.0177 H         1 UNK         0.0798 
    104 H104      -59.6051  -26.3975   16.6630 H         1 UNK         0.0798 
    105 H105      -59.6058  -28.1105   16.2461 H         1 UNK         0.0798 
    106 H106      -56.4576  -26.3402   16.9895 H         1 UNK         0.3198 
    107 H107      -55.6863  -27.0329   18.8731 H         1 UNK         0.0843 
    108 H108      -56.6764  -29.7347   19.9316 H         1 UNK         0.0831 
    109 H109      -57.4531  -28.1854   20.2217 H         1 UNK         0.0831 
    110 H110      -55.8460  -28.4865   20.8611 H         1 UNK         0.0831 
    111 H111      -54.3904  -29.5626   19.0185 H         1 UNK         0.3133 
    112 H112      -51.9367  -29.2420   18.2333 H         1 UNK         0.0566 
    113 H113      -53.4922  -30.8498   16.1089 H         1 UNK         0.0814 
    114 H114      -53.4200  -31.2236   17.8265 H         1 UNK         0.0814 
    115 H115      -51.9771  -31.3687   16.8421 H         1 UNK         0.0814 
    116 H116      -52.2797  -28.3060   15.4902 H         1 UNK         0.3091 
    117 H117      -48.8729  -27.6050   15.0979 H         1 UNK         0.0702 
    118 H118      -49.1485  -28.6674   12.8326 H         1 UNK         0.0785 
    119 H119      -50.4481  -29.6729   13.4627 H         1 UNK         0.0785 
    120 H120      -48.8104  -29.8615   14.0752 H         1 UNK         0.0785 
    121 H121      -51.5297  -27.4377   13.7612 H         1 UNK         0.2998 
    122 H122      -52.6233  -25.6225   13.5766 H         1 UNK         0.0697 
    123 H123      -52.0590  -23.5396   15.7472 H         1 UNK         0.0825 
    124 H124      -53.0202  -24.9955   15.9592 H         1 UNK         0.0825 
    125 H125      -53.5689  -23.7455   14.8562 H         1 UNK         0.0825 
    126 H126      -51.5922  -22.9838   13.3778 H         1 UNK         0.3029 
    127 H127      -51.3663  -22.2755   11.1299 H         1 UNK         0.0897 
    128 H128      -48.4189  -23.1156   11.3091 H         1 UNK         0.0792 
    129 H129      -49.2518  -22.0987   12.4752 H         1 UNK         0.0792 
    130 H130      -49.0163  -21.5345   10.8287 H         1 UNK         0.0792 
    131 H131      -49.6860  -24.0137    9.3796 H         1 UNK         0.3086 
    132 H132      -51.2822  -25.2804    7.6823 H         1 UNK         0.0583 
    133 H133      -53.4737  -23.9815    6.9492 H         1 UNK         0.1020 
    134 H134      -52.4287  -23.0444    5.9404 H         1 UNK         0.1020 
    135 H135      -54.8576  -25.6875    5.9333 H         1 UNK         0.0694 
    136 H136      -54.2595  -27.0470    5.0218 H         1 UNK         0.0694 
    137 H137      -50.1121  -23.1268    6.0975 H         1 UNK         0.2989 
    138 H138      -47.8817  -23.5803    5.3666 H         1 UNK         0.1055 
    139 H139      -47.2345  -22.1948    8.0449 H         1 UNK         0.0806 
    140 H140      -48.3622  -21.5788    6.8434 H         1 UNK         0.0806 
    141 H141      -46.6525  -21.6717    6.4673 H         1 UNK         0.0806 
    142 H142      -46.4551  -25.0255    7.4255 H         1 UNK         0.3061 
    143 H143      -44.3285  -26.1519    6.1210 H         1 UNK         0.0734 
    144 H144      -42.5534  -23.6941    5.7211 H         1 UNK         0.0832 
    145 H145      -41.9700  -25.3419    5.9550 H         1 UNK         0.0832 
    146 H146      -42.9170  -24.9347    4.5341 H         1 UNK         0.0832 
    147 H147      -44.1111  -25.8960    8.3095 H         1 UNK         0.3156 
    148 H148      -42.5617  -24.5023   10.2620 H         1 UNK         0.0589 
    149 H149      -42.9487  -22.0875   10.5589 H         1 UNK         0.0808 
    150 H150      -44.6859  -22.3311   10.6559 H         1 UNK         0.0808 
    151 H151      -43.6303  -22.9565   11.9223 H         1 UNK         0.0808 
    152 H152      -44.0404  -25.9177   11.0866 H         1 UNK         0.3098 
    153 H153      -45.8013  -27.0579   11.4822 H         1 UNK         0.0720 
    154 H154      -48.1070  -25.1868   12.2478 H         1 UNK         0.0791 
    155 H155      -46.6232  -25.3734   13.1722 H         1 UNK         0.0791 
    156 H156      -47.7232  -26.7301   12.9917 H         1 UNK         0.0791 
    157 H157      -47.8257  -26.2269    9.5312 H         1 UNK         0.3028 
@<TRIPOS>BOND
     1    1    2 1    
     2    1   82 1    
     3    1   83 1    
     4    1   84 1    
     5    2    3 2    
     6    2    4 am   BACKBONE|DICT|INTERRES
     7    4    5 1    
     8    4   85 1    
     9    5    6 1    
    10    5   80 1    
    11    5   86 1    
    12    6    7 1    
    13    6   87 1    
    14    6   88 1    
    15    7    8 1    
    16    8    9 1    
    17    8   89 1    
    18    8   90 1    
    19    9   10 ar   
    20    9   14 ar   
    21   10   11 ar   
    22   10   91 1    
    23   11   12 ar   
    24   11   58 1    
    25   12   13 ar   
    26   12   92 1    
    27   13   14 ar   
    28   13   15 1    
    29   14   93 1    
    30   15   16 1    
    31   15   94 1    
    32   15   95 1    
    33   16   17 1    
    34   17   18 1    
    35   17   96 1    
    36   17   97 1    
    37   18   19 1    
    38   18   22 1    
    39   18   98 1    
    40   19   20 am   BACKBONE|DICT|INTERRES
    41   19   21 2    
    42   20   99 1    
    43   20  100 1    
    44   22   23 am   BACKBONE|DICT|INTERRES
    45   22  101 1    
    46   23   24 2    
    47   23   25 1    
    48   25   26 1    
    49   25   27 1    
    50   25  102 1    
    51   26  103 1    
    52   26  104 1    
    53   26  105 1    
    54   27   28 am   BACKBONE|DICT|INTERRES
    55   27  106 1    
    56   28   29 2    
    57   28   30 1    
    58   30   31 1    
    59   30   32 1    
    60   30  107 1    
    61   31  108 1    
    62   31  109 1    
    63   31  110 1    
    64   32   33 am   BACKBONE|DICT|INTERRES
    65   32  111 1    
    66   33   34 2    
    67   33   35 1    
    68   35   36 1    
    69   35   37 1    
    70   35  112 1    
    71   36  113 1    
    72   36  114 1    
    73   36  115 1    
    74   37   38 am   BACKBONE|DICT|INTERRES
    75   37  116 1    
    76   38   39 2    
    77   38   40 1    
    78   40   41 1    
    79   40   42 1    
    80   40  117 1    
    81   41  118 1    
    82   41  119 1    
    83   41  120 1    
    84   42   43 am   BACKBONE|DICT|INTERRES
    85   42  121 1    
    86   43   44 2    
    87   43   45 1    
    88   45   46 1    
    89   45   47 1    
    90   45  122 1    
    91   46  123 1    
    92   46  124 1    
    93   46  125 1    
    94   47   48 am   BACKBONE|DICT|INTERRES
    95   47  126 1    
    96   48   49 2    
    97   48   50 1    
    98   50   51 1    
    99   50   52 1    
   100   50  127 1    
   101   51  128 1    
   102   51  129 1    
   103   51  130 1    
   104   52   53 am   BACKBONE|DICT|INTERRES
   105   52  131 1    
   106   53   54 2    
   107   53   55 1    
   108   55   56 1    
   109   55   59 1    
   110   55  132 1    
   111   56   57 1    
   112   56  133 1    
   113   56  134 1    
   114   57   58 1    
   115   58  135 1    
   116   58  136 1    
   117   59   60 am   BACKBONE|DICT|INTERRES
   118   59  137 1    
   119   60   61 2    
   120   60   62 1    
   121   62   63 1    
   122   62   64 1    
   123   62  138 1    
   124   63  139 1    
   125   63  140 1    
   126   63  141 1    
   127   64   65 am   BACKBONE|DICT|INTERRES
   128   64  142 1    
   129   65   66 2    
   130   65   67 1    
   131   67   68 1    
   132   67   69 1    
   133   67  143 1    
   134   68  144 1    
   135   68  145 1    
   136   68  146 1    
   137   69   70 am   BACKBONE|DICT|INTERRES
   138   69  147 1    
   139   70   71 2    
   140   70   72 1    
   141   72   73 1    
   142   72   74 1    
   143   72  148 1    
   144   73  149 1    
   145   73  150 1    
   146   73  151 1    
   147   74   75 am   BACKBONE|DICT|INTERRES
   148   74  152 1    
   149   75   76 2    
   150   75   77 1    
   151   77   78 1    
   152   77   79 1    
   153   77  153 1    
   154   78  154 1    
   155   78  155 1    
   156   78  156 1    
   157   79   80 am   BACKBONE|DICT|INTERRES
   158   79  157 1    
   159   80   81 2    
@<TRIPOS>SUBSTRUCTURE
     1 UNK         1 GROUP             0       ****    0 ROOT    
