@<TRIPOS>MOLECULE
3R207
157   159    1
SMALL
USER_CHARGES


@<TRIPOS>ATOM
      1 CA        -46.5801  -28.0605    7.8531 C.3       0 UNK        -0.1975 
      2 C         -47.0192  -28.7512    6.5730 C.2       0 UNK         0.4852 
      3 O         -46.2239  -28.8783    5.6399 O.2       0 UNK        -0.5216 
      4 N         -48.2835  -29.1883    6.5086 N.am      1 UNK        -0.4461 
      5 CA        -48.8835  -29.8852    5.3646 C.3       1 UNK         0.0864 
      6 C6        -50.0954  -30.7545    5.7869 C.3       14 UNK        -0.0898 
      7 S7        -49.6310  -32.0439    6.9927 S.3       14 UNK        -0.2598 
      8 C8        -50.9658  -31.9136    8.2248 C.3       14 UNK         0.0286 
      9 C9        -50.8643  -30.6478    9.0648 C.ar      14 UNK        -0.0844 
     10 C10       -49.9074  -30.5527   10.0806 C.ar      14 UNK        -0.0881 
     11 C11       -49.8347  -29.4082   10.8802 C.ar      14 UNK        -0.0643 
     12 C12       -50.7289  -28.3566   10.6620 C.ar      14 UNK        -0.0930 
     13 C13       -51.6867  -28.4390    9.6478 C.ar      14 UNK        -0.0827 
     14 C14       -51.7476  -29.5849    8.8499 C.ar      14 UNK        -0.1249 
     15 C15       -52.6481  -27.2862    9.4115 C.3       14 UNK         0.0141 
     16 S16       -54.3199  -27.6719   10.0098 S.3       14 UNK        -0.2313 
     17 C17       -55.0592  -26.0037   10.0002 C.3       14 UNK        -0.0915 
     18 CA        -55.0064  -25.3412   11.4075 C.3       13 UNK         0.0968 
     19 C         -55.3793  -23.8273   11.4010 C.2       13 UNK         0.5732 
     20 N         -55.9469  -23.2804   12.4713 N.am      13 UNK        -0.7310 
     21 O         -55.1206  -23.1242   10.4274 O.2       13 UNK        -0.5035 
     22 N         -55.6963  -26.1277   12.4415 N.am      13 UNK        -0.4233 
     23 C         -57.0141  -26.3665   12.5210 C.2       13 UNK         0.4989 
     24 O         -57.8309  -26.0235   11.6654 O.2       13 UNK        -0.4996 
     25 CA        -57.5262  -27.0884   13.7849 C.3       12 UNK         0.0216 
     26 CB        -57.7692  -28.5772   13.4877 C.3       12 UNK        -0.1964 
     27 N         -56.6350  -26.9704   14.9441 N.am      12 UNK        -0.4276 
     28 C         -56.2666  -25.8218   15.5302 C.2       12 UNK         0.5020 
     29 O         -56.7233  -24.7197   15.2214 O.2       12 UNK        -0.5489 
     30 CA        -55.1591  -25.9068   16.5980 C.3       11 UNK         0.0294 
     31 CB        -55.7743  -25.9317   18.0064 C.3       11 UNK        -0.2019 
     32 N         -54.2288  -27.0380   16.4548 N.am      11 UNK        -0.4493 
     33 C         -53.5045  -27.3257   15.3630 C.2       11 UNK         0.4932 
     34 O         -53.6084  -26.7298   14.2902 O.2       11 UNK        -0.5029 
     35 CA        -52.4691  -28.4423   15.5189 C.3       10 UNK         0.0280 
     36 CB        -51.9098  -28.9260   14.1656 C.3       10 UNK        -0.1976 
     37 N         -51.3824  -27.9412   16.3565 N.am      10 UNK        -0.4242 
     38 C         -50.5743  -28.6993   17.1101 C.2       10 UNK         0.5072 
     39 O         -50.7159  -29.9173   17.2334 O.2       10 UNK        -0.5224 
     40 CA        -49.4069  -28.0088   17.8449 C.3       9 UNK         0.0343 
     41 CB        -48.0802  -28.7463   17.5865 C.3       9 UNK        -0.2003 
     42 N         -49.2443  -26.6152   17.4285 N.am      9 UNK        -0.4272 
     43 C         -49.4228  -25.5378   18.2063 C.2       9 UNK         0.4988 
     44 O         -49.6987  -25.5962   19.4050 O.2       9 UNK        -0.5108 
     45 CA        -49.2834  -24.1512   17.5404 C.3       8 UNK         0.0248 
     46 CB        -47.8907  -23.5625   17.8180 C.3       8 UNK        -0.2001 
     47 N         -49.5227  -24.1561   16.0926 N.am      8 UNK        -0.4140 
     48 C         -50.6736  -24.5221   15.5105 C.2       8 UNK         0.5028 
     49 O         -51.6903  -24.7924   16.1468 O.2       8 UNK        -0.5428 
     50 CA        -50.6803  -24.6928   13.9784 C.3       7 UNK         0.0264 
     51 CB        -51.3388  -23.4758   13.3132 C.3       7 UNK        -0.1988 
     52 N         -49.3640  -24.9502   13.3701 N.am      7 UNK        -0.4454 
     53 C         -48.5505  -25.9725   13.6914 C.2       7 UNK         0.5027 
     54 O         -48.8306  -26.7900   14.5692 O.2       7 UNK        -0.5083 
     55 CA        -47.1900  -26.0867   12.9676 C.3       6 UNK         0.0844 
     56 C56       -46.6949  -27.5550   12.8111 C.3       14 UNK        -0.0967 
     57 S57       -47.3292  -28.4140   11.3296 S.3       14 UNK        -0.2604 
     58 C58       -48.7829  -29.2910   11.9700 C.3       14 UNK         0.0134 
     59 N         -47.1792  -25.3618   11.6943 N.am      6 UNK        -0.4116 
     60 C         -46.6820  -24.1394   11.4788 C.2       5 UNK         0.5034 
     61 O         -46.1744  -23.4360   12.3521 O.2       5 UNK        -0.5045 
     62 CA        -46.7871  -23.6075   10.0388 C.3       5 UNK         0.0224 
     63 CB        -45.5370  -23.9913    9.2307 C.3       5 UNK        -0.1978 
     64 N         -47.9813  -24.0757    9.3255 N.am      5 UNK        -0.4737 
     65 C         -49.2406  -23.7369    9.6283 C.2       4 UNK         0.5027 
     66 O         -49.5285  -23.0170   10.5840 O.2       4 UNK        -0.5211 
     67 CA        -50.3511  -24.2892    8.7090 C.3       4 UNK         0.0297 
     68 CB        -51.7359  -23.6903    9.0211 C.3       4 UNK        -0.1993 
     69 N         -50.0637  -24.0825    7.2856 N.am      4 UNK        -0.4486 
     70 C         -49.2323  -24.8302    6.5532 C.2       3 UNK         0.4961 
     71 O         -48.5711  -25.7639    7.0135 O.2       3 UNK        -0.5105 
     72 CA        -49.0792  -24.4520    5.0781 C.3       3 UNK         0.0299 
     73 CB        -48.0667  -23.3060    4.9043 C.3       3 UNK        -0.1972 
     74 N         -48.6177  -25.6376    4.3680 N.am      3 UNK        -0.4305 
     75 C         -48.8156  -25.9167    3.0756 C.2       2 UNK         0.5006 
     76 O         -49.3693  -25.1503    2.2861 O.2       2 UNK        -0.5106 
     77 CA        -48.3136  -27.2826    2.5708 C.3       2 UNK         0.0296 
     78 CB        -46.9486  -27.1300    1.8798 C.3       2 UNK        -0.2002 
     79 N         -48.2051  -28.2930    3.6283 N.am      2 UNK        -0.4032 
     80 C         -49.2389  -28.8866    4.2406 C.2       1 UNK         0.5000 
     81 O         -50.4176  -28.6552    3.9620 O.2       1 UNK        -0.5238 
     82 H82       -47.4363  -27.7947    8.4721 H         1 UNK         0.0889 
     83 H83       -46.0401  -27.1435    7.6198 H         1 UNK         0.0889 
     84 H84       -45.9240  -28.7112    8.4301 H         1 UNK         0.0889 
     85 H85       -48.8976  -29.0468    7.2988 H         1 UNK         0.3028 
     86 H86       -48.1353  -30.5643    4.9491 H         1 UNK         0.0864 
     87 H87       -50.5243  -31.2583    4.9186 H         1 UNK         0.0720 
     88 H88       -50.8891  -30.1284    6.1964 H         1 UNK         0.0720 
     89 H89       -50.9203  -32.7828    8.8826 H         1 UNK         0.0814 
     90 H90       -51.9314  -31.9691    7.7195 H         1 UNK         0.0814 
     91 H91       -49.2175  -31.3692   10.2455 H         1 UNK         0.1469 
     92 H92       -50.6722  -27.4714   11.2806 H         1 UNK         0.1381 
     93 H93       -52.4948  -29.6516    8.0708 H         1 UNK         0.1206 
     94 H94       -52.6839  -27.0414    8.3488 H         1 UNK         0.0813 
     95 H95       -52.2922  -26.3950    9.9280 H         1 UNK         0.0813 
     96 H96       -54.5358  -25.3957    9.2606 H         1 UNK         0.0638 
     97 H97       -56.0879  -26.0811    9.6466 H         1 UNK         0.0638 
     98 H98       -53.9599  -25.3423   11.7148 H         1 UNK         0.0568 
     99 H99       -56.1627  -23.8366   13.2891 H         1 UNK         0.3450 
    100 H100      -56.1723  -22.2988   12.4584 H         1 UNK         0.3450 
    101 H101      -55.0923  -26.4397   13.1978 H         1 UNK         0.2987 
    102 H102      -58.4795  -26.6298   14.0556 H         1 UNK         0.0766 
    103 H103      -58.2112  -29.0879   14.3435 H         1 UNK         0.0798 
    104 H104      -56.8437  -29.0925   13.2269 H         1 UNK         0.0798 
    105 H105      -58.4567  -28.7004   12.6495 H         1 UNK         0.0798 
    106 H106      -56.1974  -27.8204   15.2684 H         1 UNK         0.3198 
    107 H107      -54.5624  -24.9967   16.5034 H         1 UNK         0.0843 
    108 H108      -56.3469  -26.8434   18.1813 H         1 UNK         0.0831 
    109 H109      -56.4519  -25.0888   18.1514 H         1 UNK         0.0831 
    110 H110      -55.0067  -25.8614   18.7773 H         1 UNK         0.0831 
    111 H111      -54.0584  -27.5811   17.2894 H         1 UNK         0.3133 
    112 H112      -52.9621  -29.2818   16.0133 H         1 UNK         0.0566 
    113 H113      -51.2198  -29.7599   14.2932 H         1 UNK         0.0814 
    114 H114      -52.7101  -29.2638   13.5058 H         1 UNK         0.0814 
    115 H115      -51.3768  -28.1279   13.6488 H         1 UNK         0.0814 
    116 H116      -51.2569  -26.9348   16.3528 H         1 UNK         0.3091 
    117 H117      -49.6290  -28.0664   18.9122 H         1 UNK         0.0702 
    118 H118      -48.1300  -29.7813   17.9271 H         1 UNK         0.0785 
    119 H119      -47.8314  -28.7620   16.5243 H         1 UNK         0.0785 
    120 H120      -47.2543  -28.2725   18.1172 H         1 UNK         0.0785 
    121 H121      -49.0299  -26.4858   16.4423 H         1 UNK         0.2998 
    122 H122      -50.0301  -23.4968   17.9952 H         1 UNK         0.0697 
    123 H123      -47.1003  -24.1644   17.3675 H         1 UNK         0.0825 
    124 H124      -47.6933  -23.5165   18.8901 H         1 UNK         0.0825 
    125 H125      -47.8032  -22.5468   17.4318 H         1 UNK         0.0825 
    126 H126      -48.7353  -23.9416   15.4987 H         1 UNK         0.3029 
    127 H127      -51.3001  -25.5652   13.7655 H         1 UNK         0.0897 
    128 H128      -51.5201  -23.6567   12.2560 H         1 UNK         0.0792 
    129 H129      -50.7217  -22.5810   13.4018 H         1 UNK         0.0792 
    130 H130      -52.3068  -23.2558   13.7668 H         1 UNK         0.0792 
    131 H131      -49.0703  -24.3064   12.6468 H         1 UNK         0.3086 
    132 H132      -46.4860  -25.6023   13.6472 H         1 UNK         0.0583 
    133 H133      -45.6084  -27.5397   12.7131 H         1 UNK         0.1020 
    134 H134      -46.8820  -28.1556   13.7035 H         1 UNK         0.1020 
    135 H135      -48.4838  -30.2761   12.3310 H         1 UNK         0.0694 
    136 H136      -49.1988  -28.7626   12.8268 H         1 UNK         0.0694 
    137 H137      -47.5712  -25.8627   10.9097 H         1 UNK         0.2989 
    138 H138      -46.8381  -22.5179   10.0983 H         1 UNK         0.1055 
    139 H139      -44.6306  -23.6292    9.7182 H         1 UNK         0.0806 
    140 H140      -45.5613  -23.5562    8.2313 H         1 UNK         0.0806 
    141 H141      -45.4402  -25.0725    9.1239 H         1 UNK         0.0806 
    142 H142      -47.8448  -24.6853    8.5245 H         1 UNK         0.3061 
    143 H143      -50.4015  -25.3636    8.8955 H         1 UNK         0.0734 
    144 H144      -52.5045  -24.0982    8.3646 H         1 UNK         0.0832 
    145 H145      -52.0422  -23.9116   10.0426 H         1 UNK         0.0832 
    146 H146      -51.7416  -22.6054    8.9091 H         1 UNK         0.0832 
    147 H147      -50.5276  -23.3011    6.8440 H         1 UNK         0.3156 
    148 H148      -50.0549  -24.1511    4.6905 H         1 UNK         0.0589 
    149 H149      -47.0826  -23.5774    5.2889 H         1 UNK         0.0808 
    150 H150      -47.9516  -23.0337    3.8550 H         1 UNK         0.0808 
    151 H151      -48.3901  -22.4105    5.4364 H         1 UNK         0.0808 
    152 H152      -48.1960  -26.3337    4.9704 H         1 UNK         0.3098 
    153 H153      -49.0329  -27.6418    1.8317 H         1 UNK         0.0720 
    154 H154      -46.6160  -28.0730    1.4453 H         1 UNK         0.0791 
    155 H155      -46.1800  -26.7904    2.5754 H         1 UNK         0.0791 
    156 H156      -47.0002  -26.4017    1.0691 H         1 UNK         0.0791 
    157 H157      -47.2748  -28.5046    3.9781 H         1 UNK         0.3028 
@<TRIPOS>BOND
     1    1    2 1    
     2    1   82 1    
     3    1   83 1    
     4    1   84 1    
     5    2    3 2    
     6    2    4 am   BACKBONE|DICT|INTERRES
     7    4    5 1    
     8    4   85 1    
     9    5    6 1    
    10    5   80 1    
    11    5   86 1    
    12    6    7 1    
    13    6   87 1    
    14    6   88 1    
    15    7    8 1    
    16    8    9 1    
    17    8   89 1    
    18    8   90 1    
    19    9   10 ar   
    20    9   14 ar   
    21   10   11 ar   
    22   10   91 1    
    23   11   12 ar   
    24   11   58 1    
    25   12   13 ar   
    26   12   92 1    
    27   13   14 ar   
    28   13   15 1    
    29   14   93 1    
    30   15   16 1    
    31   15   94 1    
    32   15   95 1    
    33   16   17 1    
    34   17   18 1    
    35   17   96 1    
    36   17   97 1    
    37   18   19 1    
    38   18   22 1    
    39   18   98 1    
    40   19   20 am   BACKBONE|DICT|INTERRES
    41   19   21 2    
    42   20   99 1    
    43   20  100 1    
    44   22   23 am   BACKBONE|DICT|INTERRES
    45   22  101 1    
    46   23   24 2    
    47   23   25 1    
    48   25   26 1    
    49   25   27 1    
    50   25  102 1    
    51   26  103 1    
    52   26  104 1    
    53   26  105 1    
    54   27   28 am   BACKBONE|DICT|INTERRES
    55   27  106 1    
    56   28   29 2    
    57   28   30 1    
    58   30   31 1    
    59   30   32 1    
    60   30  107 1    
    61   31  108 1    
    62   31  109 1    
    63   31  110 1    
    64   32   33 am   BACKBONE|DICT|INTERRES
    65   32  111 1    
    66   33   34 2    
    67   33   35 1    
    68   35   36 1    
    69   35   37 1    
    70   35  112 1    
    71   36  113 1    
    72   36  114 1    
    73   36  115 1    
    74   37   38 am   BACKBONE|DICT|INTERRES
    75   37  116 1    
    76   38   39 2    
    77   38   40 1    
    78   40   41 1    
    79   40   42 1    
    80   40  117 1    
    81   41  118 1    
    82   41  119 1    
    83   41  120 1    
    84   42   43 am   BACKBONE|DICT|INTERRES
    85   42  121 1    
    86   43   44 2    
    87   43   45 1    
    88   45   46 1    
    89   45   47 1    
    90   45  122 1    
    91   46  123 1    
    92   46  124 1    
    93   46  125 1    
    94   47   48 am   BACKBONE|DICT|INTERRES
    95   47  126 1    
    96   48   49 2    
    97   48   50 1    
    98   50   51 1    
    99   50   52 1    
   100   50  127 1    
   101   51  128 1    
   102   51  129 1    
   103   51  130 1    
   104   52   53 am   BACKBONE|DICT|INTERRES
   105   52  131 1    
   106   53   54 2    
   107   53   55 1    
   108   55   56 1    
   109   55   59 1    
   110   55  132 1    
   111   56   57 1    
   112   56  133 1    
   113   56  134 1    
   114   57   58 1    
   115   58  135 1    
   116   58  136 1    
   117   59   60 am   BACKBONE|DICT|INTERRES
   118   59  137 1    
   119   60   61 2    
   120   60   62 1    
   121   62   63 1    
   122   62   64 1    
   123   62  138 1    
   124   63  139 1    
   125   63  140 1    
   126   63  141 1    
   127   64   65 am   BACKBONE|DICT|INTERRES
   128   64  142 1    
   129   65   66 2    
   130   65   67 1    
   131   67   68 1    
   132   67   69 1    
   133   67  143 1    
   134   68  144 1    
   135   68  145 1    
   136   68  146 1    
   137   69   70 am   BACKBONE|DICT|INTERRES
   138   69  147 1    
   139   70   71 2    
   140   70   72 1    
   141   72   73 1    
   142   72   74 1    
   143   72  148 1    
   144   73  149 1    
   145   73  150 1    
   146   73  151 1    
   147   74   75 am   BACKBONE|DICT|INTERRES
   148   74  152 1    
   149   75   76 2    
   150   75   77 1    
   151   77   78 1    
   152   77   79 1    
   153   77  153 1    
   154   78  154 1    
   155   78  155 1    
   156   78  156 1    
   157   79   80 am   BACKBONE|DICT|INTERRES
   158   79  157 1    
   159   80   81 2    
@<TRIPOS>SUBSTRUCTURE
     1 UNK         1 GROUP             0       ****    0 ROOT    
