@<TRIPOS>MOLECULE
3R207
157   159    1
SMALL
USER_CHARGES


@<TRIPOS>ATOM
      1 CA        -48.3801  -22.3998    5.5485 C.3       0 UNK        -0.1975 
      2 C         -48.9589  -23.7239    5.0723 C.2       0 UNK         0.4852 
      3 O         -49.1963  -23.8832    3.8747 O.2       0 UNK        -0.5216 
      4 N         -49.1834  -24.6543    6.0089 N.am      1 UNK        -0.4461 
      5 CA        -49.6354  -26.0373    5.8347 C.3       1 UNK         0.0864 
      6 C6        -50.8481  -26.2081    4.8801 C.3       14 UNK        -0.0898 
      7 S7        -51.8893  -27.6325    5.3429 S.3       14 UNK        -0.2598 
      8 C8        -53.2967  -26.8116    6.1581 C.3       14 UNK         0.0286 
      9 C9        -52.9041  -26.1933    7.4930 C.ar      14 UNK        -0.0844 
     10 C10       -52.6049  -24.8302    7.5828 C.ar      14 UNK        -0.0881 
     11 C11       -52.2634  -24.2556    8.8109 C.ar      14 UNK        -0.0643 
     12 C12       -52.2338  -25.0552    9.9579 C.ar      14 UNK        -0.0930 
     13 C13       -52.5070  -26.4238    9.8763 C.ar      14 UNK        -0.0827 
     14 C14       -52.8492  -26.9857    8.6429 C.ar      14 UNK        -0.1249 
     15 C15       -52.3964  -27.3024   11.1115 C.3       14 UNK         0.0141 
     16 S16       -53.8265  -27.1162   12.2165 S.3       14 UNK        -0.2313 
     17 C17       -53.4007  -28.3606   13.4792 C.3       14 UNK        -0.0915 
     18 CA        -54.3584  -29.5793   13.4418 C.3       13 UNK         0.0968 
     19 C         -53.7294  -30.8324   14.1216 C.2       13 UNK         0.5732 
     20 N         -54.3359  -31.4379   15.1365 N.am      13 UNK        -0.7310 
     21 O         -52.6659  -31.2819   13.7019 O.2       13 UNK        -0.5035 
     22 N         -55.6864  -29.2176   13.9565 N.am      13 UNK        -0.4233 
     23 C         -56.8268  -29.8393   13.6306 C.2       13 UNK         0.4989 
     24 O         -56.9024  -30.7135   12.7651 O.2       13 UNK        -0.4996 
     25 CA        -58.0927  -29.4215   14.4128 C.3       12 UNK         0.0216 
     26 CB        -59.1883  -30.5094   14.3924 C.3       12 UNK        -0.1964 
     27 N         -57.8201  -28.9945   15.7943 N.am      12 UNK        -0.4276 
     28 C         -57.2001  -29.7053   16.7477 C.2       12 UNK         0.5020 
     29 O         -56.7841  -30.8564   16.5973 O.2       12 UNK        -0.5489 
     30 CA        -56.9533  -28.9895   18.0849 C.3       11 UNK         0.0294 
     31 CB        -57.6871  -29.7025   19.2326 C.3       11 UNK        -0.2019 
     32 N         -55.5216  -28.9180   18.3890 N.am      11 UNK        -0.4493 
     33 C         -54.6180  -28.2559   17.6545 C.2       11 UNK         0.4932 
     34 O         -54.8957  -27.6241   16.6320 O.2       11 UNK        -0.5029 
     35 CA        -53.1595  -28.3342   18.1317 C.3       10 UNK         0.0280 
     36 CB        -52.3695  -29.3699   17.3174 C.3       10 UNK        -0.1976 
     37 N         -52.5134  -27.0284   18.0096 N.am      10 UNK        -0.4242 
     38 C         -52.6653  -26.0304   18.8942 C.2       10 UNK         0.5072 
     39 O         -53.2896  -26.1458   19.9505 O.2       10 UNK        -0.5224 
     40 CA        -52.0151  -24.6720   18.5635 C.3       9 UNK         0.0343 
     41 CB        -50.6499  -24.5448   19.2588 C.3       9 UNK        -0.2003 
     42 N         -51.8437  -24.4532   17.1275 N.am      9 UNK        -0.4272 
     43 C         -52.8461  -24.2720   16.2572 C.2       9 UNK         0.4988 
     44 O         -54.0175  -24.1022   16.5972 O.2       9 UNK        -0.5108 
     45 CA        -52.4990  -24.2906   14.7558 C.3       8 UNK         0.0248 
     46 CB        -52.7324  -22.9092   14.1206 C.3       8 UNK        -0.2001 
     47 N         -51.1419  -24.7386   14.4189 N.am      8 UNK        -0.4140 
     48 C         -50.6129  -25.9495   14.6421 C.2       8 UNK         0.5028 
     49 O         -51.1664  -26.8101   15.3273 O.2       8 UNK        -0.5428 
     50 CA        -49.2394  -26.2423   13.9947 C.3       7 UNK         0.0264 
     51 CB        -48.9229  -27.7498   13.9669 C.3       7 UNK        -0.1988 
     52 N         -49.1236  -25.7109   12.6285 N.am      7 UNK        -0.4454 
     53 C         -48.9188  -24.4264   12.3095 C.2       7 UNK         0.5027 
     54 O         -48.7455  -23.5401   13.1474 O.2       7 UNK        -0.5083 
     55 CA        -48.9494  -24.0671   10.8191 C.3       6 UNK         0.0844 
     56 C56       -49.6650  -22.7120   10.5792 C.3       14 UNK        -0.0967 
     57 S57       -50.1403  -22.4638    8.8358 S.3       14 UNK        -0.2604 
     58 C58       -51.9370  -22.7707    8.8907 C.3       14 UNK         0.0134 
     59 N         -47.5672  -24.0662   10.3495 N.am      6 UNK        -0.4116 
     60 C         -47.1382  -24.7050    9.2578 C.2       5 UNK         0.5034 
     61 O         -47.8776  -25.3280    8.4932 O.2       5 UNK        -0.5045 
     62 CA        -45.6260  -24.6691    8.9978 C.3       5 UNK         0.0224 
     63 CB        -44.9107  -25.7297    9.8511 C.3       5 UNK        -0.1978 
     64 N         -45.3559  -24.9412    7.5864 N.am      5 UNK        -0.4737 
     65 C         -45.1850  -24.0002    6.6486 C.2       4 UNK         0.5027 
     66 O         -45.1629  -22.7951    6.9023 O.2       4 UNK        -0.5211 
     67 CA        -45.0442  -24.4587    5.1812 C.3       4 UNK         0.0297 
     68 CB        -44.0425  -23.5965    4.3839 C.3       4 UNK        -0.1993 
     69 N         -44.7676  -25.8913    5.0236 N.am      4 UNK        -0.4486 
     70 C         -43.6648  -26.5633    5.3938 C.2       3 UNK         0.4961 
     71 O         -42.6581  -26.0252    5.8566 O.2       3 UNK        -0.5105 
     72 CA        -43.6994  -28.1008    5.2337 C.3       3 UNK         0.0299 
     73 CB        -42.7901  -28.8193    6.2540 C.3       3 UNK        -0.1972 
     74 N         -45.0552  -28.6711    5.2598 N.am      3 UNK        -0.4305 
     75 C         -45.9519  -28.5649    6.2516 C.2       2 UNK         0.5006 
     76 O         -45.7370  -27.9979    7.3243 O.2       2 UNK        -0.5106 
     77 CA        -47.3492  -29.1410    5.9693 C.3       2 UNK         0.0296 
     78 CB        -47.6459  -30.3320    6.8948 C.3       2 UNK        -0.2002 
     79 N         -48.3948  -28.1270    6.1312 N.am      2 UNK        -0.4032 
     80 C         -48.4575  -26.9622    5.4687 C.2       1 UNK         0.5000 
     81 O         -47.6451  -26.6284    4.5998 O.2       1 UNK        -0.5238 
     82 H82       -49.1322  -21.6145    5.4783 H         1 UNK         0.0889 
     83 H83       -47.5282  -22.1148    4.9316 H         1 UNK         0.0889 
     84 H84       -48.0402  -22.4538    6.5829 H         1 UNK         0.0889 
     85 H85       -48.9027  -24.4594    6.9652 H         1 UNK         0.3028 
     86 H86       -49.9612  -26.3133    6.8396 H         1 UNK         0.0864 
     87 H87       -50.5235  -26.3265    3.8444 H         1 UNK         0.0720 
     88 H88       -51.4677  -25.3111    4.8865 H         1 UNK         0.0720 
     89 H89       -54.0862  -27.5475    6.3179 H         1 UNK         0.0814 
     90 H90       -53.7198  -26.0581    5.4918 H         1 UNK         0.0814 
     91 H91       -52.6368  -24.2133    6.6954 H         1 UNK         0.1469 
     92 H92       -51.9842  -24.6183   10.9142 H         1 UNK         0.1381 
     93 H93       -53.0671  -28.0429    8.5738 H         1 UNK         0.1206 
     94 H94       -51.4883  -27.0497   11.6584 H         1 UNK         0.0813 
     95 H95       -52.3005  -28.3507   10.8235 H         1 UNK         0.0813 
     96 H96       -52.3619  -28.6643   13.3377 H         1 UNK         0.0638 
     97 H97       -53.4328  -27.8792   14.4564 H         1 UNK         0.0638 
     98 H98       -54.4741  -29.8669   12.3950 H         1 UNK         0.0568 
     99 H99       -53.9054  -32.2544   15.5383 H         1 UNK         0.3450 
    100 H100      -55.2256  -31.1131   15.5040 H         1 UNK         0.3450 
    101 H101      -55.6932  -28.5329   14.7019 H         1 UNK         0.2987 
    102 H102      -58.4875  -28.5466   13.8941 H         1 UNK         0.0766 
    103 H103      -59.4957  -30.7394   13.3714 H         1 UNK         0.0798 
    104 H104      -60.0791  -30.1861   14.9308 H         1 UNK         0.0798 
    105 H105      -58.8420  -31.4393   14.8450 H         1 UNK         0.0798 
    106 H106      -58.0888  -28.0443   16.0133 H         1 UNK         0.3198 
    107 H107      -57.3323  -27.9671   18.0210 H         1 UNK         0.0843 
    108 H108      -57.3312  -30.7250   19.3670 H         1 UNK         0.0831 
    109 H109      -58.7588  -29.7554   19.0357 H         1 UNK         0.0831 
    110 H110      -57.5583  -29.1741   20.1775 H         1 UNK         0.0831 
    111 H111      -55.2047  -29.4433   19.1911 H         1 UNK         0.3133 
    112 H112      -53.1409  -28.6424   19.1793 H         1 UNK         0.0566 
    113 H113      -52.3363  -29.1120   16.2589 H         1 UNK         0.0814 
    114 H114      -52.8209  -30.3592   17.3997 H         1 UNK         0.0814 
    115 H115      -51.3416  -29.4513   17.6706 H         1 UNK         0.0814 
    116 H116      -52.0352  -26.8463   17.1309 H         1 UNK         0.3091 
    117 H117      -52.6713  -23.8895   18.9504 H         1 UNK         0.0702 
    118 H118      -50.2090  -23.5618   19.0920 H         1 UNK         0.0785 
    119 H119      -49.9437  -25.2963   18.9032 H         1 UNK         0.0785 
    120 H120      -50.7487  -24.6750   20.3375 H         1 UNK         0.0785 
    121 H121      -50.9146  -24.5807   16.7549 H         1 UNK         0.2998 
    122 H122      -53.1916  -24.9963   14.2935 H         1 UNK         0.0697 
    123 H123      -52.0400  -22.1635   14.5132 H         1 UNK         0.0825 
    124 H124      -53.7438  -22.5514   14.3188 H         1 UNK         0.0825 
    125 H125      -52.6131  -22.9443   13.0376 H         1 UNK         0.0825 
    126 H126      -50.5569  -24.0735   13.9260 H         1 UNK         0.3029 
    127 H127      -48.4875  -25.7568   14.6208 H         1 UNK         0.0897 
    128 H128      -49.6615  -28.3065   13.3886 H         1 UNK         0.0792 
    129 H129      -48.9175  -28.1683   14.9744 H         1 UNK         0.0792 
    130 H130      -47.9406  -27.9429   13.5355 H         1 UNK         0.0792 
    131 H131      -49.2442  -26.3781   11.8798 H         1 UNK         0.3086 
    132 H132      -49.5176  -24.8505   10.3144 H         1 UNK         0.0583 
    133 H133      -50.5581  -22.6242   11.2002 H         1 UNK         0.1020 
    134 H134      -49.0225  -21.8827   10.8814 H         1 UNK         0.1020 
    135 H135      -52.3731  -22.3331    9.7898 H         1 UNK         0.0694 
    136 H136      -52.3983  -22.2458    8.0528 H         1 UNK         0.0694 
    137 H137      -46.9016  -23.6028   10.9524 H         1 UNK         0.2989 
    138 H138      -45.2436  -23.6825    9.2696 H         1 UNK         0.1055 
    139 H139      -45.2990  -26.7312    9.6608 H         1 UNK         0.0806 
    140 H140      -45.0357  -25.5297   10.9160 H         1 UNK         0.0806 
    141 H141      -43.8396  -25.7441    9.6483 H         1 UNK         0.0806 
    142 H142      -45.4315  -25.9135    7.3045 H         1 UNK         0.3061 
    143 H143      -46.0256  -24.3066    4.7314 H         1 UNK         0.0734 
    144 H144      -43.0453  -23.6198    4.8238 H         1 UNK         0.0832 
    145 H145      -43.9631  -23.9323    3.3501 H         1 UNK         0.0832 
    146 H146      -44.3588  -22.5530    4.3598 H         1 UNK         0.0832 
    147 H147      -45.5627  -26.4302    4.6927 H         1 UNK         0.3156 
    148 H148      -43.3034  -28.3064    4.2382 H         1 UNK         0.0589 
    149 H149      -42.8199  -29.9006    6.1208 H         1 UNK         0.0808 
    150 H150      -41.7505  -28.5100    6.1399 H         1 UNK         0.0808 
    151 H151      -43.0826  -28.5993    7.2814 H         1 UNK         0.0808 
    152 H152      -45.3432  -29.1364    4.4092 H         1 UNK         0.3098 
    153 H153      -47.3906  -29.4912    4.9359 H         1 UNK         0.0720 
    154 H154      -47.6513  -30.0349    7.9446 H         1 UNK         0.0791 
    155 H155      -46.8913  -31.1115    6.7812 H         1 UNK         0.0791 
    156 H156      -48.6124  -30.7822    6.6674 H         1 UNK         0.0791 
    157 H157      -49.0936  -28.3159    6.8348 H         1 UNK         0.3028 
@<TRIPOS>BOND
     1    1    2 1    
     2    1   82 1    
     3    1   83 1    
     4    1   84 1    
     5    2    3 2    
     6    2    4 am   BACKBONE|DICT|INTERRES
     7    4    5 1    
     8    4   85 1    
     9    5    6 1    
    10    5   80 1    
    11    5   86 1    
    12    6    7 1    
    13    6   87 1    
    14    6   88 1    
    15    7    8 1    
    16    8    9 1    
    17    8   89 1    
    18    8   90 1    
    19    9   10 ar   
    20    9   14 ar   
    21   10   11 ar   
    22   10   91 1    
    23   11   12 ar   
    24   11   58 1    
    25   12   13 ar   
    26   12   92 1    
    27   13   14 ar   
    28   13   15 1    
    29   14   93 1    
    30   15   16 1    
    31   15   94 1    
    32   15   95 1    
    33   16   17 1    
    34   17   18 1    
    35   17   96 1    
    36   17   97 1    
    37   18   19 1    
    38   18   22 1    
    39   18   98 1    
    40   19   20 am   BACKBONE|DICT|INTERRES
    41   19   21 2    
    42   20   99 1    
    43   20  100 1    
    44   22   23 am   BACKBONE|DICT|INTERRES
    45   22  101 1    
    46   23   24 2    
    47   23   25 1    
    48   25   26 1    
    49   25   27 1    
    50   25  102 1    
    51   26  103 1    
    52   26  104 1    
    53   26  105 1    
    54   27   28 am   BACKBONE|DICT|INTERRES
    55   27  106 1    
    56   28   29 2    
    57   28   30 1    
    58   30   31 1    
    59   30   32 1    
    60   30  107 1    
    61   31  108 1    
    62   31  109 1    
    63   31  110 1    
    64   32   33 am   BACKBONE|DICT|INTERRES
    65   32  111 1    
    66   33   34 2    
    67   33   35 1    
    68   35   36 1    
    69   35   37 1    
    70   35  112 1    
    71   36  113 1    
    72   36  114 1    
    73   36  115 1    
    74   37   38 am   BACKBONE|DICT|INTERRES
    75   37  116 1    
    76   38   39 2    
    77   38   40 1    
    78   40   41 1    
    79   40   42 1    
    80   40  117 1    
    81   41  118 1    
    82   41  119 1    
    83   41  120 1    
    84   42   43 am   BACKBONE|DICT|INTERRES
    85   42  121 1    
    86   43   44 2    
    87   43   45 1    
    88   45   46 1    
    89   45   47 1    
    90   45  122 1    
    91   46  123 1    
    92   46  124 1    
    93   46  125 1    
    94   47   48 am   BACKBONE|DICT|INTERRES
    95   47  126 1    
    96   48   49 2    
    97   48   50 1    
    98   50   51 1    
    99   50   52 1    
   100   50  127 1    
   101   51  128 1    
   102   51  129 1    
   103   51  130 1    
   104   52   53 am   BACKBONE|DICT|INTERRES
   105   52  131 1    
   106   53   54 2    
   107   53   55 1    
   108   55   56 1    
   109   55   59 1    
   110   55  132 1    
   111   56   57 1    
   112   56  133 1    
   113   56  134 1    
   114   57   58 1    
   115   58  135 1    
   116   58  136 1    
   117   59   60 am   BACKBONE|DICT|INTERRES
   118   59  137 1    
   119   60   61 2    
   120   60   62 1    
   121   62   63 1    
   122   62   64 1    
   123   62  138 1    
   124   63  139 1    
   125   63  140 1    
   126   63  141 1    
   127   64   65 am   BACKBONE|DICT|INTERRES
   128   64  142 1    
   129   65   66 2    
   130   65   67 1    
   131   67   68 1    
   132   67   69 1    
   133   67  143 1    
   134   68  144 1    
   135   68  145 1    
   136   68  146 1    
   137   69   70 am   BACKBONE|DICT|INTERRES
   138   69  147 1    
   139   70   71 2    
   140   70   72 1    
   141   72   73 1    
   142   72   74 1    
   143   72  148 1    
   144   73  149 1    
   145   73  150 1    
   146   73  151 1    
   147   74   75 am   BACKBONE|DICT|INTERRES
   148   74  152 1    
   149   75   76 2    
   150   75   77 1    
   151   77   78 1    
   152   77   79 1    
   153   77  153 1    
   154   78  154 1    
   155   78  155 1    
   156   78  156 1    
   157   79   80 am   BACKBONE|DICT|INTERRES
   158   79  157 1    
   159   80   81 2    
@<TRIPOS>SUBSTRUCTURE
     1 UNK         1 GROUP             0       ****    0 ROOT    
