@<TRIPOS>MOLECULE
3R207
157   159    1
SMALL
USER_CHARGES


@<TRIPOS>ATOM
      1 CA        -48.6095  -25.7470    2.1023 C.3       0 UNK        -0.1975 
      2 C         -49.0233  -25.2252    3.4698 C.2       0 UNK         0.4852 
      3 O         -49.1353  -24.0122    3.6564 O.2       0 UNK        -0.5216 
      4 N         -49.2401  -26.1278    4.4356 N.am      1 UNK        -0.4461 
      5 CA        -49.6623  -25.8335    5.8112 C.3       1 UNK         0.0864 
      6 C6        -50.3205  -27.0691    6.4778 C.3       14 UNK        -0.0898 
      7 S7        -51.8687  -27.5553    5.6420 S.3       14 UNK        -0.2598 
      8 C8        -53.1239  -27.0946    6.8795 C.3       14 UNK         0.0286 
      9 C9        -53.3994  -28.2294    7.8571 C.ar      14 UNK        -0.0844 
     10 C10       -52.5755  -28.4291    8.9687 C.ar      14 UNK        -0.0881 
     11 C11       -52.8365  -29.4588    9.8799 C.ar      14 UNK        -0.0643 
     12 C12       -53.9404  -30.2898    9.6695 C.ar      14 UNK        -0.0930 
     13 C13       -54.7928  -30.0800    8.5821 C.ar      14 UNK        -0.0827 
     14 C14       -54.5083  -29.0594    7.6707 C.ar      14 UNK        -0.1249 
     15 C15       -56.0436  -30.9276    8.4094 C.3       14 UNK         0.0141 
     16 S16       -57.4819  -30.1520    9.2195 S.3       14 UNK        -0.2313 
     17 C17       -57.1978  -30.5526   10.9778 C.3       14 UNK        -0.0915 
     18 CA        -56.5328  -29.4001   11.7807 C.3       13 UNK         0.0968 
     19 C         -57.5544  -28.3074   12.1993 C.2       13 UNK         0.5732 
     20 N         -57.7486  -27.2866   11.3758 N.am      13 UNK        -0.7310 
     21 O         -58.1938  -28.3961   13.2465 O.2       13 UNK        -0.5035 
     22 N         -55.7952  -29.9472   12.9270 N.am      13 UNK        -0.4233 
     23 C         -54.8814  -29.2844   13.6437 C.2       13 UNK         0.4989 
     24 O         -54.5104  -28.1328   13.4038 O.2       13 UNK        -0.4996 
     25 CA        -54.2564  -30.0579   14.8122 C.3       12 UNK         0.0216 
     26 CB        -53.4243  -31.2618   14.3206 C.3       12 UNK        -0.1964 
     27 N         -53.4141  -29.1514   15.5865 N.am      12 UNK        -0.4276 
     28 C         -52.9455  -29.3726   16.8200 C.2       12 UNK         0.5020 
     29 O         -53.1941  -30.3845   17.4771 O.2       12 UNK        -0.5489 
     30 CA        -52.0375  -28.2924   17.4269 C.3       11 UNK         0.0294 
     31 CB        -50.5593  -28.6307   17.1704 C.3       11 UNK        -0.2019 
     32 N         -52.3172  -26.9634   16.8866 N.am      11 UNK        -0.4493 
     33 C         -53.2616  -26.1311   17.3426 C.2       11 UNK         0.4932 
     34 O         -54.0201  -26.4032   18.2748 O.2       11 UNK        -0.5029 
     35 CA        -53.3602  -24.7648   16.6343 C.3       10 UNK         0.0280 
     36 CB        -54.1385  -23.7114   17.4503 C.3       10 UNK        -0.1976 
     37 N         -52.0493  -24.2494   16.2199 N.am      10 UNK        -0.4242 
     38 C         -50.9982  -23.9458   16.9994 C.2       10 UNK         0.5072 
     39 O         -51.0201  -23.9796   18.2305 O.2       10 UNK        -0.5224 
     40 CA        -49.6795  -23.5704   16.2934 C.3       9 UNK         0.0343 
     41 CB        -48.6667  -24.7210   16.4217 C.3       9 UNK        -0.2003 
     42 N         -49.8428  -23.2519   14.8735 N.am      9 UNK        -0.4272 
     43 C         -50.4109  -22.1384   14.3907 C.2       9 UNK         0.4988 
     44 O         -50.7785  -21.1939   15.0895 O.2       9 UNK        -0.5108 
     45 CA        -50.6549  -22.1012   12.8725 C.3       8 UNK         0.0248 
     46 CB        -49.3930  -21.6441   12.1216 C.3       8 UNK        -0.2001 
     47 N         -51.1047  -23.3976   12.3525 N.am      8 UNK        -0.4140 
     48 C         -52.2941  -23.9551   12.6270 C.2       8 UNK         0.5028 
     49 O         -53.1573  -23.4165   13.3186 O.2       8 UNK        -0.5428 
     50 CA        -52.5549  -25.3633   12.0702 C.3       7 UNK         0.0264 
     51 CB        -53.1507  -25.2887   10.6556 C.3       7 UNK        -0.1988 
     52 N         -51.3528  -26.2010   12.0663 N.am      7 UNK        -0.4454 
     53 C         -50.8095  -26.7415   13.1672 C.2       7 UNK         0.5027 
     54 O         -51.2863  -26.6183   14.2962 O.2       7 UNK        -0.5083 
     55 CA        -49.4857  -27.5147   12.9875 C.3       6 UNK         0.0844 
     56 C56       -49.7159  -29.0114   12.6529 C.3       14 UNK        -0.0967 
     57 S57       -50.2215  -29.3153   10.9202 S.3       14 UNK        -0.2604 
     58 C58       -52.0013  -29.6359   11.1431 C.3       14 UNK         0.0134 
     59 N         -48.5719  -26.8764   12.0361 N.am      6 UNK        -0.4116 
     60 C         -48.0523  -25.6472   12.1442 C.2       5 UNK         0.5034 
     61 O         -48.3315  -24.8764   13.0622 O.2       5 UNK        -0.5045 
     62 CA        -47.1079  -25.1691   11.0238 C.3       5 UNK         0.0224 
     63 CB        -45.8634  -24.4516   11.5849 C.3       5 UNK        -0.1978 
     64 N         -46.7316  -26.2058   10.0512 N.am      5 UNK        -0.4737 
     65 C         -45.9857  -27.3050   10.2468 C.2       4 UNK         0.5027 
     66 O         -45.5006  -27.6305   11.3294 O.2       4 UNK        -0.5211 
     67 CA        -45.7615  -28.2010    9.0203 C.3       4 UNK         0.0297 
     68 CB        -46.9876  -29.0983    8.7793 C.3       4 UNK        -0.1993 
     69 N         -45.5052  -27.3931    7.8270 N.am      4 UNK        -0.4486 
     70 C         -44.2864  -27.0504    7.3860 C.2       3 UNK         0.4961 
     71 O         -43.2362  -27.4597    7.8820 O.2       3 UNK        -0.5105 
     72 CA        -44.2193  -26.0833    6.1877 C.3       3 UNK         0.0299 
     73 CB        -44.1657  -26.8677    4.8666 C.3       3 UNK        -0.1972 
     74 N         -45.3402  -25.1416    6.1441 N.am      3 UNK        -0.4305 
     75 C         -45.5496  -24.1583    7.0320 C.2       2 UNK         0.5006 
     76 O         -44.7569  -23.8648    7.9267 O.2       2 UNK        -0.5106 
     77 CA        -46.8771  -23.3828    6.9256 C.3       2 UNK         0.0296 
     78 CB        -46.6582  -22.0413    6.2079 C.3       2 UNK        -0.2002 
     79 N         -47.9669  -24.1099    6.2613 N.am      2 UNK        -0.4032 
     80 C         -48.4899  -25.2805    6.6512 C.2       1 UNK         0.5000 
     81 O         -48.0524  -25.9279    7.6051 O.2       1 UNK        -0.5238 
     82 H82       -49.3314  -25.4343    1.3484 H         1 UNK         0.0889 
     83 H83       -48.5481  -26.8349    2.0822 H         1 UNK         0.0889 
     84 H84       -47.6341  -25.3465    1.8273 H         1 UNK         0.0889 
     85 H85       -49.1331  -27.1095    4.2223 H         1 UNK         0.3028 
     86 H86       -50.4136  -25.0410    5.7770 H         1 UNK         0.0864 
     87 H87       -49.6401  -27.9228    6.4703 H         1 UNK         0.0720 
     88 H88       -50.5289  -26.8629    7.5271 H         1 UNK         0.0720 
     89 H89       -52.8182  -26.1949    7.4156 H         1 UNK         0.0814 
     90 H90       -54.0422  -26.8279    6.3541 H         1 UNK         0.0814 
     91 H91       -51.7408  -27.7674    9.1397 H         1 UNK         0.1469 
     92 H92       -54.1659  -31.0721   10.3810 H         1 UNK         0.1381 
     93 H93       -55.1660  -28.8966    6.8277 H         1 UNK         0.1206 
     94 H94       -56.2623  -31.0458    7.3470 H         1 UNK         0.0813 
     95 H95       -55.8874  -31.9350    8.7980 H         1 UNK         0.0813 
     96 H96       -56.5780  -31.4495   11.0156 H         1 UNK         0.0638 
     97 H97       -58.1492  -30.8433   11.4275 H         1 UNK         0.0638 
     98 H98       -55.7901  -28.9174   11.1435 H         1 UNK         0.0568 
     99 H99       -58.4169  -26.5749   11.6246 H         1 UNK         0.3450 
    100 H100      -57.2512  -27.2270   10.5013 H         1 UNK         0.3450 
    101 H101      -56.0670  -30.8727   13.2224 H         1 UNK         0.2987 
    102 H102      -55.0708  -30.4110   15.4482 H         1 UNK         0.0766 
    103 H103      -53.1098  -31.8902   15.1538 H         1 UNK         0.0798 
    104 H104      -52.5245  -30.9395   13.7986 H         1 UNK         0.0798 
    105 H105      -53.9901  -31.9004   13.6415 H         1 UNK         0.0798 
    106 H106      -53.2123  -28.2728   15.1217 H         1 UNK         0.3198 
    107 H107      -52.2041  -28.2823   18.5064 H         1 UNK         0.0843 
    108 H108      -50.3300  -28.6624   16.1046 H         1 UNK         0.0831 
    109 H109      -50.3047  -29.6058   17.5881 H         1 UNK         0.0831 
    110 H110      -49.8990  -27.8973   17.6336 H         1 UNK         0.0831 
    111 H111      -51.7901  -26.6867   16.0597 H         1 UNK         0.3133 
    112 H112      -53.9162  -24.9435   15.7127 H         1 UNK         0.0566 
    113 H113      -54.1975  -22.7629   16.9165 H         1 UNK         0.0814 
    114 H114      -55.1611  -24.0405   17.6385 H         1 UNK         0.0814 
    115 H115      -53.6746  -23.5241   18.4191 H         1 UNK         0.0814 
    116 H116      -51.9157  -24.1834   15.2200 H         1 UNK         0.3091 
    117 H117      -49.2727  -22.6921   16.7988 H         1 UNK         0.0702 
    118 H118      -47.7077  -24.4572   15.9751 H         1 UNK         0.0785 
    119 H119      -49.0247  -25.6276   15.9318 H         1 UNK         0.0785 
    120 H120      -48.4810  -24.9665   17.4682 H         1 UNK         0.0785 
    121 H121      -49.4834  -23.9374   14.2128 H         1 UNK         0.2998 
    122 H122      -51.4450  -21.3717   12.6815 H         1 UNK         0.0697 
    123 H123      -48.5552  -22.3243   12.2756 H         1 UNK         0.0825 
    124 H124      -49.0751  -20.6584   12.4643 H         1 UNK         0.0825 
    125 H125      -49.5733  -21.5692   11.0491 H         1 UNK         0.0825 
    126 H126      -50.4418  -23.9225   11.8034 H         1 UNK         0.3029 
    127 H127      -53.2973  -25.8324   12.7200 H         1 UNK         0.0897 
    128 H128      -53.5379  -26.2582   10.3454 H         1 UNK         0.0792 
    129 H129      -53.9893  -24.5916   10.6210 H         1 UNK         0.0792 
    130 H130      -52.4196  -24.9576    9.9175 H         1 UNK         0.0792 
    131 H131      -50.9042  -26.3698   11.1785 H         1 UNK         0.3086 
    132 H132      -48.9861  -27.4786   13.9581 H         1 UNK         0.0583 
    133 H133      -48.7851  -29.5571   12.8162 H         1 UNK         0.1020 
    134 H134      -50.4317  -29.4614   13.3440 H         1 UNK         0.1020 
    135 H135      -52.1139  -30.6500   11.5276 H         1 UNK         0.0694 
    136 H136      -52.3998  -28.9619   11.9007 H         1 UNK         0.0694 
    137 H137      -48.2969  -27.4377   11.2439 H         1 UNK         0.2989 
    138 H138      -47.6785  -24.4311   10.4581 H         1 UNK         0.1055 
    139 H139      -46.1462  -23.5880   12.1882 H         1 UNK         0.0806 
    140 H140      -45.2218  -24.0877   10.7822 H         1 UNK         0.0806 
    141 H141      -45.2679  -25.1076   12.2202 H         1 UNK         0.0806 
    142 H142      -47.1370  -26.0805    9.1236 H         1 UNK         0.3061 
    143 H143      -44.9050  -28.8473    9.2245 H         1 UNK         0.0734 
    144 H144      -46.8253  -29.7707    7.9369 H         1 UNK         0.0832 
    145 H145      -47.1938  -29.7191    9.6524 H         1 UNK         0.0832 
    146 H146      -47.8882  -28.5182    8.5736 H         1 UNK         0.0832 
    147 H147      -46.3160  -26.9637    7.3964 H         1 UNK         0.3156 
    148 H148      -43.2969  -25.5057    6.2794 H         1 UNK         0.0589 
    149 H149      -45.0706  -27.4556    4.7068 H         1 UNK         0.0808 
    150 H150      -44.0416  -26.2011    4.0129 H         1 UNK         0.0808 
    151 H151      -43.3227  -27.5601    4.8593 H         1 UNK         0.0808 
    152 H152      -46.0336  -25.2898    5.4262 H         1 UNK         0.3098 
    153 H153      -47.2042  -23.1743    7.9464 H         1 UNK         0.0720 
    154 H154      -47.5617  -21.4314    6.2220 H         1 UNK         0.0791 
    155 H155      -46.3657  -22.1845    5.1668 H         1 UNK         0.0791 
    156 H156      -45.8709  -21.4614    6.6919 H         1 UNK         0.0791 
    157 H157      -48.3530  -23.6945    5.4172 H         1 UNK         0.3028 
@<TRIPOS>BOND
     1    1    2 1    
     2    1   82 1    
     3    1   83 1    
     4    1   84 1    
     5    2    3 2    
     6    2    4 am   BACKBONE|DICT|INTERRES
     7    4    5 1    
     8    4   85 1    
     9    5    6 1    
    10    5   80 1    
    11    5   86 1    
    12    6    7 1    
    13    6   87 1    
    14    6   88 1    
    15    7    8 1    
    16    8    9 1    
    17    8   89 1    
    18    8   90 1    
    19    9   10 ar   
    20    9   14 ar   
    21   10   11 ar   
    22   10   91 1    
    23   11   12 ar   
    24   11   58 1    
    25   12   13 ar   
    26   12   92 1    
    27   13   14 ar   
    28   13   15 1    
    29   14   93 1    
    30   15   16 1    
    31   15   94 1    
    32   15   95 1    
    33   16   17 1    
    34   17   18 1    
    35   17   96 1    
    36   17   97 1    
    37   18   19 1    
    38   18   22 1    
    39   18   98 1    
    40   19   20 am   BACKBONE|DICT|INTERRES
    41   19   21 2    
    42   20   99 1    
    43   20  100 1    
    44   22   23 am   BACKBONE|DICT|INTERRES
    45   22  101 1    
    46   23   24 2    
    47   23   25 1    
    48   25   26 1    
    49   25   27 1    
    50   25  102 1    
    51   26  103 1    
    52   26  104 1    
    53   26  105 1    
    54   27   28 am   BACKBONE|DICT|INTERRES
    55   27  106 1    
    56   28   29 2    
    57   28   30 1    
    58   30   31 1    
    59   30   32 1    
    60   30  107 1    
    61   31  108 1    
    62   31  109 1    
    63   31  110 1    
    64   32   33 am   BACKBONE|DICT|INTERRES
    65   32  111 1    
    66   33   34 2    
    67   33   35 1    
    68   35   36 1    
    69   35   37 1    
    70   35  112 1    
    71   36  113 1    
    72   36  114 1    
    73   36  115 1    
    74   37   38 am   BACKBONE|DICT|INTERRES
    75   37  116 1    
    76   38   39 2    
    77   38   40 1    
    78   40   41 1    
    79   40   42 1    
    80   40  117 1    
    81   41  118 1    
    82   41  119 1    
    83   41  120 1    
    84   42   43 am   BACKBONE|DICT|INTERRES
    85   42  121 1    
    86   43   44 2    
    87   43   45 1    
    88   45   46 1    
    89   45   47 1    
    90   45  122 1    
    91   46  123 1    
    92   46  124 1    
    93   46  125 1    
    94   47   48 am   BACKBONE|DICT|INTERRES
    95   47  126 1    
    96   48   49 2    
    97   48   50 1    
    98   50   51 1    
    99   50   52 1    
   100   50  127 1    
   101   51  128 1    
   102   51  129 1    
   103   51  130 1    
   104   52   53 am   BACKBONE|DICT|INTERRES
   105   52  131 1    
   106   53   54 2    
   107   53   55 1    
   108   55   56 1    
   109   55   59 1    
   110   55  132 1    
   111   56   57 1    
   112   56  133 1    
   113   56  134 1    
   114   57   58 1    
   115   58  135 1    
   116   58  136 1    
   117   59   60 am   BACKBONE|DICT|INTERRES
   118   59  137 1    
   119   60   61 2    
   120   60   62 1    
   121   62   63 1    
   122   62   64 1    
   123   62  138 1    
   124   63  139 1    
   125   63  140 1    
   126   63  141 1    
   127   64   65 am   BACKBONE|DICT|INTERRES
   128   64  142 1    
   129   65   66 2    
   130   65   67 1    
   131   67   68 1    
   132   67   69 1    
   133   67  143 1    
   134   68  144 1    
   135   68  145 1    
   136   68  146 1    
   137   69   70 am   BACKBONE|DICT|INTERRES
   138   69  147 1    
   139   70   71 2    
   140   70   72 1    
   141   72   73 1    
   142   72   74 1    
   143   72  148 1    
   144   73  149 1    
   145   73  150 1    
   146   73  151 1    
   147   74   75 am   BACKBONE|DICT|INTERRES
   148   74  152 1    
   149   75   76 2    
   150   75   77 1    
   151   77   78 1    
   152   77   79 1    
   153   77  153 1    
   154   78  154 1    
   155   78  155 1    
   156   78  156 1    
   157   79   80 am   BACKBONE|DICT|INTERRES
   158   79  157 1    
   159   80   81 2    
@<TRIPOS>SUBSTRUCTURE
     1 UNK         1 GROUP             0       ****    0 ROOT    
