@<TRIPOS>MOLECULE
3R207
157   159    1
SMALL
USER_CHARGES


@<TRIPOS>ATOM
      1 CA        -49.8478  -29.1862    9.0826 C.3       0 UNK        -0.1975 
      2 C         -49.2071  -29.4179    7.7227 C.2       0 UNK         0.4852 
      3 O         -48.1183  -29.9868    7.6449 O.2       0 UNK        -0.5216 
      4 N         -49.8724  -28.9726    6.6493 N.am      1 UNK        -0.4461 
      5 CA        -49.4121  -29.1110    5.2587 C.3       1 UNK         0.0864 
      6 C6        -50.5935  -29.0831    4.2543 C.3       14 UNK        -0.0898 
      7 S7        -51.7048  -30.5193    4.4490 S.3       14 UNK        -0.2598 
      8 C8        -53.2909  -29.7411    4.8922 C.3       14 UNK         0.0286 
      9 C9        -53.2713  -29.1887    6.3087 C.ar      14 UNK        -0.0844 
     10 C10       -53.0886  -27.8224    6.5300 C.ar      14 UNK        -0.0881 
     11 C11       -53.0393  -27.3210    7.8317 C.ar      14 UNK        -0.0643 
     12 C12       -53.1965  -28.1886    8.9155 C.ar      14 UNK        -0.0930 
     13 C13       -53.3941  -29.5613    8.7112 C.ar      14 UNK        -0.0827 
     14 C14       -53.4300  -30.0477    7.4002 C.ar      14 UNK        -0.1249 
     15 C15       -53.5466  -30.5680    9.8556 C.3       14 UNK         0.0141 
     16 S16       -53.4304  -29.8961   11.5525 S.3       14 UNK        -0.2313 
     17 C17       -55.0572  -29.0846   11.7511 C.3       14 UNK        -0.0915 
     18 CA        -56.0622  -29.7685   12.7290 C.3       13 UNK         0.0968 
     19 C         -56.4117  -31.2462   12.3734 C.2       13 UNK         0.5732 
     20 N         -56.5177  -32.1600   13.3297 N.am      13 UNK        -0.7310 
     21 O         -56.6538  -31.5602   11.2106 O.2       13 UNK        -0.5035 
     22 N         -55.8108  -29.4662   14.1507 N.am      13 UNK        -0.4233 
     23 C         -54.8464  -29.9248   14.9578 C.2       13 UNK         0.4989 
     24 O         -53.9821  -30.7307   14.6149 O.2       13 UNK        -0.4996 
     25 CA        -54.8792  -29.4232   16.4182 C.3       12 UNK         0.0216 
     26 CB        -53.6054  -29.8007   17.1991 C.3       12 UNK        -0.1964 
     27 N         -55.1106  -27.9767   16.5388 N.am      12 UNK        -0.4276 
     28 C         -56.3057  -27.3758   16.4267 C.2       12 UNK         0.5020 
     29 O         -57.3341  -27.9849   16.1276 O.2       12 UNK        -0.5489 
     30 CA        -56.3942  -25.8587   16.6770 C.3       11 UNK         0.0294 
     31 CB        -56.9513  -25.5824   18.0829 C.3       11 UNK        -0.2019 
     32 N         -55.1190  -25.1590   16.5236 N.am      11 UNK        -0.4493 
     33 C         -54.5216  -24.9060   15.3524 C.2       11 UNK         0.4932 
     34 O         -55.0053  -25.2008   14.2589 O.2       11 UNK        -0.5029 
     35 CA        -53.1366  -24.2340   15.4057 C.3       10 UNK         0.0280 
     36 CB        -52.8364  -23.4974   16.7309 C.3       10 UNK        -0.1976 
     37 N         -52.0723  -25.1917   15.0984 N.am      10 UNK        -0.4242 
     38 C         -51.8234  -26.3529   15.7226 C.2       10 UNK         0.5072 
     39 O         -52.4604  -26.7642   16.6941 O.2       10 UNK        -0.5224 
     40 CA        -50.6675  -27.2003   15.1695 C.3       9 UNK         0.0343 
     41 CB        -51.1051  -27.9448   13.8974 C.3       9 UNK        -0.2003 
     42 N         -49.4663  -26.4081   14.8953 N.am      9 UNK        -0.4272 
     43 C         -48.7056  -25.8302   15.8373 C.2       9 UNK         0.4988 
     44 O         -48.9064  -25.9437   17.0472 O.2       9 UNK        -0.5108 
     45 CA        -47.5164  -24.9813   15.3545 C.3       8 UNK         0.0248 
     46 CB        -46.3246  -25.8752   14.9754 C.3       8 UNK        -0.2001 
     47 N         -47.8609  -24.1049   14.2325 N.am      8 UNK        -0.4140 
     48 C         -48.7017  -23.0630   14.3174 C.2       8 UNK         0.5028 
     49 O         -49.2223  -22.6843   15.3671 O.2       8 UNK        -0.5428 
     50 CA        -49.0379  -22.3246   13.0099 C.3       7 UNK         0.0264 
     51 CB        -47.9660  -21.2715   12.6871 C.3       7 UNK        -0.1988 
     52 N         -49.2116  -23.2228   11.8647 N.am      7 UNK        -0.4454 
     53 C         -50.1707  -24.1575   11.7738 C.2       7 UNK         0.5027 
     54 O         -51.0334  -24.3371   12.6327 O.2       7 UNK        -0.5083 
     55 CA        -50.1427  -25.0775   10.5391 C.3       6 UNK         0.0844 
     56 C56       -50.7417  -24.3516    9.3097 C.3       14 UNK        -0.0967 
     57 S57       -51.0108  -25.4843    7.9088 S.3       14 UNK        -0.2604 
     58 C58       -52.7853  -25.8445    8.0688 C.3       14 UNK         0.0134 
     59 N         -48.7950  -25.5977   10.2914 N.am      6 UNK        -0.4116 
     60 C         -48.0760  -26.3368   11.1485 C.2       5 UNK         0.5034 
     61 O         -48.5054  -26.7539   12.2227 O.2       5 UNK        -0.5045 
     62 CA        -46.6067  -26.5966   10.7813 C.3       5 UNK         0.0224 
     63 CB        -46.4596  -27.7945    9.8323 C.3       5 UNK        -0.1978 
     64 N         -45.9793  -25.4166   10.1859 N.am      5 UNK        -0.4737 
     65 C         -45.6504  -24.3138   10.8707 C.2       4 UNK         0.5027 
     66 O         -45.8154  -24.1901   12.0837 O.2       4 UNK        -0.5211 
     67 CA        -45.0685  -23.1438   10.0599 C.3       4 UNK         0.0297 
     68 CB        -43.5541  -23.3207    9.8688 C.3       4 UNK        -0.1993 
     69 N         -45.7142  -22.9801    8.7541 N.am      4 UNK        -0.4486 
     70 C         -46.9881  -22.5984    8.5901 C.2       3 UNK         0.4961 
     71 O         -47.7469  -22.3260    9.5206 O.2       3 UNK        -0.5105 
     72 CA        -47.5208  -22.5569    7.1466 C.3       3 UNK         0.0299 
     73 CB        -47.0994  -21.2509    6.4544 C.3       3 UNK        -0.1972 
     74 N         -47.1413  -23.7054    6.3107 N.am      3 UNK        -0.4305 
     75 C         -47.3503  -24.9902    6.6283 C.2       2 UNK         0.5006 
     76 O         -47.7480  -25.3713    7.7292 O.2       2 UNK        -0.5106 
     77 CA        -47.0522  -26.0416    5.5597 C.3       2 UNK         0.0296 
     78 CB        -45.6133  -26.5706    5.7075 C.3       2 UNK        -0.2002 
     79 N         -48.0191  -27.1205    5.7453 N.am      2 UNK        -0.4032 
     80 C         -48.3250  -28.0807    4.8653 C.2       1 UNK         0.5000 
     81 O         -47.7845  -28.1755    3.7611 O.2       1 UNK        -0.5238 
     82 H82       -49.1062  -29.2360    9.8778 H         1 UNK         0.0889 
     83 H83       -50.3239  -28.2077    9.1328 H         1 UNK         0.0889 
     84 H84       -50.5984  -29.9501    9.2787 H         1 UNK         0.0889 
     85 H85       -50.7824  -28.5472    6.7717 H         1 UNK         0.3028 
     86 H86       -48.9314  -30.0874    5.1644 H         1 UNK         0.0864 
     87 H87       -50.2267  -29.1145    3.2265 H         1 UNK         0.0720 
     88 H88       -51.1538  -28.1514    4.3419 H         1 UNK         0.0720 
     89 H89       -54.0834  -30.4861    4.8070 H         1 UNK         0.0814 
     90 H90       -53.5320  -28.9597    4.1697 H         1 UNK         0.0814 
     91 H91       -52.9642  -27.1482    5.6932 H         1 UNK         0.1469 
     92 H92       -53.1448  -27.7817    9.9146 H         1 UNK         0.1381 
     93 H93       -53.5687  -31.1063    7.2258 H         1 UNK         0.1206 
     94 H94       -52.7682  -31.3247    9.7496 H         1 UNK         0.0813 
     95 H95       -54.4953  -31.0930    9.7433 H         1 UNK         0.0813 
     96 H96       -54.8751  -28.0590   12.0758 H         1 UNK         0.0638 
     97 H97       -55.5199  -28.9921   10.7672 H         1 UNK         0.0638 
     98 H98       -57.0105  -29.2591   12.5548 H         1 UNK         0.0568 
     99 H99       -56.3053  -31.9236   14.2848 H         1 UNK         0.3450 
    100 H100      -56.7662  -33.1049   13.0835 H         1 UNK         0.3450 
    101 H101      -56.4993  -28.8615   14.5884 H         1 UNK         0.2987 
    102 H102      -55.7126  -29.9379   16.9011 H         1 UNK         0.0766 
    103 H103      -53.4880  -30.8837   17.2553 H         1 UNK         0.0798 
    104 H104      -53.6380  -29.4270   18.2226 H         1 UNK         0.0798 
    105 H105      -52.7080  -29.4033   16.7243 H         1 UNK         0.0798 
    106 H106      -54.2860  -27.4063   16.7150 H         1 UNK         0.3198 
    107 H107      -57.0969  -25.4508   15.9468 H         1 UNK         0.0843 
    108 H108      -57.0969  -24.5151   18.2506 H         1 UNK         0.0831 
    109 H109      -56.2881  -25.9593   18.8626 H         1 UNK         0.0831 
    110 H110      -57.9206  -26.0643   18.2198 H         1 UNK         0.0831 
    111 H111      -54.6275  -24.9108   17.3704 H         1 UNK         0.3133 
    112 H112      -53.1222  -23.4919   14.6062 H         1 UNK         0.0566 
    113 H113      -53.6160  -22.7710   16.9643 H         1 UNK         0.0814 
    114 H114      -52.7471  -24.1776   17.5784 H         1 UNK         0.0814 
    115 H115      -51.8982  -22.9461   16.6595 H         1 UNK         0.0814 
    116 H116      -51.5318  -24.9679   14.2637 H         1 UNK         0.3091 
    117 H117      -50.4122  -27.9460   15.9253 H         1 UNK         0.0702 
    118 H118      -51.3460  -27.2567   13.0859 H         1 UNK         0.0785 
    119 H119      -51.9922  -28.5518   14.0850 H         1 UNK         0.0785 
    120 H120      -50.3235  -28.6162   13.5417 H         1 UNK         0.0785 
    121 H121      -49.1880  -26.3249   13.9201 H         1 UNK         0.2998 
    122 H122      -47.2056  -24.3452   16.1860 H         1 UNK         0.0697 
    123 H123      -45.4559  -25.2796   14.6941 H         1 UNK         0.0825 
    124 H124      -46.0281  -26.5055   15.8147 H         1 UNK         0.0825 
    125 H125      -46.5618  -26.5348   14.1408 H         1 UNK         0.0825 
    126 H126      -47.4082  -24.2960   13.3441 H         1 UNK         0.3029 
    127 H127      -49.9864  -21.8055   13.1645 H         1 UNK         0.0897 
    128 H128      -48.2397  -20.6832   11.8110 H         1 UNK         0.0792 
    129 H129      -47.8387  -20.5763   13.5179 H         1 UNK         0.0792 
    130 H130      -46.9958  -21.7289   12.4919 H         1 UNK         0.0792 
    131 H131      -48.5714  -23.0947   11.0843 H         1 UNK         0.3086 
    132 H132      -50.7783  -25.9359   10.7679 H         1 UNK         0.0583 
    133 H133      -51.6844  -23.8615    9.5612 H         1 UNK         0.1020 
    134 H134      -50.0773  -23.5539    8.9757 H         1 UNK         0.1020 
    135 H135      -53.1495  -25.5615    9.0575 H         1 UNK         0.0694 
    136 H136      -53.3434  -25.2430    7.3498 H         1 UNK         0.0694 
    137 H137      -48.3779  -25.3590    9.3928 H         1 UNK         0.2989 
    138 H138      -46.0738  -26.8338   11.7047 H         1 UNK         0.1055 
    139 H139      -46.8461  -28.7042   10.2922 H         1 UNK         0.0806 
    140 H140      -46.9975  -27.6433    8.8966 H         1 UNK         0.0806 
    141 H141      -45.4137  -27.9806    9.5881 H         1 UNK         0.0806 
    142 H142      -45.8942  -25.4048    9.1792 H         1 UNK         0.3061 
    143 H143      -45.2344  -22.2299   10.6346 H         1 UNK         0.0734 
    144 H144      -43.1134  -22.4587    9.3676 H         1 UNK         0.0832 
    145 H145      -43.0509  -23.4254   10.8312 H         1 UNK         0.0832 
    146 H146      -43.3194  -24.2090    9.2809 H         1 UNK         0.0832 
    147 H147      -45.1653  -23.1924    7.9337 H         1 UNK         0.3156 
    148 H148      -48.6108  -22.5630    7.2094 H         1 UNK         0.0589 
    149 H149      -47.5807  -21.1428    5.4822 H         1 UNK         0.0808 
    150 H150      -47.3845  -20.3831    7.0513 H         1 UNK         0.0808 
    151 H151      -46.0204  -21.2016    6.3029 H         1 UNK         0.0808 
    152 H152      -46.7857  -23.4904    5.3899 H         1 UNK         0.3098 
    153 H153      -47.1913  -25.6010    4.5704 H         1 UNK         0.0720 
    154 H154      -44.8859  -25.7639    5.6089 H         1 UNK         0.0791 
    155 H155      -45.4556  -27.0384    6.6804 H         1 UNK         0.0791 
    156 H156      -45.3793  -27.3098    4.9414 H         1 UNK         0.0791 
    157 H157      -48.5155  -27.0791    6.6274 H         1 UNK         0.3028 
@<TRIPOS>BOND
     1    1    2 1    
     2    1   82 1    
     3    1   83 1    
     4    1   84 1    
     5    2    3 2    
     6    2    4 am   BACKBONE|DICT|INTERRES
     7    4    5 1    
     8    4   85 1    
     9    5    6 1    
    10    5   80 1    
    11    5   86 1    
    12    6    7 1    
    13    6   87 1    
    14    6   88 1    
    15    7    8 1    
    16    8    9 1    
    17    8   89 1    
    18    8   90 1    
    19    9   10 ar   
    20    9   14 ar   
    21   10   11 ar   
    22   10   91 1    
    23   11   12 ar   
    24   11   58 1    
    25   12   13 ar   
    26   12   92 1    
    27   13   14 ar   
    28   13   15 1    
    29   14   93 1    
    30   15   16 1    
    31   15   94 1    
    32   15   95 1    
    33   16   17 1    
    34   17   18 1    
    35   17   96 1    
    36   17   97 1    
    37   18   19 1    
    38   18   22 1    
    39   18   98 1    
    40   19   20 am   BACKBONE|DICT|INTERRES
    41   19   21 2    
    42   20   99 1    
    43   20  100 1    
    44   22   23 am   BACKBONE|DICT|INTERRES
    45   22  101 1    
    46   23   24 2    
    47   23   25 1    
    48   25   26 1    
    49   25   27 1    
    50   25  102 1    
    51   26  103 1    
    52   26  104 1    
    53   26  105 1    
    54   27   28 am   BACKBONE|DICT|INTERRES
    55   27  106 1    
    56   28   29 2    
    57   28   30 1    
    58   30   31 1    
    59   30   32 1    
    60   30  107 1    
    61   31  108 1    
    62   31  109 1    
    63   31  110 1    
    64   32   33 am   BACKBONE|DICT|INTERRES
    65   32  111 1    
    66   33   34 2    
    67   33   35 1    
    68   35   36 1    
    69   35   37 1    
    70   35  112 1    
    71   36  113 1    
    72   36  114 1    
    73   36  115 1    
    74   37   38 am   BACKBONE|DICT|INTERRES
    75   37  116 1    
    76   38   39 2    
    77   38   40 1    
    78   40   41 1    
    79   40   42 1    
    80   40  117 1    
    81   41  118 1    
    82   41  119 1    
    83   41  120 1    
    84   42   43 am   BACKBONE|DICT|INTERRES
    85   42  121 1    
    86   43   44 2    
    87   43   45 1    
    88   45   46 1    
    89   45   47 1    
    90   45  122 1    
    91   46  123 1    
    92   46  124 1    
    93   46  125 1    
    94   47   48 am   BACKBONE|DICT|INTERRES
    95   47  126 1    
    96   48   49 2    
    97   48   50 1    
    98   50   51 1    
    99   50   52 1    
   100   50  127 1    
   101   51  128 1    
   102   51  129 1    
   103   51  130 1    
   104   52   53 am   BACKBONE|DICT|INTERRES
   105   52  131 1    
   106   53   54 2    
   107   53   55 1    
   108   55   56 1    
   109   55   59 1    
   110   55  132 1    
   111   56   57 1    
   112   56  133 1    
   113   56  134 1    
   114   57   58 1    
   115   58  135 1    
   116   58  136 1    
   117   59   60 am   BACKBONE|DICT|INTERRES
   118   59  137 1    
   119   60   61 2    
   120   60   62 1    
   121   62   63 1    
   122   62   64 1    
   123   62  138 1    
   124   63  139 1    
   125   63  140 1    
   126   63  141 1    
   127   64   65 am   BACKBONE|DICT|INTERRES
   128   64  142 1    
   129   65   66 2    
   130   65   67 1    
   131   67   68 1    
   132   67   69 1    
   133   67  143 1    
   134   68  144 1    
   135   68  145 1    
   136   68  146 1    
   137   69   70 am   BACKBONE|DICT|INTERRES
   138   69  147 1    
   139   70   71 2    
   140   70   72 1    
   141   72   73 1    
   142   72   74 1    
   143   72  148 1    
   144   73  149 1    
   145   73  150 1    
   146   73  151 1    
   147   74   75 am   BACKBONE|DICT|INTERRES
   148   74  152 1    
   149   75   76 2    
   150   75   77 1    
   151   77   78 1    
   152   77   79 1    
   153   77  153 1    
   154   78  154 1    
   155   78  155 1    
   156   78  156 1    
   157   79   80 am   BACKBONE|DICT|INTERRES
   158   79  157 1    
   159   80   81 2    
@<TRIPOS>SUBSTRUCTURE
     1 UNK         1 GROUP             0       ****    0 ROOT    
