@<TRIPOS>MOLECULE
3R207
157   159    1
SMALL
USER_CHARGES


@<TRIPOS>ATOM
      1 CA        -46.0818  -28.1722    3.8403 C.3       0 UNK        -0.1975 
      2 C         -46.0167  -28.6321    5.2944 C.2       0 UNK         0.4852 
      3 O         -45.0030  -28.4098    5.9529 O.2       0 UNK        -0.5216 
      4 N         -47.0594  -29.2737    5.8416 N.am      1 UNK        -0.4461 
      5 CA        -48.3418  -29.6088    5.2047 C.3       1 UNK         0.0864 
      6 C6        -48.9550  -30.8896    5.8286 C.3       14 UNK        -0.0898 
      7 S7        -49.3710  -30.7183    7.5988 S.3       14 UNK        -0.2598 
      8 C8        -51.1889  -30.6695    7.5241 C.3       14 UNK         0.0286 
      9 C9        -51.7600  -29.8688    8.6815 C.ar      14 UNK        -0.0844 
     10 C10       -52.2025  -28.5587    8.4798 C.ar      14 UNK        -0.0881 
     11 C11       -52.7275  -27.8155    9.5406 C.ar      14 UNK        -0.0643 
     12 C12       -52.7836  -28.3862   10.8152 C.ar      14 UNK        -0.0930 
     13 C13       -52.3826  -29.7128   11.0227 C.ar      14 UNK        -0.0827 
     14 C14       -51.8630  -30.4431    9.9505 C.ar      14 UNK        -0.1249 
     15 C15       -52.5002  -30.3795   12.3907 C.3       14 UNK         0.0141 
     16 S16       -54.0071  -29.9208   13.3126 S.3       14 UNK        -0.2313 
     17 C17       -55.3111  -30.8394   12.4178 C.3       14 UNK        -0.0915 
     18 CA        -55.8157  -30.1756   11.0971 C.3       13 UNK         0.0968 
     19 C         -56.9899  -30.9670   10.4464 C.2       13 UNK         0.5732 
     20 N         -57.9494  -30.3158    9.7993 N.am      13 UNK        -0.7310 
     21 O         -57.0192  -32.1946   10.4974 O.2       13 UNK        -0.5035 
     22 N         -56.0291  -28.7200   11.1996 N.am      13 UNK        -0.4233 
     23 C         -56.8687  -28.1007   12.0354 C.2       13 UNK         0.4989 
     24 O         -57.6533  -28.6761   12.7930 O.2       13 UNK        -0.4996 
     25 CA        -56.8128  -26.5669   12.0402 C.3       12 UNK         0.0216 
     26 CB        -58.1513  -25.9602   11.5864 C.3       12 UNK        -0.1964 
     27 N         -56.5087  -26.1253   13.3989 N.am      12 UNK        -0.4276 
     28 C         -55.2704  -25.9845   13.8855 C.2       12 UNK         0.5020 
     29 O         -54.2447  -26.0336   13.2009 O.2       12 UNK        -0.5489 
     30 CA        -55.1662  -25.7908   15.4018 C.3       11 UNK         0.0294 
     31 CB        -55.4057  -27.1272   16.1332 C.3       11 UNK        -0.2019 
     32 N         -53.8385  -25.2809   15.7275 N.am      11 UNK        -0.4493 
     33 C         -53.4903  -24.6835   16.8736 C.2       11 UNK         0.4932 
     34 O         -54.2844  -24.4399   17.7843 O.2       11 UNK        -0.5029 
     35 CA        -52.0034  -24.3071   17.0236 C.3       10 UNK         0.0280 
     36 CB        -51.6029  -23.9447   18.4694 C.3       10 UNK        -0.1976 
     37 N         -51.1169  -25.3343   16.4689 N.am      10 UNK        -0.4242 
     38 C         -50.9794  -26.6088   16.8644 C.2       10 UNK         0.5072 
     39 O         -51.5405  -27.0996   17.8450 O.2       10 UNK        -0.5224 
     40 CA        -50.0642  -27.4976   16.0041 C.3       9 UNK         0.0343 
     41 CB        -50.8704  -28.1581   14.8774 C.3       9 UNK        -0.2003 
     42 N         -48.9328  -26.7714   15.4222 N.am      9 UNK        -0.4272 
     43 C         -47.8932  -26.3047   16.1290 C.2       9 UNK         0.4988 
     44 O         -47.7420  -26.4954   17.3365 O.2       9 UNK        -0.5108 
     45 CA        -46.8498  -25.4737   15.3645 C.3       8 UNK         0.0248 
     46 CB        -45.8616  -26.3912   14.6264 C.3       8 UNK        -0.2001 
     47 N         -47.4563  -24.5314   14.4203 N.am      8 UNK        -0.4140 
     48 C         -48.2170  -23.4843   14.7745 C.2       8 UNK         0.5028 
     49 O         -48.4373  -23.1585   15.9411 O.2       8 UNK        -0.5428 
     50 CA        -48.8692  -22.6762   13.6401 C.3       7 UNK         0.0264 
     51 CB        -47.8768  -21.6609   13.0528 C.3       7 UNK        -0.1988 
     52 N         -49.4041  -23.5196   12.5692 N.am      7 UNK        -0.4454 
     53 C         -50.4005  -24.4066   12.7161 C.2       7 UNK         0.5027 
     54 O         -51.0023  -24.5924   13.7725 O.2       7 UNK        -0.5083 
     55 CA        -50.7615  -25.2468   11.4788 C.3       6 UNK         0.0844 
     56 C56       -51.7012  -24.4458   10.5435 C.3       14 UNK        -0.0967 
     57 S57       -51.9777  -25.2196    8.9150 S.3       14 UNK        -0.2604 
     58 C58       -53.2863  -26.4227    9.2872 C.3       14 UNK         0.0134 
     59 N         -49.5548  -25.7301   10.8083 N.am      6 UNK        -0.4116 
     60 C         -48.6937  -26.6196   11.3190 C.2       5 UNK         0.5034 
     61 O         -48.8180  -27.1496   12.4235 O.2       5 UNK        -0.5045 
     62 CA        -47.4503  -26.9185   10.4665 C.3       5 UNK         0.0224 
     63 CB        -47.7872  -27.9195    9.3508 C.3       5 UNK        -0.1978 
     64 N         -46.8732  -25.7022    9.8848 N.am      5 UNK        -0.4737 
     65 C         -46.3283  -24.7138   10.6105 C.2       4 UNK         0.5027 
     66 O         -46.2055  -24.7535   11.8334 O.2       4 UNK        -0.5211 
     67 CA        -45.8939  -23.4439    9.8608 C.3       4 UNK         0.0297 
     68 CB        -44.4391  -23.5737    9.3844 C.3       4 UNK        -0.1993 
     69 N         -46.7532  -23.1155    8.7221 N.am      4 UNK        -0.4486 
     70 C         -48.0736  -22.8928    8.7780 C.2       3 UNK         0.4961 
     71 O         -48.7291  -22.9080    9.8202 O.2       3 UNK        -0.5105 
     72 CA        -48.7905  -22.6351    7.4413 C.3       3 UNK         0.0299 
     73 CB        -47.8846  -21.9670    6.3828 C.3       3 UNK        -0.1972 
     74 N         -49.4186  -23.8372    6.8783 N.am      3 UNK        -0.4305 
     75 C         -48.8468  -25.0230    6.6192 C.2       2 UNK         0.5006 
     76 O         -47.6990  -25.3354    6.9539 O.2       2 UNK        -0.5106 
     77 CA        -49.6921  -26.0164    5.8079 C.3       2 UNK         0.0296 
     78 CB        -49.9550  -25.4591    4.3902 C.3       2 UNK        -0.2002 
     79 N         -48.9571  -27.2770    5.7420 N.am      2 UNK        -0.4032 
     80 C         -49.3449  -28.4285    5.1788 C.2       1 UNK         0.5000 
     81 O         -50.4426  -28.5886    4.6426 O.2       1 UNK        -0.5238 
     82 H82       -46.9430  -27.5295    3.6625 H         1 UNK         0.0889 
     83 H83       -46.1340  -29.0275    3.1674 H         1 UNK         0.0889 
     84 H84       -45.1895  -27.6025    3.5817 H         1 UNK         0.0889 
     85 H85       -46.9842  -29.5765    6.8027 H         1 UNK         0.3028 
     86 H86       -48.1466  -29.8476    4.1580 H         1 UNK         0.0864 
     87 H87       -49.8338  -31.2087    5.2652 H         1 UNK         0.0720 
     88 H88       -48.2449  -31.7128    5.7353 H         1 UNK         0.0720 
     89 H89       -51.5787  -31.6883    7.5434 H         1 UNK         0.0814 
     90 H90       -51.5173  -30.2344    6.5793 H         1 UNK         0.0814 
     91 H91       -52.1460  -28.1162    7.4943 H         1 UNK         0.1469 
     92 H92       -53.1773  -27.8099   11.6409 H         1 UNK         0.1381 
     93 H93       -51.5333  -31.4623   10.1005 H         1 UNK         0.1206 
     94 H94       -51.6273  -30.1054   12.9794 H         1 UNK         0.0813 
     95 H95       -52.4706  -31.4658   12.2938 H         1 UNK         0.0813 
     96 H96       -56.1447  -30.9629   13.1111 H         1 UNK         0.0638 
     97 H97       -54.9416  -31.8463   12.2168 H         1 UNK         0.0638 
     98 H98       -55.0114  -30.2805   10.3699 H         1 UNK         0.0568 
     99 H99       -58.6981  -30.8383    9.3728 H         1 UNK         0.3450 
    100 H100      -57.9364  -29.3109    9.7408 H         1 UNK         0.3450 
    101 H101      -55.4300  -28.1627   10.6101 H         1 UNK         0.2987 
    102 H102      -56.0341  -26.2220   11.3566 H         1 UNK         0.0766 
    103 H103      -58.1139  -24.8706   11.5933 H         1 UNK         0.0798 
    104 H104      -58.9781  -26.2706   12.2269 H         1 UNK         0.0798 
    105 H105      -58.3937  -26.2692   10.5688 H         1 UNK         0.0798 
    106 H106      -57.2855  -26.1196   14.0449 H         1 UNK         0.3198 
    107 H107      -55.9153  -25.0579   15.7095 H         1 UNK         0.0843 
    108 H108      -56.3848  -27.5433   15.8928 H         1 UNK         0.0831 
    109 H109      -55.3664  -27.0049   17.2157 H         1 UNK         0.0831 
    110 H110      -54.6588  -27.8725   15.8551 H         1 UNK         0.0831 
    111 H111      -53.1557  -25.3954   14.9850 H         1 UNK         0.3133 
    112 H112      -51.8512  -23.4188   16.4089 H         1 UNK         0.0566 
    113 H113      -50.5472  -23.6799   18.5311 H         1 UNK         0.0814 
    114 H114      -52.1737  -23.0879   18.8291 H         1 UNK         0.0814 
    115 H115      -51.7843  -24.7684   19.1604 H         1 UNK         0.0814 
    116 H116      -50.6810  -25.0752   15.5877 H         1 UNK         0.3091 
    117 H117      -49.6668  -28.2865   16.6462 H         1 UNK         0.0702 
    118 H118      -50.2399  -28.8304   14.2962 H         1 UNK         0.0785 
    119 H119      -51.2945  -27.4223   14.1924 H         1 UNK         0.0785 
    120 H120      -51.6973  -28.7456   15.2787 H         1 UNK         0.0785 
    121 H121      -48.9481  -26.6305   14.4170 H         1 UNK         0.2998 
    122 H122      -46.2878  -24.8921   16.0982 H         1 UNK         0.0697 
    123 H123      -46.3540  -26.9685   13.8429 H         1 UNK         0.0825 
    124 H124      -45.3970  -27.0999   15.3133 H         1 UNK         0.0825 
    125 H125      -45.0596  -25.8167   14.1626 H         1 UNK         0.0825 
    126 H126      -47.2547  -24.6827   13.4346 H         1 UNK         0.3029 
    127 H127      -49.7077  -22.1234   14.0692 H         1 UNK         0.0897 
    128 H128      -48.3353  -21.0663   12.2622 H         1 UNK         0.0792 
    129 H129      -47.5290  -20.9688   13.8209 H         1 UNK         0.0792 
    130 H130      -46.9976  -22.1521   12.6366 H         1 UNK         0.0792 
    131 H131      -49.0041  -23.3958   11.6414 H         1 UNK         0.3086 
    132 H132      -51.3078  -26.1241   11.8302 H         1 UNK         0.0583 
    133 H133      -52.6632  -24.2786   11.0323 H         1 UNK         0.1020 
    134 H134      -51.2953  -23.4511   10.3489 H         1 UNK         0.1020 
    135 H135      -53.8826  -26.0795   10.1336 H         1 UNK         0.0694 
    136 H136      -53.9671  -26.4667    8.4359 H         1 UNK         0.0694 
    137 H137      -49.3482  -25.3082    9.9153 H         1 UNK         0.2989 
    138 H138      -46.7003  -27.3692   11.1203 H         1 UNK         0.1055 
    139 H139      -48.1632  -28.8531    9.7717 H         1 UNK         0.0806 
    140 H140      -46.9071  -28.1620    8.7556 H         1 UNK         0.0806 
    141 H141      -48.5564  -27.5379    8.6785 H         1 UNK         0.0806 
    142 H142      -46.9631  -25.5752    8.8812 H         1 UNK         0.3061 
    143 H143      -45.9497  -22.6098   10.5620 H         1 UNK         0.0734 
    144 H144      -43.7747  -23.7981   10.2203 H         1 UNK         0.0832 
    145 H145      -44.3234  -24.3744    8.6526 H         1 UNK         0.0832 
    146 H146      -44.0843  -22.6481    8.9309 H         1 UNK         0.0832 
    147 H147      -46.3217  -23.1336    7.8094 H         1 UNK         0.3156 
    148 H148      -49.6009  -21.9390    7.6631 H         1 UNK         0.0589 
    149 H149      -47.1098  -22.6392    6.0124 H         1 UNK         0.0808 
    150 H150      -48.4692  -21.6412    5.5223 H         1 UNK         0.0808 
    151 H151      -47.3923  -21.0810    6.7865 H         1 UNK         0.0808 
    152 H152      -50.3877  -23.7227    6.6155 H         1 UNK         0.3098 
    153 H153      -50.6361  -26.1864    6.3282 H         1 UNK         0.0720 
    154 H154      -50.4680  -24.4976    4.4255 H         1 UNK         0.0791 
    155 H155      -50.5873  -26.1234    3.8020 H         1 UNK         0.0791 
    156 H156      -49.0249  -25.3114    3.8398 H         1 UNK         0.0791 
    157 H157      -48.0470  -27.2255    6.1856 H         1 UNK         0.3028 
@<TRIPOS>BOND
     1    1    2 1    
     2    1   82 1    
     3    1   83 1    
     4    1   84 1    
     5    2    3 2    
     6    2    4 am   BACKBONE|DICT|INTERRES
     7    4    5 1    
     8    4   85 1    
     9    5    6 1    
    10    5   80 1    
    11    5   86 1    
    12    6    7 1    
    13    6   87 1    
    14    6   88 1    
    15    7    8 1    
    16    8    9 1    
    17    8   89 1    
    18    8   90 1    
    19    9   10 ar   
    20    9   14 ar   
    21   10   11 ar   
    22   10   91 1    
    23   11   12 ar   
    24   11   58 1    
    25   12   13 ar   
    26   12   92 1    
    27   13   14 ar   
    28   13   15 1    
    29   14   93 1    
    30   15   16 1    
    31   15   94 1    
    32   15   95 1    
    33   16   17 1    
    34   17   18 1    
    35   17   96 1    
    36   17   97 1    
    37   18   19 1    
    38   18   22 1    
    39   18   98 1    
    40   19   20 am   BACKBONE|DICT|INTERRES
    41   19   21 2    
    42   20   99 1    
    43   20  100 1    
    44   22   23 am   BACKBONE|DICT|INTERRES
    45   22  101 1    
    46   23   24 2    
    47   23   25 1    
    48   25   26 1    
    49   25   27 1    
    50   25  102 1    
    51   26  103 1    
    52   26  104 1    
    53   26  105 1    
    54   27   28 am   BACKBONE|DICT|INTERRES
    55   27  106 1    
    56   28   29 2    
    57   28   30 1    
    58   30   31 1    
    59   30   32 1    
    60   30  107 1    
    61   31  108 1    
    62   31  109 1    
    63   31  110 1    
    64   32   33 am   BACKBONE|DICT|INTERRES
    65   32  111 1    
    66   33   34 2    
    67   33   35 1    
    68   35   36 1    
    69   35   37 1    
    70   35  112 1    
    71   36  113 1    
    72   36  114 1    
    73   36  115 1    
    74   37   38 am   BACKBONE|DICT|INTERRES
    75   37  116 1    
    76   38   39 2    
    77   38   40 1    
    78   40   41 1    
    79   40   42 1    
    80   40  117 1    
    81   41  118 1    
    82   41  119 1    
    83   41  120 1    
    84   42   43 am   BACKBONE|DICT|INTERRES
    85   42  121 1    
    86   43   44 2    
    87   43   45 1    
    88   45   46 1    
    89   45   47 1    
    90   45  122 1    
    91   46  123 1    
    92   46  124 1    
    93   46  125 1    
    94   47   48 am   BACKBONE|DICT|INTERRES
    95   47  126 1    
    96   48   49 2    
    97   48   50 1    
    98   50   51 1    
    99   50   52 1    
   100   50  127 1    
   101   51  128 1    
   102   51  129 1    
   103   51  130 1    
   104   52   53 am   BACKBONE|DICT|INTERRES
   105   52  131 1    
   106   53   54 2    
   107   53   55 1    
   108   55   56 1    
   109   55   59 1    
   110   55  132 1    
   111   56   57 1    
   112   56  133 1    
   113   56  134 1    
   114   57   58 1    
   115   58  135 1    
   116   58  136 1    
   117   59   60 am   BACKBONE|DICT|INTERRES
   118   59  137 1    
   119   60   61 2    
   120   60   62 1    
   121   62   63 1    
   122   62   64 1    
   123   62  138 1    
   124   63  139 1    
   125   63  140 1    
   126   63  141 1    
   127   64   65 am   BACKBONE|DICT|INTERRES
   128   64  142 1    
   129   65   66 2    
   130   65   67 1    
   131   67   68 1    
   132   67   69 1    
   133   67  143 1    
   134   68  144 1    
   135   68  145 1    
   136   68  146 1    
   137   69   70 am   BACKBONE|DICT|INTERRES
   138   69  147 1    
   139   70   71 2    
   140   70   72 1    
   141   72   73 1    
   142   72   74 1    
   143   72  148 1    
   144   73  149 1    
   145   73  150 1    
   146   73  151 1    
   147   74   75 am   BACKBONE|DICT|INTERRES
   148   74  152 1    
   149   75   76 2    
   150   75   77 1    
   151   77   78 1    
   152   77   79 1    
   153   77  153 1    
   154   78  154 1    
   155   78  155 1    
   156   78  156 1    
   157   79   80 am   BACKBONE|DICT|INTERRES
   158   79  157 1    
   159   80   81 2    
@<TRIPOS>SUBSTRUCTURE
     1 UNK         1 GROUP             0       ****    0 ROOT    
