@<TRIPOS>MOLECULE
3R207
157   159    1
SMALL
USER_CHARGES


@<TRIPOS>ATOM
      1 CA        -50.8247  -23.6294    3.1876 C.3       0 UNK        -0.1975 
      2 C         -50.0634  -24.2740    4.3359 C.2       0 UNK         0.4852 
      3 O         -49.0273  -24.8943    4.0991 O.2       0 UNK        -0.5216 
      4 N         -50.5593  -24.1001    5.5721 N.am      1 UNK        -0.4461 
      5 CA        -50.0816  -24.6756    6.8443 C.3       1 UNK         0.0864 
      6 C6        -50.7072  -26.0614    7.1539 C.3       14 UNK        -0.0898 
      7 S7        -50.2022  -27.4465    6.0732 S.3       14 UNK        -0.2598 
      8 C8        -51.5154  -28.6710    6.4091 C.3       14 UNK         0.0286 
      9 C9        -51.7575  -28.8660    7.9011 C.ar      14 UNK        -0.0844 
     10 C10       -50.7744  -29.4514    8.7042 C.ar      14 UNK        -0.0881 
     11 C11       -50.9472  -29.5365   10.0885 C.ar      14 UNK        -0.0643 
     12 C12       -52.1409  -29.0891   10.6603 C.ar      14 UNK        -0.0930 
     13 C13       -53.1456  -28.5321    9.8649 C.ar      14 UNK        -0.0827 
     14 C14       -52.9466  -28.4173    8.4861 C.ar      14 UNK        -0.1249 
     15 C15       -54.4402  -28.0545   10.5033 C.3       14 UNK         0.0141 
     16 S16       -54.1656  -26.6080   11.5725 S.3       14 UNK        -0.2313 
     17 C17       -55.7910  -26.4683   12.3875 C.3       14 UNK        -0.0915 
     18 CA        -55.7520  -26.9315   13.8736 C.3       13 UNK         0.0968 
     19 C         -57.0301  -26.5711   14.6827 C.2       13 UNK         0.5732 
     20 N         -57.0807  -26.9376   15.9570 N.am      13 UNK        -0.7310 
     21 O         -57.9724  -25.9703   14.1705 O.2       13 UNK        -0.5035 
     22 N         -55.3665  -28.3410   14.0501 N.am      13 UNK        -0.4233 
     23 C         -56.0491  -29.4191   13.6389 C.2       13 UNK         0.4989 
     24 O         -57.0793  -29.3729   12.9666 O.2       13 UNK        -0.4996 
     25 CA        -55.4791  -30.7947   14.0341 C.3       12 UNK         0.0216 
     26 CB        -54.5832  -31.3501   12.9147 C.3       12 UNK        -0.1964 
     27 N         -54.7197  -30.7547   15.2870 N.am      12 UNK        -0.4276 
     28 C         -55.2747  -30.6964   16.5058 C.2       12 UNK         0.5020 
     29 O         -56.4852  -30.7831   16.7145 O.2       12 UNK        -0.5489 
     30 CA        -54.3175  -30.4703   17.6914 C.3       11 UNK         0.0294 
     31 CB        -53.8109  -31.8138   18.2405 C.3       11 UNK        -0.2019 
     32 N         -53.1726  -29.6057   17.3726 N.am      11 UNK        -0.4493 
     33 C         -53.2696  -28.3290   16.9765 C.2       11 UNK         0.4932 
     34 O         -54.3433  -27.7485   16.8042 O.2       11 UNK        -0.5029 
     35 CA        -51.9474  -27.6143   16.6484 C.3       10 UNK         0.0280 
     36 CB        -51.4806  -27.9950   15.2317 C.3       10 UNK        -0.1976 
     37 N         -52.0698  -26.1560   16.7361 N.am      10 UNK        -0.4242 
     38 C         -52.2842  -25.4727   17.8729 C.2       10 UNK         0.5072 
     39 O         -52.3112  -26.0009   18.9863 O.2       10 UNK        -0.5224 
     40 CA        -52.4814  -23.9444   17.7803 C.3       9 UNK         0.0343 
     41 CB        -51.2229  -23.2099   18.2721 C.3       9 UNK        -0.2003 
     42 N         -52.8076  -23.4679   16.4355 N.am      9 UNK        -0.4272 
     43 C         -53.9713  -23.6695   15.8021 C.2       9 UNK         0.4988 
     44 O         -54.9585  -24.1726   16.3364 O.2       9 UNK        -0.5108 
     45 CA        -54.0544  -23.2570   14.3168 C.3       8 UNK         0.0248 
     46 CB        -54.9332  -22.0056   14.1560 C.3       8 UNK        -0.2001 
     47 N         -52.7665  -23.0284   13.6451 N.am      8 UNK        -0.4140 
     48 C         -51.7745  -23.9215   13.5267 C.2       8 UNK         0.5028 
     49 O         -51.7943  -25.0438   14.0394 O.2       8 UNK        -0.5428 
     50 CA        -50.5299  -23.4625   12.7600 C.3       7 UNK         0.0264 
     51 CB        -49.7404  -22.4042   13.5536 C.3       7 UNK        -0.1988 
     52 N         -49.6846  -24.6282   12.5277 N.am      7 UNK        -0.4454 
     53 C         -48.8653  -24.8022   11.4877 C.2       7 UNK         0.5027 
     54 O         -48.6977  -23.9558   10.6046 O.2       7 UNK        -0.5083 
     55 CA        -48.1413  -26.1608   11.4213 C.3       6 UNK         0.0844 
     56 C56       -49.1397  -27.2882   11.0631 C.3       14 UNK        -0.0967 
     57 S57       -48.3703  -28.9430   10.9812 S.3       14 UNK        -0.2604 
     58 C58       -49.8230  -30.0511   10.9779 C.3       14 UNK         0.0134 
     59 N         -47.0446  -26.0734   10.4559 N.am      6 UNK        -0.4116 
     60 C         -45.7535  -25.9055   10.7677 C.2       5 UNK         0.5034 
     61 O         -45.3290  -25.8378   11.9233 O.2       5 UNK        -0.5045 
     62 CA        -44.7730  -25.7832    9.5835 C.3       5 UNK         0.0224 
     63 CB        -43.3019  -26.0370    9.9768 C.3       5 UNK        -0.1978 
     64 N         -45.1707  -26.6095    8.4380 N.am      5 UNK        -0.4737 
     65 C         -45.2563  -27.9467    8.3696 C.2       4 UNK         0.5027 
     66 O         -44.8729  -28.7098    9.2561 O.2       4 UNK        -0.5211 
     67 CA        -45.9048  -28.5374    7.1037 C.3       4 UNK         0.0297 
     68 CB        -47.2645  -29.1585    7.4522 C.3       4 UNK        -0.1993 
     69 N         -46.1102  -27.5266    6.0628 N.am      4 UNK        -0.4486 
     70 C         -45.2368  -27.2543    5.0838 C.2       3 UNK         0.4961 
     71 O         -44.2001  -27.8900    4.8901 O.2       3 UNK        -0.5105 
     72 CA        -45.5593  -26.0497    4.1817 C.3       3 UNK         0.0299 
     73 CB        -46.4153  -26.4906    2.9843 C.3       3 UNK        -0.1972 
     74 N         -46.2340  -24.9646    4.9027 N.am      3 UNK        -0.4305 
     75 C         -45.6542  -24.2246    5.8626 C.2       2 UNK         0.5006 
     76 O         -44.4733  -24.3431    6.1877 O.2       2 UNK        -0.5106 
     77 CA        -46.5201  -23.2036    6.6248 C.3       2 UNK         0.0296 
     78 CB        -46.2765  -21.7859    6.0833 C.3       2 UNK        -0.2002 
     79 N         -47.9552  -23.4857    6.5980 N.am      2 UNK        -0.4032 
     80 C         -48.5539  -24.5819    7.0870 C.2       1 UNK         0.5000 
     81 O         -47.9458  -25.4812    7.6765 O.2       1 UNK        -0.5238 
     82 H82       -51.1415  -24.3920    2.4767 H         1 UNK         0.0889 
     83 H83       -50.1837  -22.9209    2.6639 H         1 UNK         0.0889 
     84 H84       -51.7113  -23.0968    3.5310 H         1 UNK         0.0889 
     85 H85       -51.3997  -23.5460    5.6627 H         1 UNK         0.3028 
     86 H86       -50.4878  -24.0045    7.6032 H         1 UNK         0.0864 
     87 H87       -51.7936  -25.9758    7.1041 H         1 UNK         0.0720 
     88 H88       -50.4887  -26.3398    8.1839 H         1 UNK         0.0720 
     89 H89       -51.2370  -29.6245    5.9584 H         1 UNK         0.0814 
     90 H90       -52.4304  -28.3507    5.9087 H         1 UNK         0.0814 
     91 H91       -49.8500  -29.7891    8.2592 H         1 UNK         0.1469 
     92 H92       -52.2796  -29.1435   11.7308 H         1 UNK         0.1381 
     93 H93       -53.7110  -27.9641    7.8699 H         1 UNK         0.1206 
     94 H94       -54.8662  -28.8706   11.0849 H         1 UNK         0.0813 
     95 H95       -55.1792  -27.7999    9.7422 H         1 UNK         0.0813 
     96 H96       -56.0830  -25.4185   12.3289 H         1 UNK         0.0638 
     97 H97       -56.5451  -27.0183   11.8231 H         1 UNK         0.0638 
     98 H98       -54.9581  -26.3599   14.3551 H         1 UNK         0.0568 
     99 H99       -56.2635  -27.3571   16.3880 H         1 UNK         0.3450 
    100 H100      -57.8929  -26.7173   16.5095 H         1 UNK         0.3450 
    101 H101      -54.5852  -28.4839   14.6713 H         1 UNK         0.2987 
    102 H102      -56.3239  -31.4757   14.1602 H         1 UNK         0.0766 
    103 H103      -54.2522  -32.3644   13.1391 H         1 UNK         0.0798 
    104 H104      -53.6969  -30.7349   12.7618 H         1 UNK         0.0798 
    105 H105      -55.1208  -31.3897   11.9662 H         1 UNK         0.0798 
    106 H106      -53.7135  -30.7120   15.2178 H         1 UNK         0.3198 
    107 H107      -54.8907  -29.9752   18.4786 H         1 UNK         0.0843 
    108 H108      -53.2004  -32.3469   17.5106 H         1 UNK         0.0831 
    109 H109      -54.6450  -32.4657   18.5047 H         1 UNK         0.0831 
    110 H110      -53.2142  -31.6755   19.1424 H         1 UNK         0.0831 
    111 H111      -52.2536  -30.0108   17.4844 H         1 UNK         0.3133 
    112 H112      -51.1903  -27.9340   17.3672 H         1 UNK         0.0566 
    113 H113      -50.5355  -27.5113   14.9841 H         1 UNK         0.0814 
    114 H114      -51.3234  -29.0702   15.1392 H         1 UNK         0.0814 
    115 H115      -52.2092  -27.7036   14.4735 H         1 UNK         0.0814 
    116 H116      -52.0658  -25.6540   15.8517 H         1 UNK         0.3091 
    117 H117      -53.3103  -23.6845   18.4420 H         1 UNK         0.0702 
    118 H118      -50.9669  -23.5111   19.2890 H         1 UNK         0.0785 
    119 H119      -50.3586  -23.4237   17.6418 H         1 UNK         0.0785 
    120 H120      -51.3722  -22.1300   18.2849 H         1 UNK         0.0785 
    121 H121      -52.0561  -23.0433   15.9133 H         1 UNK         0.2998 
    122 H122      -54.5415  -24.0783   13.7902 H         1 UNK         0.0697 
    123 H123      -54.4842  -21.1335   14.6329 H         1 UNK         0.0825 
    124 H124      -55.9144  -22.1555   14.6093 H         1 UNK         0.0825 
    125 H125      -55.1001  -21.7680   13.1052 H         1 UNK         0.0825 
    126 H126      -52.6491  -22.1237   13.2111 H         1 UNK         0.3029 
    127 H127      -50.8552  -23.0464   11.8037 H         1 UNK         0.0897 
    128 H128      -48.8485  -22.0891   13.0116 H         1 UNK         0.0792 
    129 H129      -49.4217  -22.7845   14.5251 H         1 UNK         0.0792 
    130 H130      -50.3385  -21.5097   13.7309 H         1 UNK         0.0792 
    131 H131      -49.8558  -25.3847   13.1797 H         1 UNK         0.3086 
    132 H132      -47.7425  -26.3692   12.4164 H         1 UNK         0.0583 
    133 H133      -49.9509  -27.3298   11.7928 H         1 UNK         0.1020 
    134 H134      -49.6059  -27.0849   10.0993 H         1 UNK         0.1020 
    135 H135      -49.5151  -31.0408   10.6385 H         1 UNK         0.0694 
    136 H136      -50.1702  -30.1725   12.0052 H         1 UNK         0.0694 
    137 H137      -47.3204  -26.0291    9.4792 H         1 UNK         0.2989 
    138 H138      -44.8442  -24.7478    9.2471 H         1 UNK         0.1055 
    139 H139      -42.9676  -25.3151   10.7229 H         1 UNK         0.0806 
    140 H140      -42.6399  -25.9415    9.1161 H         1 UNK         0.0806 
    141 H141      -43.1598  -27.0305   10.4026 H         1 UNK         0.0806 
    142 H142      -45.5226  -26.0966    7.6417 H         1 UNK         0.3061 
    143 H143      -45.2512  -29.3294    6.7321 H         1 UNK         0.0734 
    144 H144      -47.7467  -29.5873    6.5737 H         1 UNK         0.0832 
    145 H145      -47.1537  -29.9573    8.1867 H         1 UNK         0.0832 
    146 H146      -47.9389  -28.4151    7.8798 H         1 UNK         0.0832 
    147 H147      -46.9365  -26.9476    6.1573 H         1 UNK         0.3156 
    148 H148      -44.6149  -25.6590    3.7968 H         1 UNK         0.0589 
    149 H149      -45.9027  -27.2549    2.3988 H         1 UNK         0.0808 
    150 H150      -47.3700  -26.9108    3.3039 H         1 UNK         0.0808 
    151 H151      -46.6251  -25.6551    2.3161 H         1 UNK         0.0808 
    152 H152      -47.2204  -24.8254    4.6886 H         1 UNK         0.3098 
    153 H153      -46.2052  -23.2291    7.6700 H         1 UNK         0.0720 
    154 H154      -45.2163  -21.5305    6.1194 H         1 UNK         0.0791 
    155 H155      -46.8069  -21.0379    6.6730 H         1 UNK         0.0791 
    156 H156      -46.5996  -21.6892    5.0458 H         1 UNK         0.0791 
    157 H157      -48.5353  -22.8134    6.1176 H         1 UNK         0.3028 
@<TRIPOS>BOND
     1    1    2 1    
     2    1   82 1    
     3    1   83 1    
     4    1   84 1    
     5    2    3 2    
     6    2    4 am   BACKBONE|DICT|INTERRES
     7    4    5 1    
     8    4   85 1    
     9    5    6 1    
    10    5   80 1    
    11    5   86 1    
    12    6    7 1    
    13    6   87 1    
    14    6   88 1    
    15    7    8 1    
    16    8    9 1    
    17    8   89 1    
    18    8   90 1    
    19    9   10 ar   
    20    9   14 ar   
    21   10   11 ar   
    22   10   91 1    
    23   11   12 ar   
    24   11   58 1    
    25   12   13 ar   
    26   12   92 1    
    27   13   14 ar   
    28   13   15 1    
    29   14   93 1    
    30   15   16 1    
    31   15   94 1    
    32   15   95 1    
    33   16   17 1    
    34   17   18 1    
    35   17   96 1    
    36   17   97 1    
    37   18   19 1    
    38   18   22 1    
    39   18   98 1    
    40   19   20 am   BACKBONE|DICT|INTERRES
    41   19   21 2    
    42   20   99 1    
    43   20  100 1    
    44   22   23 am   BACKBONE|DICT|INTERRES
    45   22  101 1    
    46   23   24 2    
    47   23   25 1    
    48   25   26 1    
    49   25   27 1    
    50   25  102 1    
    51   26  103 1    
    52   26  104 1    
    53   26  105 1    
    54   27   28 am   BACKBONE|DICT|INTERRES
    55   27  106 1    
    56   28   29 2    
    57   28   30 1    
    58   30   31 1    
    59   30   32 1    
    60   30  107 1    
    61   31  108 1    
    62   31  109 1    
    63   31  110 1    
    64   32   33 am   BACKBONE|DICT|INTERRES
    65   32  111 1    
    66   33   34 2    
    67   33   35 1    
    68   35   36 1    
    69   35   37 1    
    70   35  112 1    
    71   36  113 1    
    72   36  114 1    
    73   36  115 1    
    74   37   38 am   BACKBONE|DICT|INTERRES
    75   37  116 1    
    76   38   39 2    
    77   38   40 1    
    78   40   41 1    
    79   40   42 1    
    80   40  117 1    
    81   41  118 1    
    82   41  119 1    
    83   41  120 1    
    84   42   43 am   BACKBONE|DICT|INTERRES
    85   42  121 1    
    86   43   44 2    
    87   43   45 1    
    88   45   46 1    
    89   45   47 1    
    90   45  122 1    
    91   46  123 1    
    92   46  124 1    
    93   46  125 1    
    94   47   48 am   BACKBONE|DICT|INTERRES
    95   47  126 1    
    96   48   49 2    
    97   48   50 1    
    98   50   51 1    
    99   50   52 1    
   100   50  127 1    
   101   51  128 1    
   102   51  129 1    
   103   51  130 1    
   104   52   53 am   BACKBONE|DICT|INTERRES
   105   52  131 1    
   106   53   54 2    
   107   53   55 1    
   108   55   56 1    
   109   55   59 1    
   110   55  132 1    
   111   56   57 1    
   112   56  133 1    
   113   56  134 1    
   114   57   58 1    
   115   58  135 1    
   116   58  136 1    
   117   59   60 am   BACKBONE|DICT|INTERRES
   118   59  137 1    
   119   60   61 2    
   120   60   62 1    
   121   62   63 1    
   122   62   64 1    
   123   62  138 1    
   124   63  139 1    
   125   63  140 1    
   126   63  141 1    
   127   64   65 am   BACKBONE|DICT|INTERRES
   128   64  142 1    
   129   65   66 2    
   130   65   67 1    
   131   67   68 1    
   132   67   69 1    
   133   67  143 1    
   134   68  144 1    
   135   68  145 1    
   136   68  146 1    
   137   69   70 am   BACKBONE|DICT|INTERRES
   138   69  147 1    
   139   70   71 2    
   140   70   72 1    
   141   72   73 1    
   142   72   74 1    
   143   72  148 1    
   144   73  149 1    
   145   73  150 1    
   146   73  151 1    
   147   74   75 am   BACKBONE|DICT|INTERRES
   148   74  152 1    
   149   75   76 2    
   150   75   77 1    
   151   77   78 1    
   152   77   79 1    
   153   77  153 1    
   154   78  154 1    
   155   78  155 1    
   156   78  156 1    
   157   79   80 am   BACKBONE|DICT|INTERRES
   158   79  157 1    
   159   80   81 2    
@<TRIPOS>SUBSTRUCTURE
     1 UNK         1 GROUP             0       ****    0 ROOT    
