@<TRIPOS>MOLECULE
3R207
157   159    1
SMALL
USER_CHARGES


@<TRIPOS>ATOM
      1 CA        -46.4852  -27.5312   11.0806 C.3       0 UNK        -0.1975 
      2 C         -46.5342  -28.2235    9.7258 C.2       0 UNK         0.4852 
      3 O         -46.0862  -29.3645    9.6042 O.2       0 UNK        -0.5216 
      4 N         -47.0783  -27.5340    8.7197 N.am      1 UNK        -0.4461 
      5 CA        -47.2401  -27.9830    7.3386 C.3       1 UNK         0.0864 
      6 C6        -48.7391  -28.0071    6.9231 C.3       14 UNK        -0.0898 
      7 S7        -49.6884  -29.2195    7.8976 S.3       14 UNK        -0.2598 
      8 C8        -51.2914  -29.2174    7.0373 C.3       14 UNK         0.0286 
      9 C9        -52.3343  -28.4172    7.8022 C.ar      14 UNK        -0.0844 
     10 C10       -52.7416  -27.1567    7.3573 C.ar      14 UNK        -0.0881 
     11 C11       -53.7273  -26.4478    8.0512 C.ar      14 UNK        -0.0643 
     12 C12       -54.3056  -27.0120    9.1945 C.ar      14 UNK        -0.0930 
     13 C13       -53.9147  -28.2792    9.6487 C.ar      14 UNK        -0.0827 
     14 C14       -52.9226  -28.9666    8.9443 C.ar      14 UNK        -0.1249 
     15 C15       -54.5296  -28.9612   10.8751 C.3       14 UNK         0.0141 
     16 S16       -56.1326  -28.2871   11.4360 S.3       14 UNK        -0.2313 
     17 C17       -56.8631  -29.7403   12.2583 C.3       14 UNK        -0.0915 
     18 CA        -57.7707  -29.3630   13.4584 C.3       13 UNK         0.0968 
     19 C         -58.6175  -30.5928   13.8909 C.2       13 UNK         0.5732 
     20 N         -59.8646  -30.6768   13.4476 N.am      13 UNK        -0.7310 
     21 O         -58.1383  -31.4912   14.5799 O.2       13 UNK        -0.5035 
     22 N         -56.9829  -28.7971   14.5638 N.am      13 UNK        -0.4233 
     23 C         -57.4750  -28.3326   15.7216 C.2       13 UNK         0.4989 
     24 O         -58.6807  -28.2204   15.9503 O.2       13 UNK        -0.4996 
     25 CA        -56.4608  -27.8852   16.7987 C.3       12 UNK         0.0216 
     26 CB        -56.9389  -28.2102   18.2305 C.3       12 UNK        -0.1964 
     27 N         -55.0862  -28.3634   16.5770 N.am      12 UNK        -0.4276 
     28 C         -54.6579  -29.6362   16.5789 C.2       12 UNK         0.5020 
     29 O         -55.3737  -30.6028   16.8395 O.2       12 UNK        -0.5489 
     30 CA        -53.1989  -29.8936   16.1701 C.3       11 UNK         0.0294 
     31 CB        -53.1258  -30.2227   14.6690 C.3       11 UNK        -0.2019 
     32 N         -52.2859  -28.7862   16.4590 N.am      11 UNK        -0.4493 
     33 C         -51.8238  -28.4779   17.6790 C.2       11 UNK         0.4932 
     34 O         -52.1922  -29.0379   18.7115 O.2       11 UNK        -0.5029 
     35 CA        -50.7552  -27.3774   17.7631 C.3       10 UNK         0.0280 
     36 CB        -49.3778  -27.9404   17.3747 C.3       10 UNK        -0.1976 
     37 N         -51.0808  -26.2547   16.8840 N.am      10 UNK        -0.4242 
     38 C         -51.4570  -25.0368   17.2984 C.2       10 UNK         0.5072 
     39 O         -51.4988  -24.6946   18.4813 O.2       10 UNK        -0.5224 
     40 CA        -51.8672  -24.0162   16.2166 C.3       9 UNK         0.0343 
     41 CB        -50.6806  -23.1058   15.8612 C.3       9 UNK        -0.2003 
     42 N         -52.3912  -24.6185   14.9871 N.am      9 UNK        -0.4272 
     43 C         -53.4757  -25.4037   14.9166 C.2       9 UNK         0.4988 
     44 O         -54.1887  -25.6770   15.8801 O.2       9 UNK        -0.5108 
     45 CA        -53.7980  -26.0414   13.5552 C.3       8 UNK         0.0248 
     46 CB        -54.7282  -25.1077   12.7643 C.3       8 UNK        -0.2001 
     47 N         -52.6320  -26.3763   12.7282 N.am      8 UNK        -0.4140 
     48 C         -51.5169  -27.0235   13.1038 C.2       8 UNK         0.5028 
     49 O         -51.3165  -27.4323   14.2481 O.2       8 UNK        -0.5428 
     50 CA        -50.4289  -27.2422   12.0373 C.3       7 UNK         0.0264 
     51 CB        -50.2982  -28.7364   11.7037 C.3       7 UNK        -0.1988 
     52 N         -50.6467  -26.4854   10.7996 N.am      7 UNK        -0.4454 
     53 C         -50.5280  -25.1542   10.6890 C.2       7 UNK         0.5027 
     54 O         -50.2374  -24.4076   11.6261 O.2       7 UNK        -0.5083 
     55 CA        -50.8519  -24.5579    9.3070 C.3       6 UNK         0.0844 
     56 C56       -52.2718  -23.9412    9.2930 C.3       14 UNK        -0.0967 
     57 S57       -52.8884  -23.8110    7.5829 S.3       14 UNK        -0.2604 
     58 C58       -54.1964  -25.0835    7.5539 C.3       14 UNK         0.0134 
     59 N         -49.8398  -23.5846    8.8868 N.am      6 UNK        -0.4116 
     60 C         -48.5512  -23.8745    8.6751 C.2       5 UNK         0.5034 
     61 O         -48.0947  -25.0136    8.7778 O.2       5 UNK        -0.5045 
     62 CA        -47.6378  -22.7187    8.2262 C.3       5 UNK         0.0224 
     63 CB        -47.8324  -21.4323    9.0600 C.3       5 UNK        -0.1978 
     64 N         -46.2267  -23.1253    8.1796 N.am      5 UNK        -0.4737 
     65 C         -45.4169  -23.4307    9.2076 C.2       4 UNK         0.5027 
     66 O         -45.7296  -23.2960   10.3912 O.2       4 UNK        -0.5211 
     67 CA        -44.0188  -23.9932    8.8751 C.3       4 UNK         0.0297 
     68 CB        -43.7846  -25.3460    9.5685 C.3       4 UNK        -0.1993 
     69 N         -43.7910  -24.1519    7.4358 N.am      4 UNK        -0.4486 
     70 C         -43.3683  -23.1713    6.6248 C.2       3 UNK         0.4961 
     71 O         -43.0485  -22.0506    7.0222 O.2       3 UNK        -0.5105 
     72 CA        -43.3067  -23.4666    5.1138 C.3       3 UNK         0.0299 
     73 CB        -41.8565  -23.7367    4.6805 C.3       3 UNK        -0.1972 
     74 N         -44.1523  -24.5798    4.6717 N.am      3 UNK        -0.4305 
     75 C         -45.4894  -24.6339    4.7549 C.2       2 UNK         0.5006 
     76 O         -46.1804  -23.7389    5.2439 O.2       2 UNK        -0.5106 
     77 CA        -46.1777  -25.9080    4.2249 C.3       2 UNK         0.0296 
     78 CB        -45.2405  -26.8513    3.4348 C.3       2 UNK        -0.2002 
     79 N         -46.8656  -26.6574    5.2839 N.am      2 UNK        -0.4032 
     80 C         -46.3418  -27.1042    6.4378 C.2       1 UNK         0.5000 
     81 O         -45.1799  -26.8712    6.7867 O.2       1 UNK        -0.5238 
     82 H82       -45.4557  -27.4621   11.4306 H         1 UNK         0.0889 
     83 H83       -47.0585  -28.0984   11.8131 H         1 UNK         0.0889 
     84 H84       -46.8961  -26.5218   11.0351 H         1 UNK         0.0889 
     85 H85       -47.4012  -26.5777    8.8770 H         1 UNK         0.3028 
     86 H86       -46.8496  -28.9968    7.2307 H         1 UNK         0.0864 
     87 H87       -48.8460  -28.2906    5.8748 H         1 UNK         0.0720 
     88 H88       -49.1976  -27.0231    7.0415 H         1 UNK         0.0720 
     89 H89       -51.1810  -28.8420    6.0190 H         1 UNK         0.0814 
     90 H90       -51.6345  -30.2484    6.9398 H         1 UNK         0.0814 
     91 H91       -52.2998  -26.7266    6.4686 H         1 UNK         0.1469 
     92 H92       -55.0769  -26.4622    9.7125 H         1 UNK         0.1381 
     93 H93       -52.6106  -29.9471    9.2785 H         1 UNK         0.1206 
     94 H94       -54.6665  -30.0192   10.6452 H         1 UNK         0.0813 
     95 H95       -53.8196  -28.9132   11.7005 H         1 UNK         0.0813 
     96 H96       -57.4321  -30.2783   11.4974 H         1 UNK         0.0638 
     97 H97       -56.0715  -30.4184   12.5834 H         1 UNK         0.0638 
     98 H98       -58.4609  -28.5824   13.1325 H         1 UNK         0.0568 
     99 H99       -60.2633  -29.9527   12.8705 H         1 UNK         0.3450 
    100 H100      -60.4221  -31.4765   13.7039 H         1 UNK         0.3450 
    101 H101      -55.9833  -28.8645   14.4681 H         1 UNK         0.2987 
    102 H102      -56.4154  -26.7988   16.7173 H         1 UNK         0.0766 
    103 H103      -56.2155  -27.8774   18.9748 H         1 UNK         0.0798 
    104 H104      -57.8821  -27.7096   18.4522 H         1 UNK         0.0798 
    105 H105      -57.1000  -29.2792   18.3725 H         1 UNK         0.0798 
    106 H106      -54.4193  -27.6270   16.3660 H         1 UNK         0.3198 
    107 H107      -52.8550  -30.7692   16.7255 H         1 UNK         0.0843 
    108 H108      -53.7645  -31.0720   14.4219 H         1 UNK         0.0831 
    109 H109      -52.1107  -30.4835   14.3687 H         1 UNK         0.0831 
    110 H110      -53.4488  -29.3815   14.0563 H         1 UNK         0.0831 
    111 H111      -51.9053  -28.2936   15.6505 H         1 UNK         0.3133 
    112 H112      -50.7019  -27.0481   18.8028 H         1 UNK         0.0566 
    113 H113      -49.3562  -28.2838   16.3393 H         1 UNK         0.0814 
    114 H114      -49.1095  -28.7881   18.0067 H         1 UNK         0.0814 
    115 H115      -48.5973  -27.1886   17.4929 H         1 UNK         0.0814 
    116 H116      -51.0995  -26.4559   15.8879 H         1 UNK         0.3091 
    117 H117      -52.6602  -23.3967   16.6407 H         1 UNK         0.0702 
    118 H118      -50.9782  -22.3159   15.1712 H         1 UNK         0.0785 
    119 H119      -49.8664  -23.6664   15.3998 H         1 UNK         0.0785 
    120 H120      -50.2793  -22.6208   16.7523 H         1 UNK         0.0785 
    121 H121      -51.8599  -24.4607   14.1423 H         1 UNK         0.2998 
    122 H122      -54.3299  -26.9742   13.7488 H         1 UNK         0.0697 
    123 H123      -55.0561  -25.5600   11.8310 H         1 UNK         0.0825 
    124 H124      -54.2426  -24.1611   12.5237 H         1 UNK         0.0825 
    125 H125      -55.6274  -24.8763   13.3375 H         1 UNK         0.0825 
    126 H126      -52.6880  -26.1052   11.7591 H         1 UNK         0.3029 
    127 H127      -49.4858  -26.9076   12.4747 H         1 UNK         0.0897 
    128 H128      -49.4887  -28.9170   10.9965 H         1 UNK         0.0792 
    129 H129      -50.0783  -29.3192   12.5995 H         1 UNK         0.0792 
    130 H130      -51.2154  -29.1377   11.2734 H         1 UNK         0.0792 
    131 H131      -50.8971  -27.0259    9.9816 H         1 UNK         0.3086 
    132 H132      -50.8193  -25.3788    8.5870 H         1 UNK         0.0583 
    133 H133      -52.9780  -24.5302    9.8801 H         1 UNK         0.1020 
    134 H134      -52.2721  -22.9506    9.7519 H         1 UNK         0.1020 
    135 H135      -55.0406  -24.7258    8.1455 H         1 UNK         0.0694 
    136 H136      -54.5641  -25.1854    6.5320 H         1 UNK         0.0694 
    137 H137      -50.1531  -22.6319    8.7808 H         1 UNK         0.2989 
    138 H138      -47.9131  -22.4958    7.1939 H         1 UNK         0.1055 
    139 H139      -48.8147  -20.9916    8.8886 H         1 UNK         0.0806 
    140 H140      -47.0952  -20.6742    8.7951 H         1 UNK         0.0806 
    141 H141      -47.7451  -21.6228   10.1304 H         1 UNK         0.0806 
    142 H142      -45.8859  -23.3213    7.2442 H         1 UNK         0.3061 
    143 H143      -43.2896  -23.2863    9.2766 H         1 UNK         0.0734 
    144 H144      -43.8941  -25.2589   10.6503 H         1 UNK         0.0832 
    145 H145      -44.4955  -26.0976    9.2289 H         1 UNK         0.0832 
    146 H146      -42.7804  -25.7233    9.3753 H         1 UNK         0.0832 
    147 H147      -44.0680  -25.0420    7.0327 H         1 UNK         0.3156 
    148 H148      -43.6545  -22.5694    4.5976 H         1 UNK         0.0589 
    149 H149      -41.4582  -24.6400    5.1447 H         1 UNK         0.0808 
    150 H150      -41.7781  -23.8503    3.5991 H         1 UNK         0.0808 
    151 H151      -41.2033  -22.9102    4.9644 H         1 UNK         0.0808 
    152 H152      -43.6748  -25.3787    4.2797 H         1 UNK         0.3098 
    153 H153      -46.9514  -25.5638    3.5370 H         1 UNK         0.0720 
    154 H154      -45.8004  -27.6817    3.0042 H         1 UNK         0.0791 
    155 H155      -44.7611  -26.3319    2.6036 H         1 UNK         0.0791 
    156 H156      -44.4576  -27.2794    4.0623 H         1 UNK         0.0791 
    157 H157      -47.8382  -26.8584    5.1020 H         1 UNK         0.3028 
@<TRIPOS>BOND
     1    1    2 1    
     2    1   82 1    
     3    1   83 1    
     4    1   84 1    
     5    2    3 2    
     6    2    4 am   BACKBONE|DICT|INTERRES
     7    4    5 1    
     8    4   85 1    
     9    5    6 1    
    10    5   80 1    
    11    5   86 1    
    12    6    7 1    
    13    6   87 1    
    14    6   88 1    
    15    7    8 1    
    16    8    9 1    
    17    8   89 1    
    18    8   90 1    
    19    9   10 ar   
    20    9   14 ar   
    21   10   11 ar   
    22   10   91 1    
    23   11   12 ar   
    24   11   58 1    
    25   12   13 ar   
    26   12   92 1    
    27   13   14 ar   
    28   13   15 1    
    29   14   93 1    
    30   15   16 1    
    31   15   94 1    
    32   15   95 1    
    33   16   17 1    
    34   17   18 1    
    35   17   96 1    
    36   17   97 1    
    37   18   19 1    
    38   18   22 1    
    39   18   98 1    
    40   19   20 am   BACKBONE|DICT|INTERRES
    41   19   21 2    
    42   20   99 1    
    43   20  100 1    
    44   22   23 am   BACKBONE|DICT|INTERRES
    45   22  101 1    
    46   23   24 2    
    47   23   25 1    
    48   25   26 1    
    49   25   27 1    
    50   25  102 1    
    51   26  103 1    
    52   26  104 1    
    53   26  105 1    
    54   27   28 am   BACKBONE|DICT|INTERRES
    55   27  106 1    
    56   28   29 2    
    57   28   30 1    
    58   30   31 1    
    59   30   32 1    
    60   30  107 1    
    61   31  108 1    
    62   31  109 1    
    63   31  110 1    
    64   32   33 am   BACKBONE|DICT|INTERRES
    65   32  111 1    
    66   33   34 2    
    67   33   35 1    
    68   35   36 1    
    69   35   37 1    
    70   35  112 1    
    71   36  113 1    
    72   36  114 1    
    73   36  115 1    
    74   37   38 am   BACKBONE|DICT|INTERRES
    75   37  116 1    
    76   38   39 2    
    77   38   40 1    
    78   40   41 1    
    79   40   42 1    
    80   40  117 1    
    81   41  118 1    
    82   41  119 1    
    83   41  120 1    
    84   42   43 am   BACKBONE|DICT|INTERRES
    85   42  121 1    
    86   43   44 2    
    87   43   45 1    
    88   45   46 1    
    89   45   47 1    
    90   45  122 1    
    91   46  123 1    
    92   46  124 1    
    93   46  125 1    
    94   47   48 am   BACKBONE|DICT|INTERRES
    95   47  126 1    
    96   48   49 2    
    97   48   50 1    
    98   50   51 1    
    99   50   52 1    
   100   50  127 1    
   101   51  128 1    
   102   51  129 1    
   103   51  130 1    
   104   52   53 am   BACKBONE|DICT|INTERRES
   105   52  131 1    
   106   53   54 2    
   107   53   55 1    
   108   55   56 1    
   109   55   59 1    
   110   55  132 1    
   111   56   57 1    
   112   56  133 1    
   113   56  134 1    
   114   57   58 1    
   115   58  135 1    
   116   58  136 1    
   117   59   60 am   BACKBONE|DICT|INTERRES
   118   59  137 1    
   119   60   61 2    
   120   60   62 1    
   121   62   63 1    
   122   62   64 1    
   123   62  138 1    
   124   63  139 1    
   125   63  140 1    
   126   63  141 1    
   127   64   65 am   BACKBONE|DICT|INTERRES
   128   64  142 1    
   129   65   66 2    
   130   65   67 1    
   131   67   68 1    
   132   67   69 1    
   133   67  143 1    
   134   68  144 1    
   135   68  145 1    
   136   68  146 1    
   137   69   70 am   BACKBONE|DICT|INTERRES
   138   69  147 1    
   139   70   71 2    
   140   70   72 1    
   141   72   73 1    
   142   72   74 1    
   143   72  148 1    
   144   73  149 1    
   145   73  150 1    
   146   73  151 1    
   147   74   75 am   BACKBONE|DICT|INTERRES
   148   74  152 1    
   149   75   76 2    
   150   75   77 1    
   151   77   78 1    
   152   77   79 1    
   153   77  153 1    
   154   78  154 1    
   155   78  155 1    
   156   78  156 1    
   157   79   80 am   BACKBONE|DICT|INTERRES
   158   79  157 1    
   159   80   81 2    
@<TRIPOS>SUBSTRUCTURE
     1 UNK         1 GROUP             0       ****    0 ROOT    
