@<TRIPOS>MOLECULE
3R207
157   159    1
SMALL
USER_CHARGES


@<TRIPOS>ATOM
      1 CA        -46.6903  -27.1455   11.3210 C.3       0 UNK        -0.1975 
      2 C         -46.7413  -28.1709   10.1980 C.2       0 UNK         0.4852 
      3 O         -46.1905  -29.2628   10.3406 O.2       0 UNK        -0.5216 
      4 N         -47.3918  -27.8244    9.0811 N.am      1 UNK        -0.4461 
      5 CA        -47.5162  -28.6624    7.8803 C.3       1 UNK         0.0864 
      6 C6        -48.7809  -28.3022    7.0600 C.3       14 UNK        -0.0898 
      7 S7        -50.2944  -28.4606    8.0585 S.3       14 UNK        -0.2598 
      8 C8        -51.5789  -27.9116    6.8988 C.3       14 UNK         0.0286 
      9 C9        -52.7364  -27.2958    7.6674 C.ar      14 UNK        -0.0844 
     10 C10       -52.9020  -25.9090    7.6910 C.ar      14 UNK        -0.0881 
     11 C11       -53.9150  -25.3244    8.4575 C.ar      14 UNK        -0.0643 
     12 C12       -54.7955  -26.1482    9.1677 C.ar      14 UNK        -0.0930 
     13 C13       -54.6621  -27.5401    9.1238 C.ar      14 UNK        -0.0827 
     14 C14       -53.6259  -28.1075    8.3773 C.ar      14 UNK        -0.1249 
     15 C15       -55.6580  -28.4347    9.8472 C.3       14 UNK         0.0141 
     16 S16       -55.0252  -29.0224   11.4492 S.3       14 UNK        -0.2313 
     17 C17       -56.4578  -30.0024   12.0092 C.3       14 UNK        -0.0915 
     18 CA        -57.3692  -29.2277   12.9983 C.3       13 UNK         0.0968 
     19 C         -58.7445  -29.9406   13.1534 C.2       13 UNK         0.5732 
     20 N         -59.0654  -30.5330   14.2983 N.am      13 UNK        -0.7310 
     21 O         -59.5388  -29.9482   12.2160 O.2       13 UNK        -0.5035 
     22 N         -56.6853  -28.9744   14.2749 N.am      13 UNK        -0.4233 
     23 C         -57.0335  -28.0433   15.1702 C.2       13 UNK         0.4989 
     24 O         -57.9187  -27.2107   14.9713 O.2       13 UNK        -0.4996 
     25 CA        -56.2776  -28.0138   16.5165 C.3       12 UNK         0.0216 
     26 CB        -57.1493  -28.5938   17.6486 C.3       12 UNK        -0.1964 
     27 N         -54.9362  -28.6264   16.5088 N.am      12 UNK        -0.4276 
     28 C         -54.6059  -29.9140   16.3273 C.2       12 UNK         0.5020 
     29 O         -55.4353  -30.8025   16.1299 O.2       12 UNK        -0.5489 
     30 CA        -53.1132  -30.2800   16.2765 C.3       11 UNK         0.0294 
     31 CB        -52.7561  -30.8291   14.8831 C.3       11 UNK        -0.2019 
     32 N         -52.2136  -29.1637   16.5802 N.am      11 UNK        -0.4493 
     33 C         -51.8186  -28.8085   17.8103 C.2       11 UNK         0.4932 
     34 O         -52.2514  -29.3273   18.8392 O.2       11 UNK        -0.5029 
     35 CA        -50.7592  -27.7004   17.9187 C.3       10 UNK         0.0280 
     36 CB        -49.3531  -28.2808   17.6939 C.3       10 UNK        -0.1976 
     37 N         -50.9961  -26.6223   16.9561 N.am      10 UNK        -0.4242 
     38 C         -51.1542  -25.3280   17.2721 C.2       10 UNK         0.5072 
     39 O         -51.0667  -24.8853   18.4185 O.2       10 UNK        -0.5224 
     40 CA        -51.4705  -24.3461   16.1234 C.3       9 UNK         0.0343 
     41 CB        -50.1868  -23.6498   15.6438 C.3       9 UNK        -0.2003 
     42 N         -52.1288  -24.9689   14.9729 N.am      9 UNK        -0.4272 
     43 C         -53.3220  -25.5801   15.0092 C.2       9 UNK         0.4988 
     44 O         -54.0533  -25.5838   15.9978 O.2       9 UNK        -0.5108 
     45 CA        -53.7601  -26.3698   13.7617 C.3       8 UNK         0.0248 
     46 CB        -54.7999  -25.5638   12.9666 C.3       8 UNK        -0.2001 
     47 N         -52.6732  -26.7854   12.8672 N.am      8 UNK        -0.4140 
     48 C         -51.5719  -27.4748   13.2070 C.2       8 UNK         0.5028 
     49 O         -51.3217  -27.8458   14.3542 O.2       8 UNK        -0.5428 
     50 CA        -50.5465  -27.7473   12.0956 C.3       7 UNK         0.0264 
     51 CB        -50.7534  -29.1547   11.5171 C.3       7 UNK        -0.1988 
     52 N         -50.5879  -26.7490   11.0210 N.am      7 UNK        -0.4454 
     53 C         -50.2772  -25.4548   11.1859 C.2       7 UNK         0.5027 
     54 O         -49.8441  -24.9812   12.2387 O.2       7 UNK        -0.5083 
     55 CA        -50.5814  -24.5178   10.0075 C.3       6 UNK         0.0844 
     56 C56       -51.8669  -23.7013   10.2960 C.3       14 UNK        -0.0967 
     57 S57       -52.5065  -22.9046    8.7860 S.3       14 UNK        -0.2604 
     58 C58       -54.0747  -23.8065    8.5165 C.3       14 UNK         0.0134 
     59 N         -49.4318  -23.6526    9.7426 N.am      6 UNK        -0.4116 
     60 C         -48.3245  -24.0511    9.1089 C.2       5 UNK         0.5034 
     61 O         -48.1680  -25.1829    8.6444 O.2       5 UNK        -0.5045 
     62 CA        -47.1807  -23.0338    9.0061 C.3       5 UNK         0.0224 
     63 CB        -46.0669  -23.3788   10.0082 C.3       5 UNK        -0.1978 
     64 N         -46.6332  -23.0314    7.6489 N.am      5 UNK        -0.4737 
     65 C         -47.1776  -22.3561    6.6258 C.2       4 UNK         0.5027 
     66 O         -48.1532  -21.6155    6.7596 O.2       4 UNK        -0.5211 
     67 CA        -46.5702  -22.5409    5.2168 C.3       4 UNK         0.0297 
     68 CB        -46.5635  -21.2279    4.4043 C.3       4 UNK        -0.1993 
     69 N         -45.2487  -23.1814    5.1966 N.am      4 UNK        -0.4486 
     70 C         -44.0959  -22.7169    5.7036 C.2       3 UNK         0.4961 
     71 O         -43.9675  -21.6027    6.2129 O.2       3 UNK        -0.5105 
     72 CA        -42.8885  -23.6815    5.6470 C.3       3 UNK         0.0299 
     73 CB        -41.8384  -23.3696    6.7350 C.3       3 UNK        -0.1972 
     74 N         -43.2557  -25.1083    5.6888 N.am      3 UNK        -0.4305 
     75 C         -43.9751  -25.7201    6.6412 C.2       2 UNK         0.5006 
     76 O         -44.4556  -25.1435    7.6209 O.2       2 UNK        -0.5106 
     77 CA        -44.2220  -27.2210    6.4602 C.3       2 UNK         0.0296 
     78 CB        -43.0338  -28.0482    6.9826 C.3       2 UNK        -0.2002 
     79 N         -45.4294  -27.5513    7.2054 N.am      2 UNK        -0.4032 
     80 C         -46.2562  -28.5807    6.9913 C.2       1 UNK         0.5000 
     81 O         -46.0648  -29.4407    6.1292 O.2       1 UNK        -0.5238 
     82 H82       -47.3159  -26.2789   11.1111 H         1 UNK         0.0889 
     83 H83       -45.6675  -26.7988   11.4654 H         1 UNK         0.0889 
     84 H84       -47.0344  -27.5912   12.2536 H         1 UNK         0.0889 
     85 H85       -47.8000  -26.8933    8.9983 H         1 UNK         0.3028 
     86 H86       -47.6096  -29.7039    8.1960 H         1 UNK         0.0864 
     87 H87       -48.8770  -28.9534    6.1889 H         1 UNK         0.0720 
     88 H88       -48.7164  -27.2790    6.6840 H         1 UNK         0.0720 
     89 H89       -51.9263  -28.7607    6.3086 H         1 UNK         0.0814 
     90 H90       -51.1617  -27.1906    6.1940 H         1 UNK         0.0814 
     91 H91       -52.2218  -25.2780    7.1352 H         1 UNK         0.1469 
     92 H92       -55.5961  -25.7062    9.7448 H         1 UNK         0.1381 
     93 H93       -53.5064  -29.1824    8.3542 H         1 UNK         0.1206 
     94 H94       -56.5970  -27.9023   10.0068 H         1 UNK         0.0813 
     95 H95       -55.8962  -29.2931    9.2171 H         1 UNK         0.0813 
     96 H96       -56.0858  -30.9167   12.4749 H         1 UNK         0.0638 
     97 H97       -57.0182  -30.3254   11.1297 H         1 UNK         0.0638 
     98 H98       -57.5922  -28.2579   12.5492 H         1 UNK         0.0568 
     99 H99       -59.9611  -30.9866   14.3846 H         1 UNK         0.3450 
    100 H100      -58.4145  -30.5475   15.0670 H         1 UNK         0.3450 
    101 H101      -56.0141  -29.6733   14.5700 H         1 UNK         0.2987 
    102 H102      -56.1198  -26.9597   16.7463 H         1 UNK         0.0766 
    103 H103      -57.3880  -29.6450   17.4865 H         1 UNK         0.0798 
    104 H104      -58.0960  -28.0570   17.7243 H         1 UNK         0.0798 
    105 H105      -56.6517  -28.5081   18.6146 H         1 UNK         0.0798 
    106 H106      -54.1746  -27.9721   16.6307 H         1 UNK         0.3198 
    107 H107      -52.9503  -31.0758   17.0067 H         1 UNK         0.0843 
    108 H108      -52.9703  -30.1054   14.0955 H         1 UNK         0.0831 
    109 H109      -53.3289  -31.7298   14.6580 H         1 UNK         0.0831 
    110 H110      -51.7008  -31.0944   14.8170 H         1 UNK         0.0831 
    111 H111      -51.8075  -28.6931   15.7700 H         1 UNK         0.3133 
    112 H112      -50.8054  -27.3157   18.9396 H         1 UNK         0.0566 
    113 H113      -49.2351  -28.6758   16.6839 H         1 UNK         0.0814 
    114 H114      -49.1493  -29.0951   18.3907 H         1 UNK         0.0814 
    115 H115      -48.5847  -27.5230   17.8479 H         1 UNK         0.0814 
    116 H116      -51.0822  -26.8970   15.9809 H         1 UNK         0.3091 
    117 H117      -52.1471  -23.5865   16.5205 H         1 UNK         0.0702 
    118 H118      -50.4039  -22.8888   14.8939 H         1 UNK         0.0785 
    119 H119      -49.4833  -24.3594   15.2056 H         1 UNK         0.0785 
    120 H120      -49.6782  -23.1528   16.4712 H         1 UNK         0.0785 
    121 H121      -51.5866  -25.0238   14.1213 H         1 UNK         0.2998 
    122 H122      -54.2368  -27.2854   14.1127 H         1 UNK         0.0697 
    123 H123      -55.6346  -25.2689   13.6045 H         1 UNK         0.0825 
    124 H124      -55.2202  -26.1491   12.1505 H         1 UNK         0.0825 
    125 H125      -54.3732  -24.6526   12.5464 H         1 UNK         0.0825 
    126 H126      -52.7964  -26.5689   11.8896 H         1 UNK         0.3029 
    127 H127      -49.5576  -27.7087   12.5565 H         1 UNK         0.0897 
    128 H128      -51.6901  -29.2321   10.9629 H         1 UNK         0.0792 
    129 H129      -50.7797  -29.9047   12.3091 H         1 UNK         0.0792 
    130 H130      -49.9388  -29.4288   10.8469 H         1 UNK         0.0792 
    131 H131      -50.9086  -27.0718   10.1160 H         1 UNK         0.3086 
    132 H132      -50.7470  -25.1362    9.1243 H         1 UNK         0.0583 
    133 H133      -52.6510  -24.3341   10.7150 H         1 UNK         0.1020 
    134 H134      -51.6791  -22.9326   11.0483 H         1 UNK         0.1020 
    135 H135      -54.7705  -23.5254    9.3087 H         1 UNK         0.0694 
    136 H136      -54.5191  -23.4649    7.5809 H         1 UNK         0.0694 
    137 H137      -49.4790  -22.7188   10.1218 H         1 UNK         0.2989 
    138 H138      -47.5573  -22.0358    9.2419 H         1 UNK         0.1055 
    139 H139      -45.6796  -24.3866    9.8544 H         1 UNK         0.0806 
    140 H140      -46.4353  -23.3267   11.0337 H         1 UNK         0.0806 
    141 H141      -45.2305  -22.6843    9.9268 H         1 UNK         0.0806 
    142 H142      -45.8555  -23.6606    7.4763 H         1 UNK         0.3061 
    143 H143      -47.2387  -23.2338    4.7036 H         1 UNK         0.0734 
    144 H144      -45.9814  -20.4487    4.8970 H         1 UNK         0.0832 
    145 H145      -46.1488  -21.3784    3.4077 H         1 UNK         0.0832 
    146 H146      -47.5752  -20.8411    4.2760 H         1 UNK         0.0832 
    147 H147      -45.2298  -24.1123    4.8042 H         1 UNK         0.3156 
    148 H148      -42.4175  -23.5154    4.6771 H         1 UNK         0.0589 
    149 H149      -40.9858  -24.0455    6.6698 H         1 UNK         0.0808 
    150 H150      -41.4526  -22.3547    6.6306 H         1 UNK         0.0808 
    151 H151      -42.2590  -23.4560    7.7376 H         1 UNK         0.0808 
    152 H152      -42.9163  -25.6663    4.9164 H         1 UNK         0.3098 
    153 H153      -44.3842  -27.4281    5.4003 H         1 UNK         0.0720 
    154 H154      -42.8515  -27.8635    8.0422 H         1 UNK         0.0791 
    155 H155      -42.1171  -27.8037    6.4447 H         1 UNK         0.0791 
    156 H156      -43.2076  -29.1169    6.8555 H         1 UNK         0.0791 
    157 H157      -45.6772  -26.8602    7.9039 H         1 UNK         0.3028 
@<TRIPOS>BOND
     1    1    2 1    
     2    1   82 1    
     3    1   83 1    
     4    1   84 1    
     5    2    3 2    
     6    2    4 am   BACKBONE|DICT|INTERRES
     7    4    5 1    
     8    4   85 1    
     9    5    6 1    
    10    5   80 1    
    11    5   86 1    
    12    6    7 1    
    13    6   87 1    
    14    6   88 1    
    15    7    8 1    
    16    8    9 1    
    17    8   89 1    
    18    8   90 1    
    19    9   10 ar   
    20    9   14 ar   
    21   10   11 ar   
    22   10   91 1    
    23   11   12 ar   
    24   11   58 1    
    25   12   13 ar   
    26   12   92 1    
    27   13   14 ar   
    28   13   15 1    
    29   14   93 1    
    30   15   16 1    
    31   15   94 1    
    32   15   95 1    
    33   16   17 1    
    34   17   18 1    
    35   17   96 1    
    36   17   97 1    
    37   18   19 1    
    38   18   22 1    
    39   18   98 1    
    40   19   20 am   BACKBONE|DICT|INTERRES
    41   19   21 2    
    42   20   99 1    
    43   20  100 1    
    44   22   23 am   BACKBONE|DICT|INTERRES
    45   22  101 1    
    46   23   24 2    
    47   23   25 1    
    48   25   26 1    
    49   25   27 1    
    50   25  102 1    
    51   26  103 1    
    52   26  104 1    
    53   26  105 1    
    54   27   28 am   BACKBONE|DICT|INTERRES
    55   27  106 1    
    56   28   29 2    
    57   28   30 1    
    58   30   31 1    
    59   30   32 1    
    60   30  107 1    
    61   31  108 1    
    62   31  109 1    
    63   31  110 1    
    64   32   33 am   BACKBONE|DICT|INTERRES
    65   32  111 1    
    66   33   34 2    
    67   33   35 1    
    68   35   36 1    
    69   35   37 1    
    70   35  112 1    
    71   36  113 1    
    72   36  114 1    
    73   36  115 1    
    74   37   38 am   BACKBONE|DICT|INTERRES
    75   37  116 1    
    76   38   39 2    
    77   38   40 1    
    78   40   41 1    
    79   40   42 1    
    80   40  117 1    
    81   41  118 1    
    82   41  119 1    
    83   41  120 1    
    84   42   43 am   BACKBONE|DICT|INTERRES
    85   42  121 1    
    86   43   44 2    
    87   43   45 1    
    88   45   46 1    
    89   45   47 1    
    90   45  122 1    
    91   46  123 1    
    92   46  124 1    
    93   46  125 1    
    94   47   48 am   BACKBONE|DICT|INTERRES
    95   47  126 1    
    96   48   49 2    
    97   48   50 1    
    98   50   51 1    
    99   50   52 1    
   100   50  127 1    
   101   51  128 1    
   102   51  129 1    
   103   51  130 1    
   104   52   53 am   BACKBONE|DICT|INTERRES
   105   52  131 1    
   106   53   54 2    
   107   53   55 1    
   108   55   56 1    
   109   55   59 1    
   110   55  132 1    
   111   56   57 1    
   112   56  133 1    
   113   56  134 1    
   114   57   58 1    
   115   58  135 1    
   116   58  136 1    
   117   59   60 am   BACKBONE|DICT|INTERRES
   118   59  137 1    
   119   60   61 2    
   120   60   62 1    
   121   62   63 1    
   122   62   64 1    
   123   62  138 1    
   124   63  139 1    
   125   63  140 1    
   126   63  141 1    
   127   64   65 am   BACKBONE|DICT|INTERRES
   128   64  142 1    
   129   65   66 2    
   130   65   67 1    
   131   67   68 1    
   132   67   69 1    
   133   67  143 1    
   134   68  144 1    
   135   68  145 1    
   136   68  146 1    
   137   69   70 am   BACKBONE|DICT|INTERRES
   138   69  147 1    
   139   70   71 2    
   140   70   72 1    
   141   72   73 1    
   142   72   74 1    
   143   72  148 1    
   144   73  149 1    
   145   73  150 1    
   146   73  151 1    
   147   74   75 am   BACKBONE|DICT|INTERRES
   148   74  152 1    
   149   75   76 2    
   150   75   77 1    
   151   77   78 1    
   152   77   79 1    
   153   77  153 1    
   154   78  154 1    
   155   78  155 1    
   156   78  156 1    
   157   79   80 am   BACKBONE|DICT|INTERRES
   158   79  157 1    
   159   80   81 2    
@<TRIPOS>SUBSTRUCTURE
     1 UNK         1 GROUP             0       ****    0 ROOT    
