@<TRIPOS>MOLECULE
3R207
157   159    1
SMALL
USER_CHARGES


@<TRIPOS>ATOM
      1 CA        -48.8034  -23.2881    2.7552 C.3       0 UNK        -0.1975 
      2 C         -49.3045  -23.4817    4.1784 C.2       0 UNK         0.4852 
      3 O         -49.5513  -22.5000    4.8814 O.2       0 UNK        -0.5216 
      4 N         -49.4492  -24.7395    4.6162 N.am      1 UNK        -0.4461 
      5 CA        -49.9194  -25.1325    5.9496 C.3       1 UNK         0.0864 
      6 C6        -50.4710  -26.5813    5.9529 C.3       14 UNK        -0.0898 
      7 S7        -52.0811  -26.6718    5.0992 S.3       14 UNK        -0.2598 
      8 C8        -52.6439  -28.3599    5.4989 C.3       14 UNK         0.0286 
      9 C9        -52.7378  -28.6108    6.9987 C.ar      14 UNK        -0.0844 
     10 C10       -51.8262  -29.4684    7.6202 C.ar      14 UNK        -0.0881 
     11 C11       -51.8906  -29.6981    8.9967 C.ar      14 UNK        -0.0643 
     12 C12       -52.8646  -29.0489    9.7593 C.ar      14 UNK        -0.0930 
     13 C13       -53.7973  -28.2047    9.1471 C.ar      14 UNK        -0.0827 
     14 C14       -53.7311  -27.9929    7.7654 C.ar      14 UNK        -0.1249 
     15 C15       -54.8601  -27.4977    9.9760 C.3       14 UNK         0.0141 
     16 S16       -56.3907  -28.4767   10.1203 S.3       14 UNK        -0.2313 
     17 C17       -55.9719  -29.5948   11.4991 C.3       14 UNK        -0.0915 
     18 CA        -56.1782  -28.9165   12.8885 C.3       13 UNK         0.0968 
     19 C         -57.5879  -29.1018   13.5181 C.2       13 UNK         0.5732 
     20 N         -57.8186  -28.5279   14.6924 N.am      13 UNK        -0.7310 
     21 O         -58.4705  -29.7524   12.9623 O.2       13 UNK        -0.5035 
     22 N         -55.0982  -29.2044   13.8417 N.am      13 UNK        -0.4233 
     23 C         -54.7298  -30.4115   14.2914 C.2       13 UNK         0.4989 
     24 O         -55.2028  -31.4750   13.8899 O.2       13 UNK        -0.4996 
     25 CA        -53.6350  -30.4384   15.3751 C.3       12 UNK         0.0216 
     26 CB        -52.2433  -30.5251   14.7292 C.3       12 UNK        -0.1964 
     27 N         -53.6777  -29.2671   16.2537 N.am      12 UNK        -0.4276 
     28 C         -54.6106  -29.0473   17.1905 C.2       12 UNK         0.5020 
     29 O         -55.4788  -29.8637   17.5000 O.2       12 UNK        -0.5489 
     30 CA        -54.5868  -27.6701   17.8803 C.3       11 UNK         0.0294 
     31 CB        -53.7622  -27.7312   19.1760 C.3       11 UNK        -0.2019 
     32 N         -54.0706  -26.5901   17.0306 N.am      11 UNK        -0.4493 
     33 C         -54.6004  -26.1870   15.8687 C.2       11 UNK         0.4932 
     34 O         -55.6103  -26.6906   15.3770 O.2       11 UNK        -0.5029 
     35 CA        -53.8749  -25.0772   15.0886 C.3       10 UNK         0.0280 
     36 CB        -54.4803  -23.6963   15.4016 C.3       10 UNK        -0.1976 
     37 N         -52.4108  -25.0620   15.2218 N.am      10 UNK        -0.4242 
     38 C         -51.6551  -24.7719   16.2924 C.2       10 UNK         0.5072 
     39 O         -52.1054  -24.5829   17.4228 O.2       10 UNK        -0.5224 
     40 CA        -50.1354  -24.6870   16.0653 C.3       9 UNK         0.0343 
     41 CB        -49.4842  -26.0641   16.2711 C.3       9 UNK        -0.2003 
     42 N         -49.7871  -24.1784   14.7363 N.am      9 UNK        -0.4272 
     43 C         -50.0446  -22.9393   14.2899 C.2       9 UNK         0.4988 
     44 O         -50.5131  -22.0392   14.9874 O.2       9 UNK        -0.5108 
     45 CA        -49.7648  -22.6717   12.8018 C.3       8 UNK         0.0248 
     46 CB        -48.2885  -22.3089   12.5674 C.3       8 UNK        -0.2001 
     47 N         -50.1379  -23.8191   11.9702 N.am      8 UNK        -0.4140 
     48 C         -51.4010  -24.1398   11.6519 C.2       8 UNK         0.5028 
     49 O         -52.3794  -23.4618   11.9642 O.2       8 UNK        -0.5428 
     50 CA        -51.6189  -25.4407   10.8605 C.3       7 UNK         0.0264 
     51 CB        -51.6488  -25.1470    9.3562 C.3       7 UNK        -0.1988 
     52 N         -50.6139  -26.4700   11.1485 N.am      7 UNK        -0.4454 
     53 C         -50.5793  -27.1628   12.2957 C.2       7 UNK         0.5027 
     54 O         -51.4029  -27.0129   13.2006 O.2       7 UNK        -0.5083 
     55 CA        -49.4079  -28.1467   12.5042 C.3       6 UNK         0.0844 
     56 C56       -49.7295  -29.5704   11.9832 C.3       14 UNK        -0.0967 
     57 S57       -49.4094  -29.8150   10.1997 S.3       14 UNK        -0.2604 
     58 C58       -50.9152  -30.6653    9.6448 C.3       14 UNK         0.0134 
     59 N         -48.1129  -27.6563   12.0188 N.am      6 UNK        -0.4116 
     60 C         -47.5092  -26.5181   12.3746 C.2       5 UNK         0.5034 
     61 O         -48.0132  -25.7016   13.1435 O.2       5 UNK        -0.5045 
     62 CA        -46.1298  -26.2055   11.7675 C.3       5 UNK         0.0224 
     63 CB        -45.0004  -26.6836   12.6994 C.3       5 UNK        -0.1978 
     64 N         -45.9235  -26.6694   10.3857 N.am      5 UNK        -0.4737 
     65 C         -45.8371  -27.9218    9.9091 C.2       4 UNK         0.5027 
     66 O         -45.9471  -28.9220   10.6175 O.2       4 UNK        -0.5211 
     67 CA        -45.6235  -28.1033    8.3932 C.3       4 UNK         0.0297 
     68 CB        -46.7683  -28.9239    7.7737 C.3       4 UNK        -0.1993 
     69 N         -45.5236  -26.8247    7.6851 N.am      4 UNK        -0.4486 
     70 C         -44.3768  -26.1756    7.4335 C.2       3 UNK         0.4961 
     71 O         -43.2638  -26.6266    7.7054 O.2       3 UNK        -0.5105 
     72 CA        -44.4761  -24.7777    6.7880 C.3       3 UNK         0.0299 
     73 CB        -44.2708  -24.8744    5.2676 C.3       3 UNK        -0.1972 
     74 N         -45.7400  -24.0857    7.0569 N.am      3 UNK        -0.4305 
     75 C         -46.1835  -23.7280    8.2707 C.2       2 UNK         0.5006 
     76 O         -45.5332  -23.8728    9.3051 O.2       2 UNK        -0.5106 
     77 CA        -47.6182  -23.1797    8.3643 C.3       2 UNK         0.0296 
     78 CB        -47.6097  -21.6437    8.3978 C.3       2 UNK        -0.2002 
     79 N         -48.5240  -23.6385    7.3038 N.am      2 UNK        -0.4032 
     80 C         -48.8255  -24.9132    7.0163 C.2       1 UNK         0.5000 
     81 O         -48.2775  -25.8764    7.5557 O.2       1 UNK        -0.5238 
     82 H82       -48.6275  -24.2384    2.2516 H         1 UNK         0.0889 
     83 H83       -47.8688  -22.7279    2.7595 H         1 UNK         0.0889 
     84 H84       -49.5346  -22.7267    2.1742 H         1 UNK         0.0889 
     85 H85       -49.2276  -25.5049    3.9952 H         1 UNK         0.3028 
     86 H86       -50.7431  -24.4710    6.2295 H         1 UNK         0.0864 
     87 H87       -49.7683  -27.2748    5.4875 H         1 UNK         0.0720 
     88 H88       -50.6119  -26.9336    6.9751 H         1 UNK         0.0720 
     89 H89       -51.9709  -29.0773    5.0266 H         1 UNK         0.0814 
     90 H90       -53.6239  -28.5207    5.0474 H         1 UNK         0.0814 
     91 H91       -51.0608  -29.9580    7.0334 H         1 UNK         0.1469 
     92 H92       -52.8956  -29.2061   10.8280 H         1 UNK         0.1381 
     93 H93       -54.4417  -27.3328    7.2866 H         1 UNK         0.1206 
     94 H94       -54.4755  -27.2682   10.9703 H         1 UNK         0.0813 
     95 H95       -55.1017  -26.5370    9.5185 H         1 UNK         0.0813 
     96 H96       -54.9401  -29.9166   11.3735 H         1 UNK         0.0638 
     97 H97       -56.5583  -30.5102   11.4061 H         1 UNK         0.0638 
     98 H98       -56.0979  -27.8392   12.7393 H         1 UNK         0.0568 
     99 H99       -58.7199  -28.6309   15.1297 H         1 UNK         0.3450 
    100 H100      -57.1049  -27.9456   15.1186 H         1 UNK         0.3450 
    101 H101      -54.7110  -28.3894   14.2954 H         1 UNK         0.2987 
    102 H102      -53.7904  -31.3335   15.9814 H         1 UNK         0.0766 
    103 H103      -51.4657  -30.6660   15.4802 H         1 UNK         0.0798 
    104 H104      -52.0091  -29.6191   14.1706 H         1 UNK         0.0798 
    105 H105      -52.1815  -31.3666   14.0374 H         1 UNK         0.0798 
    106 H106      -52.9929  -28.5434   16.0901 H         1 UNK         0.3198 
    107 H107      -55.6177  -27.4190   18.1392 H         1 UNK         0.0843 
    108 H108      -52.7119  -27.9484   18.9771 H         1 UNK         0.0831 
    109 H109      -54.1368  -28.5110   19.8408 H         1 UNK         0.0831 
    110 H110      -53.8123  -26.7896   19.7232 H         1 UNK         0.0831 
    111 H111      -53.2760  -26.0584   17.3782 H         1 UNK         0.3133 
    112 H112      -54.0587  -25.2787   14.0319 H         1 UNK         0.0566 
    113 H113      -54.0252  -22.9191   14.7871 H         1 UNK         0.0814 
    114 H114      -55.5518  -23.6858   15.1971 H         1 UNK         0.0814 
    115 H115      -54.3474  -23.4187   16.4477 H         1 UNK         0.0814 
    116 H116      -51.9148  -25.3280   14.3783 H         1 UNK         0.3091 
    117 H117      -49.7260  -23.9969   16.8059 H         1 UNK         0.0702 
    118 H118      -48.4012  -26.0115   16.1564 H         1 UNK         0.0785 
    119 H119      -49.8598  -26.7991   15.5589 H         1 UNK         0.0785 
    120 H120      -49.6868  -26.4460   17.2727 H         1 UNK         0.0785 
    121 H121      -49.3046  -24.8225   14.1133 H         1 UNK         0.2998 
    122 H122      -50.3709  -21.8153   12.4980 H         1 UNK         0.0697 
    123 H123      -47.6145  -23.1127   12.8633 H         1 UNK         0.0825 
    124 H124      -48.0114  -21.4267   13.1461 H         1 UNK         0.0825 
    125 H125      -48.0976  -22.0792   11.5193 H         1 UNK         0.0825 
    126 H126      -49.3993  -24.4636   11.7282 H         1 UNK         0.3029 
    127 H127      -52.5961  -25.8342   11.1454 H         1 UNK         0.0897 
    128 H128      -51.7856  -26.0582    8.7757 H         1 UNK         0.0792 
    129 H129      -52.4737  -24.4781    9.1070 H         1 UNK         0.0792 
    130 H130      -50.7301  -24.6631    9.0317 H         1 UNK         0.0792 
    131 H131      -49.9232  -26.6680   10.4379 H         1 UNK         0.3086 
    132 H132      -49.2968  -28.2323   13.5870 H         1 UNK         0.0583 
    133 H133      -49.1075  -30.2910   12.5176 H         1 UNK         0.1020 
    134 H134      -50.7565  -29.8489   12.2221 H         1 UNK         0.1020 
    135 H135      -50.6290  -31.4339    8.9245 H         1 UNK         0.0694 
    136 H136      -51.3903  -31.1978   10.4703 H         1 UNK         0.0694 
    137 H137      -47.6006  -28.2796   11.4011 H         1 UNK         0.2989 
    138 H138      -46.0662  -25.1170   11.7180 H         1 UNK         0.1055 
    139 H139      -45.1044  -26.2439   13.6924 H         1 UNK         0.0806 
    140 H140      -44.0220  -26.3919   12.3175 H         1 UNK         0.0806 
    141 H141      -45.0028  -27.7668   12.8250 H         1 UNK         0.0806 
    142 H142      -45.8133  -25.9166    9.7151 H         1 UNK         0.3061 
    143 H143      -44.6985  -28.6689    8.2640 H         1 UNK         0.0734 
    144 H144      -46.6207  -29.0690    6.7036 H         1 UNK         0.0832 
    145 H145      -46.8308  -29.9136    8.2282 H         1 UNK         0.0832 
    146 H146      -47.7363  -28.4425    7.9166 H         1 UNK         0.0832 
    147 H147      -46.4106  -26.3789    7.4617 H         1 UNK         0.3156 
    148 H148      -43.6715  -24.1681    7.2045 H         1 UNK         0.0589 
    149 H149      -45.0610  -25.4544    4.7890 H         1 UNK         0.0808 
    150 H150      -44.2490  -23.8874    4.8050 H         1 UNK         0.0808 
    151 H151      -43.3227  -25.3603    5.0324 H         1 UNK         0.0808 
    152 H152      -46.3463  -23.9255    6.2661 H         1 UNK         0.3098 
    153 H153      -48.0305  -23.5366    9.3103 H         1 UNK         0.0720 
    154 H154      -48.6060  -21.2459    8.5924 H         1 UNK         0.0791 
    155 H155      -47.2573  -21.2219    7.4555 H         1 UNK         0.0791 
    156 H156      -46.9551  -21.2721    9.1876 H         1 UNK         0.0791 
    157 H157      -48.9702  -22.9227    6.7368 H         1 UNK         0.3028 
@<TRIPOS>BOND
     1    1    2 1    
     2    1   82 1    
     3    1   83 1    
     4    1   84 1    
     5    2    3 2    
     6    2    4 am   BACKBONE|DICT|INTERRES
     7    4    5 1    
     8    4   85 1    
     9    5    6 1    
    10    5   80 1    
    11    5   86 1    
    12    6    7 1    
    13    6   87 1    
    14    6   88 1    
    15    7    8 1    
    16    8    9 1    
    17    8   89 1    
    18    8   90 1    
    19    9   10 ar   
    20    9   14 ar   
    21   10   11 ar   
    22   10   91 1    
    23   11   12 ar   
    24   11   58 1    
    25   12   13 ar   
    26   12   92 1    
    27   13   14 ar   
    28   13   15 1    
    29   14   93 1    
    30   15   16 1    
    31   15   94 1    
    32   15   95 1    
    33   16   17 1    
    34   17   18 1    
    35   17   96 1    
    36   17   97 1    
    37   18   19 1    
    38   18   22 1    
    39   18   98 1    
    40   19   20 am   BACKBONE|DICT|INTERRES
    41   19   21 2    
    42   20   99 1    
    43   20  100 1    
    44   22   23 am   BACKBONE|DICT|INTERRES
    45   22  101 1    
    46   23   24 2    
    47   23   25 1    
    48   25   26 1    
    49   25   27 1    
    50   25  102 1    
    51   26  103 1    
    52   26  104 1    
    53   26  105 1    
    54   27   28 am   BACKBONE|DICT|INTERRES
    55   27  106 1    
    56   28   29 2    
    57   28   30 1    
    58   30   31 1    
    59   30   32 1    
    60   30  107 1    
    61   31  108 1    
    62   31  109 1    
    63   31  110 1    
    64   32   33 am   BACKBONE|DICT|INTERRES
    65   32  111 1    
    66   33   34 2    
    67   33   35 1    
    68   35   36 1    
    69   35   37 1    
    70   35  112 1    
    71   36  113 1    
    72   36  114 1    
    73   36  115 1    
    74   37   38 am   BACKBONE|DICT|INTERRES
    75   37  116 1    
    76   38   39 2    
    77   38   40 1    
    78   40   41 1    
    79   40   42 1    
    80   40  117 1    
    81   41  118 1    
    82   41  119 1    
    83   41  120 1    
    84   42   43 am   BACKBONE|DICT|INTERRES
    85   42  121 1    
    86   43   44 2    
    87   43   45 1    
    88   45   46 1    
    89   45   47 1    
    90   45  122 1    
    91   46  123 1    
    92   46  124 1    
    93   46  125 1    
    94   47   48 am   BACKBONE|DICT|INTERRES
    95   47  126 1    
    96   48   49 2    
    97   48   50 1    
    98   50   51 1    
    99   50   52 1    
   100   50  127 1    
   101   51  128 1    
   102   51  129 1    
   103   51  130 1    
   104   52   53 am   BACKBONE|DICT|INTERRES
   105   52  131 1    
   106   53   54 2    
   107   53   55 1    
   108   55   56 1    
   109   55   59 1    
   110   55  132 1    
   111   56   57 1    
   112   56  133 1    
   113   56  134 1    
   114   57   58 1    
   115   58  135 1    
   116   58  136 1    
   117   59   60 am   BACKBONE|DICT|INTERRES
   118   59  137 1    
   119   60   61 2    
   120   60   62 1    
   121   62   63 1    
   122   62   64 1    
   123   62  138 1    
   124   63  139 1    
   125   63  140 1    
   126   63  141 1    
   127   64   65 am   BACKBONE|DICT|INTERRES
   128   64  142 1    
   129   65   66 2    
   130   65   67 1    
   131   67   68 1    
   132   67   69 1    
   133   67  143 1    
   134   68  144 1    
   135   68  145 1    
   136   68  146 1    
   137   69   70 am   BACKBONE|DICT|INTERRES
   138   69  147 1    
   139   70   71 2    
   140   70   72 1    
   141   72   73 1    
   142   72   74 1    
   143   72  148 1    
   144   73  149 1    
   145   73  150 1    
   146   73  151 1    
   147   74   75 am   BACKBONE|DICT|INTERRES
   148   74  152 1    
   149   75   76 2    
   150   75   77 1    
   151   77   78 1    
   152   77   79 1    
   153   77  153 1    
   154   78  154 1    
   155   78  155 1    
   156   78  156 1    
   157   79   80 am   BACKBONE|DICT|INTERRES
   158   79  157 1    
   159   80   81 2    
@<TRIPOS>SUBSTRUCTURE
     1 UNK         1 GROUP             0       ****    0 ROOT    
