@<TRIPOS>MOLECULE
3R207
157   159    1
SMALL
USER_CHARGES


@<TRIPOS>ATOM
      1 CA        -44.0341  -30.7578    6.4446 C.3       0 UNK        -0.1975 
      2 C         -45.2869  -30.0705    5.9225 C.2       0 UNK         0.4852 
      3 O         -45.6870  -30.3104    4.7830 O.2       0 UNK        -0.5216 
      4 N         -45.9057  -29.2123    6.7450 N.am      1 UNK        -0.4461 
      5 CA        -47.1436  -28.4824    6.4265 C.3       1 UNK         0.0864 
      6 C6        -47.9081  -28.0415    7.7027 C.3       14 UNK        -0.0898 
      7 S7        -48.1748  -29.4120    8.8815 S.3       14 UNK        -0.2598 
      8 C8        -49.6154  -30.2648    8.1664 C.3       14 UNK         0.0286 
      9 C9        -50.9279  -29.6581    8.6363 C.ar      14 UNK        -0.0844 
     10 C10       -51.5795  -28.6905    7.8652 C.ar      14 UNK        -0.0881 
     11 C11       -52.7921  -28.1430    8.2942 C.ar      14 UNK        -0.0643 
     12 C12       -53.3627  -28.5861    9.4908 C.ar      14 UNK        -0.0930 
     13 C13       -52.7199  -29.5516   10.2695 C.ar      14 UNK        -0.0827 
     14 C14       -51.5011  -30.0826    9.8396 C.ar      14 UNK        -0.1249 
     15 C15       -53.3488  -30.0100   11.5746 C.3       14 UNK         0.0141 
     16 S16       -53.0155  -28.8116   12.8962 S.3       14 UNK        -0.2313 
     17 C17       -54.2207  -29.3282   14.1623 C.3       14 UNK        -0.0915 
     18 CA        -55.6496  -28.7646   13.9249 C.3       13 UNK         0.0968 
     19 C         -56.6034  -29.2017   15.0631 C.2       13 UNK         0.5732 
     20 N         -57.2258  -30.3659   14.9377 N.am      13 UNK        -0.7310 
     21 O         -56.7596  -28.5174   16.0727 O.2       13 UNK        -0.5035 
     22 N         -55.6484  -27.3039   13.7940 N.am      13 UNK        -0.4233 
     23 C         -55.8351  -26.6149   12.6639 C.2       13 UNK         0.4989 
     24 O         -56.0987  -27.1356   11.5793 O.2       13 UNK        -0.4996 
     25 CA        -55.6649  -25.0852   12.7200 C.3       12 UNK         0.0216 
     26 CB        -57.0246  -24.3685   12.8410 C.3       12 UNK        -0.1964 
     27 N         -54.6957  -24.6159   13.7232 N.am      12 UNK        -0.4276 
     28 C         -54.8087  -24.6147   15.0576 C.2       12 UNK         0.5020 
     29 O         -55.8130  -24.9973   15.6621 O.2       12 UNK        -0.5489 
     30 CA        -53.5922  -24.1105   15.8523 C.3       11 UNK         0.0294 
     31 CB        -53.6645  -22.5871   16.0412 C.3       11 UNK        -0.2019 
     32 N         -53.5198  -24.7564   17.1657 N.am      11 UNK        -0.4493 
     33 C         -53.1735  -26.0344   17.3572 C.2       11 UNK         0.4932 
     34 O         -52.7403  -26.7723   16.4657 O.2       11 UNK        -0.5029 
     35 CA        -53.3498  -26.5841   18.7795 C.3       10 UNK         0.0280 
     36 CB        -54.8355  -26.8134   19.1075 C.3       10 UNK        -0.1976 
     37 N         -52.6378  -27.8526   18.8520 N.am      10 UNK        -0.4242 
     38 C         -51.9316  -28.3246   19.8841 C.2       10 UNK         0.5072 
     39 O         -51.9039  -27.8002   20.9983 O.2       10 UNK        -0.5224 
     40 CA        -51.0954  -29.5945   19.6192 C.3       9 UNK         0.0343 
     41 CB        -51.8319  -30.8415   20.1350 C.3       9 UNK        -0.2003 
     42 N         -50.7630  -29.7824   18.2000 N.am      9 UNK        -0.4272 
     43 C         -49.9472  -28.9824   17.4973 C.2       9 UNK         0.4988 
     44 O         -49.3000  -28.0620   17.9992 O.2       9 UNK        -0.5108 
     45 CA        -49.8705  -29.1984   15.9800 C.3       8 UNK         0.0248 
     46 CB        -50.6310  -30.4367   15.4580 C.3       8 UNK        -0.2001 
     47 N         -50.4032  -27.9943   15.3513 N.am      8 UNK        -0.4140 
     48 C         -49.9256  -27.4090   14.2518 C.2       8 UNK         0.5028 
     49 O         -48.9758  -27.8326   13.5877 O.2       8 UNK        -0.5428 
     50 CA        -50.6213  -26.1091   13.8409 C.3       7 UNK         0.0264 
     51 CB        -49.9420  -24.8851   14.4822 C.3       7 UNK        -0.1988 
     52 N         -50.6023  -25.9984   12.3889 N.am      7 UNK        -0.4454 
     53 C         -51.4901  -25.3127   11.6649 C.2       7 UNK         0.5027 
     54 O         -52.3573  -24.5890   12.1615 O.2       7 UNK        -0.5083 
     55 CA        -51.3755  -25.4377   10.1346 C.3       6 UNK         0.0844 
     56 C56       -52.7239  -25.1452    9.4249 C.3       14 UNK        -0.0967 
     57 S57       -52.6325  -25.4545    7.6259 S.3       14 UNK        -0.2604 
     58 C58       -53.4794  -27.0604    7.4755 C.3       14 UNK         0.0134 
     59 N         -50.3187  -24.5615    9.6363 N.am      6 UNK        -0.4116 
     60 C         -49.0009  -24.7641    9.7227 C.2       5 UNK         0.5034 
     61 O         -48.4946  -25.7423   10.2737 O.2       5 UNK        -0.5045 
     62 CA        -48.1089  -23.6981    9.0516 C.3       5 UNK         0.0224 
     63 CB        -46.6074  -23.9914    9.2253 C.3       5 UNK        -0.1978 
     64 N         -48.4025  -23.5468    7.6207 N.am      5 UNK        -0.4737 
     65 C         -49.4832  -22.9373    7.1083 C.2       4 UNK         0.5027 
     66 O         -50.3399  -22.3924    7.8079 O.2       4 UNK        -0.5211 
     67 CA        -49.6457  -22.9606    5.5744 C.3       4 UNK         0.0297 
     68 CB        -50.6496  -21.9072    5.0597 C.3       4 UNK        -0.1993 
     69 N         -48.3694  -22.8665    4.8575 N.am      4 UNK        -0.4486 
     70 C         -47.4694  -21.8725    4.9227 C.2       3 UNK         0.4961 
     71 O         -47.6481  -20.8236    5.5440 O.2       3 UNK        -0.5105 
     72 CA        -46.1394  -22.0923    4.1681 C.3       3 UNK         0.0299 
     73 CB        -44.9602  -21.3548    4.8383 C.3       3 UNK        -0.1972 
     74 N         -45.7944  -23.5055    3.9424 N.am      3 UNK        -0.4305 
     75 C         -45.6227  -24.4551    4.8745 C.2       2 UNK         0.5006 
     76 O         -45.7659  -24.2731    6.0853 O.2       2 UNK        -0.5106 
     77 CA        -45.2128  -25.8404    4.3520 C.3       2 UNK         0.0296 
     78 CB        -43.6866  -25.9179    4.1811 C.3       2 UNK        -0.2002 
     79 N         -45.6437  -26.9211    5.2392 N.am      2 UNK        -0.4032 
     80 C         -46.9134  -27.2859    5.4732 C.2       1 UNK         0.5000 
     81 O         -47.8858  -26.7297    4.9573 O.2       1 UNK        -0.5238 
     82 H82       -44.1697  -31.8389    6.4379 H         1 UNK         0.0889 
     83 H83       -43.7958  -30.4529    7.4635 H         1 UNK         0.0889 
     84 H84       -43.1815  -30.5171    5.8101 H         1 UNK         0.0889 
     85 H85       -45.5496  -29.0733    7.6806 H         1 UNK         0.3028 
     86 H86       -47.7937  -29.1688    5.8803 H         1 UNK         0.0864 
     87 H87       -47.3492  -27.2638    8.2261 H         1 UNK         0.0720 
     88 H88       -48.8720  -27.5971    7.4495 H         1 UNK         0.0720 
     89 H89       -49.5568  -30.2600    7.0775 H         1 UNK         0.0814 
     90 H90       -49.5766  -31.3145    8.4614 H         1 UNK         0.0814 
     91 H91       -51.1400  -28.3514    6.9371 H         1 UNK         0.1469 
     92 H92       -54.3008  -28.1675    9.8300 H         1 UNK         0.1381 
     93 H93       -50.9967  -30.8264   10.4414 H         1 UNK         0.1206 
     94 H94       -52.9686  -30.9896   11.8680 H         1 UNK         0.0813 
     95 H95       -54.4252  -30.1204   11.4375 H         1 UNK         0.0813 
     96 H96       -54.2363  -30.4187   14.2051 H         1 UNK         0.0638 
     97 H97       -53.8390  -28.9908   15.1277 H         1 UNK         0.0638 
     98 H98       -56.0376  -29.2028   13.0040 H         1 UNK         0.0568 
     99 H99       -57.8401  -30.6718   15.6759 H         1 UNK         0.3450 
    100 H100      -57.0981  -30.9438   14.1217 H         1 UNK         0.3450 
    101 H101      -55.5506  -26.7874   14.6615 H         1 UNK         0.2987 
    102 H102      -55.2346  -24.7966   11.7597 H         1 UNK         0.0766 
    103 H103      -57.6722  -24.6255   12.0018 H         1 UNK         0.0798 
    104 H104      -56.9041  -23.2852   12.8378 H         1 UNK         0.0798 
    105 H105      -57.5560  -24.6458   13.7517 H         1 UNK         0.0798 
    106 H106      -53.7938  -24.3650   13.3183 H         1 UNK         0.3198 
    107 H107      -52.6848  -24.3483   15.2960 H         1 UNK         0.0843 
    108 H108      -54.5606  -22.2895   16.5874 H         1 UNK         0.0831 
    109 H109      -53.6857  -22.0752   15.0781 H         1 UNK         0.0831 
    110 H110      -52.7975  -22.2126   16.5858 H         1 UNK         0.0831 
    111 H111      -53.9028  -24.2374   17.9425 H         1 UNK         0.3133 
    112 H112      -52.9163  -25.8708   19.4836 H         1 UNK         0.0566 
    113 H113      -55.3032  -27.4955   18.3957 H         1 UNK         0.0814 
    114 H114      -55.3964  -25.8786   19.0770 H         1 UNK         0.0814 
    115 H115      -54.9606  -27.2336   20.1056 H         1 UNK         0.0814 
    116 H116      -52.5568  -28.3196   17.9589 H         1 UNK         0.3091 
    117 H117      -50.1611  -29.4931   20.1754 H         1 UNK         0.0702 
    118 H118      -51.2225  -31.7383   20.0214 H         1 UNK         0.0785 
    119 H119      -52.7725  -31.0034   19.6070 H         1 UNK         0.0785 
    120 H120      -52.0668  -30.7440   21.1960 H         1 UNK         0.0785 
    121 H121      -51.2434  -30.5268   17.7152 H         1 UNK         0.2998 
    122 H122      -48.8126  -29.3093   15.7329 H         1 UNK         0.0697 
    123 H123      -51.7027  -30.3739   15.6491 H         1 UNK         0.0825 
    124 H124      -50.2565  -31.3548   15.9125 H         1 UNK         0.0825 
    125 H125      -50.5024  -30.5418   14.3803 H         1 UNK         0.0825 
    126 H126      -51.1858  -27.5504   15.8296 H         1 UNK         0.3029 
    127 H127      -51.6621  -26.1647   14.1648 H         1 UNK         0.0897 
    128 H128      -48.8966  -24.8056   14.1814 H         1 UNK         0.0792 
    129 H129      -49.9671  -24.9524   15.5707 H         1 UNK         0.0792 
    130 H130      -50.4410  -23.9571   14.2033 H         1 UNK         0.0792 
    131 H131      -49.8819  -26.5424   11.9235 H         1 UNK         0.3086 
    132 H132      -51.0950  -26.4700    9.9142 H         1 UNK         0.0583 
    133 H133      -53.5276  -25.7445    9.8565 H         1 UNK         0.1020 
    134 H134      -53.0181  -24.1047    9.5755 H         1 UNK         0.1020 
    135 H135      -54.5215  -26.9465    7.7789 H         1 UNK         0.0694 
    136 H136      -53.4968  -27.3550    6.4253 H         1 UNK         0.0694 
    137 H137      -50.6244  -23.7370    9.1270 H         1 UNK         0.2989 
    138 H138      -48.3188  -22.7485    9.5490 H         1 UNK         0.1055 
    139 H139      -45.9958  -23.2012    8.7891 H         1 UNK         0.0806 
    140 H140      -46.3231  -24.9319    8.7518 H         1 UNK         0.0806 
    141 H141      -46.3407  -24.0625   10.2806 H         1 UNK         0.0806 
    142 H142      -47.7197  -23.9409    6.9823 H         1 UNK         0.3061 
    143 H143      -50.0540  -23.9443    5.3367 H         1 UNK         0.0734 
    144 H144      -50.3440  -20.8938    5.3216 H         1 UNK         0.0832 
    145 H145      -50.7581  -21.9568    3.9764 H         1 UNK         0.0832 
    146 H146      -51.6387  -22.0686    5.4905 H         1 UNK         0.0832 
    147 H147      -48.1111  -23.6863    4.3255 H         1 UNK         0.3156 
    148 H148      -46.2821  -21.6539    3.1794 H         1 UNK         0.0589 
    149 H149      -44.0322  -21.5046    4.2865 H         1 UNK         0.0808 
    150 H150      -45.1394  -20.2797    4.8789 H         1 UNK         0.0808 
    151 H151      -44.8008  -21.6962    5.8618 H         1 UNK         0.0808 
    152 H152      -45.6617  -23.7654    2.9740 H         1 UNK         0.3098 
    153 H153      -45.6844  -26.0003    3.3801 H         1 UNK         0.0720 
    154 H154      -43.1674  -25.7748    5.1299 H         1 UNK         0.0791 
    155 H155      -43.3276  -25.1491    3.4954 H         1 UNK         0.0791 
    156 H156      -43.3806  -26.8812    3.7723 H         1 UNK         0.0791 
    157 H157      -44.9170  -27.4182    5.7314 H         1 UNK         0.3028 
@<TRIPOS>BOND
     1    1    2 1    
     2    1   82 1    
     3    1   83 1    
     4    1   84 1    
     5    2    3 2    
     6    2    4 am   BACKBONE|DICT|INTERRES
     7    4    5 1    
     8    4   85 1    
     9    5    6 1    
    10    5   80 1    
    11    5   86 1    
    12    6    7 1    
    13    6   87 1    
    14    6   88 1    
    15    7    8 1    
    16    8    9 1    
    17    8   89 1    
    18    8   90 1    
    19    9   10 ar   
    20    9   14 ar   
    21   10   11 ar   
    22   10   91 1    
    23   11   12 ar   
    24   11   58 1    
    25   12   13 ar   
    26   12   92 1    
    27   13   14 ar   
    28   13   15 1    
    29   14   93 1    
    30   15   16 1    
    31   15   94 1    
    32   15   95 1    
    33   16   17 1    
    34   17   18 1    
    35   17   96 1    
    36   17   97 1    
    37   18   19 1    
    38   18   22 1    
    39   18   98 1    
    40   19   20 am   BACKBONE|DICT|INTERRES
    41   19   21 2    
    42   20   99 1    
    43   20  100 1    
    44   22   23 am   BACKBONE|DICT|INTERRES
    45   22  101 1    
    46   23   24 2    
    47   23   25 1    
    48   25   26 1    
    49   25   27 1    
    50   25  102 1    
    51   26  103 1    
    52   26  104 1    
    53   26  105 1    
    54   27   28 am   BACKBONE|DICT|INTERRES
    55   27  106 1    
    56   28   29 2    
    57   28   30 1    
    58   30   31 1    
    59   30   32 1    
    60   30  107 1    
    61   31  108 1    
    62   31  109 1    
    63   31  110 1    
    64   32   33 am   BACKBONE|DICT|INTERRES
    65   32  111 1    
    66   33   34 2    
    67   33   35 1    
    68   35   36 1    
    69   35   37 1    
    70   35  112 1    
    71   36  113 1    
    72   36  114 1    
    73   36  115 1    
    74   37   38 am   BACKBONE|DICT|INTERRES
    75   37  116 1    
    76   38   39 2    
    77   38   40 1    
    78   40   41 1    
    79   40   42 1    
    80   40  117 1    
    81   41  118 1    
    82   41  119 1    
    83   41  120 1    
    84   42   43 am   BACKBONE|DICT|INTERRES
    85   42  121 1    
    86   43   44 2    
    87   43   45 1    
    88   45   46 1    
    89   45   47 1    
    90   45  122 1    
    91   46  123 1    
    92   46  124 1    
    93   46  125 1    
    94   47   48 am   BACKBONE|DICT|INTERRES
    95   47  126 1    
    96   48   49 2    
    97   48   50 1    
    98   50   51 1    
    99   50   52 1    
   100   50  127 1    
   101   51  128 1    
   102   51  129 1    
   103   51  130 1    
   104   52   53 am   BACKBONE|DICT|INTERRES
   105   52  131 1    
   106   53   54 2    
   107   53   55 1    
   108   55   56 1    
   109   55   59 1    
   110   55  132 1    
   111   56   57 1    
   112   56  133 1    
   113   56  134 1    
   114   57   58 1    
   115   58  135 1    
   116   58  136 1    
   117   59   60 am   BACKBONE|DICT|INTERRES
   118   59  137 1    
   119   60   61 2    
   120   60   62 1    
   121   62   63 1    
   122   62   64 1    
   123   62  138 1    
   124   63  139 1    
   125   63  140 1    
   126   63  141 1    
   127   64   65 am   BACKBONE|DICT|INTERRES
   128   64  142 1    
   129   65   66 2    
   130   65   67 1    
   131   67   68 1    
   132   67   69 1    
   133   67  143 1    
   134   68  144 1    
   135   68  145 1    
   136   68  146 1    
   137   69   70 am   BACKBONE|DICT|INTERRES
   138   69  147 1    
   139   70   71 2    
   140   70   72 1    
   141   72   73 1    
   142   72   74 1    
   143   72  148 1    
   144   73  149 1    
   145   73  150 1    
   146   73  151 1    
   147   74   75 am   BACKBONE|DICT|INTERRES
   148   74  152 1    
   149   75   76 2    
   150   75   77 1    
   151   77   78 1    
   152   77   79 1    
   153   77  153 1    
   154   78  154 1    
   155   78  155 1    
   156   78  156 1    
   157   79   80 am   BACKBONE|DICT|INTERRES
   158   79  157 1    
   159   80   81 2    
@<TRIPOS>SUBSTRUCTURE
     1 UNK         1 GROUP             0       ****    0 ROOT    
