@<TRIPOS>MOLECULE
3R207
157   159    1
SMALL
USER_CHARGES


@<TRIPOS>ATOM
      1 CA        -51.6449  -27.8059    1.4375 C.3       0 UNK        -0.1975 
      2 C         -51.0203  -28.0856    2.7963 C.2       0 UNK         0.4852 
      3 O         -51.0334  -27.2130    3.6668 O.2       0 UNK        -0.5216 
      4 N         -50.4791  -29.2968    2.9865 N.am      1 UNK        -0.4461 
      5 CA        -49.8133  -29.7270    4.2202 C.3       1 UNK         0.0864 
      6 C6        -49.5526  -31.2534    4.2500 C.3       14 UNK        -0.0898 
      7 S7        -51.1089  -32.2092    4.2273 S.3       14 UNK        -0.2598 
      8 C8        -51.3467  -32.6075    5.9928 C.3       14 UNK         0.0286 
      9 C9        -51.4712  -31.3539    6.8483 C.ar      14 UNK        -0.0844 
     10 C10       -50.4086  -30.9520    7.6665 C.ar      14 UNK        -0.0881 
     11 C11       -50.4958  -29.7709    8.4082 C.ar      14 UNK        -0.0643 
     12 C12       -51.6503  -28.9949    8.3149 C.ar      14 UNK        -0.0930 
     13 C13       -52.7429  -29.4077    7.5545 C.ar      14 UNK        -0.0827 
     14 C14       -52.6444  -30.5899    6.8136 C.ar      14 UNK        -0.1249 
     15 C15       -54.0173  -28.5695    7.5357 C.3       14 UNK         0.0141 
     16 S16       -54.7696  -28.4061    9.1962 S.3       14 UNK        -0.2313 
     17 C17       -54.1256  -26.7874    9.7596 C.3       14 UNK        -0.0915 
     18 CA        -54.7663  -26.1774   11.0418 C.3       13 UNK         0.0968 
     19 C         -56.3056  -25.9275   10.9772 C.2       13 UNK         0.5732 
     20 N         -57.0089  -25.8493   12.1023 N.am      13 UNK        -0.7310 
     21 O         -56.8672  -25.7465    9.8993 O.2       13 UNK        -0.5035 
     22 N         -54.2553  -26.7423   12.3044 N.am      13 UNK        -0.4233 
     23 C         -54.6391  -27.8710   12.9210 C.2       13 UNK         0.4989 
     24 O         -55.3536  -28.7363   12.4173 O.2       13 UNK        -0.4996 
     25 CA        -54.2145  -28.0281   14.3970 C.3       12 UNK         0.0216 
     26 CB        -53.0722  -29.0446   14.5597 C.3       12 UNK        -0.1964 
     27 N         -53.8555  -26.7602   15.0498 N.am      12 UNK        -0.4276 
     28 C         -54.7226  -25.7644   15.2896 C.2       12 UNK         0.5020 
     29 O         -55.9155  -25.8266   14.9814 O.2       12 UNK        -0.5489 
     30 CA        -54.1647  -24.4713   15.9183 C.3       11 UNK         0.0294 
     31 CB        -55.2721  -23.5685   16.5047 C.3       11 UNK        -0.2019 
     32 N         -53.0954  -24.6837   16.9024 N.am      11 UNK        -0.4493 
     33 C         -53.1975  -25.3545   18.0603 C.2       11 UNK         0.4932 
     34 O         -54.2060  -25.9714   18.4089 O.2       11 UNK        -0.5029 
     35 CA        -51.9814  -25.2847   19.0062 C.3       10 UNK         0.0280 
     36 CB        -52.1070  -26.2329   20.2186 C.3       10 UNK        -0.1976 
     37 N         -50.6911  -25.4789   18.3373 N.am      10 UNK        -0.4242 
     38 C         -50.2743  -26.5516   17.6511 C.2       10 UNK         0.5072 
     39 O         -50.9790  -27.5362   17.4210 O.2       10 UNK        -0.5224 
     40 CA        -48.8070  -26.5173   17.1696 C.3       9 UNK         0.0343 
     41 CB        -48.3972  -27.8090   16.4395 C.3       9 UNK        -0.2003 
     42 N         -48.5212  -25.3672   16.3065 N.am      9 UNK        -0.4272 
     43 C         -48.3782  -24.0982   16.7144 C.2       9 UNK         0.4988 
     44 O         -48.4240  -23.7557   17.8971 O.2       9 UNK        -0.5108 
     45 CA        -48.2108  -23.0229   15.6259 C.3       8 UNK         0.0248 
     46 CB        -46.7438  -22.9176   15.1802 C.3       8 UNK        -0.2001 
     47 N         -49.0719  -23.2473   14.4608 N.am      8 UNK        -0.4140 
     48 C         -50.4139  -23.2600   14.5000 C.2       8 UNK         0.5028 
     49 O         -51.0779  -23.0329   15.5131 O.2       8 UNK        -0.5428 
     50 CA        -51.1385  -23.6533   13.2017 C.3       7 UNK         0.0264 
     51 CB        -51.1408  -22.4947   12.1930 C.3       7 UNK        -0.1988 
     52 N         -50.5650  -24.8551   12.5932 N.am      7 UNK        -0.4454 
     53 C         -50.5410  -26.0610   13.1799 C.2       7 UNK         0.5027 
     54 O         -51.1117  -26.2991   14.2433 O.2       7 UNK        -0.5083 
     55 CA        -49.7230  -27.1775   12.4995 C.3       6 UNK         0.0844 
     56 C56       -50.5790  -28.0012   11.5154 C.3       14 UNK        -0.0967 
     57 S57       -49.7501  -29.5707   11.0719 S.3       14 UNK        -0.2604 
     58 C58       -49.3547  -29.3290    9.3129 C.3       14 UNK         0.0134 
     59 N         -48.5143  -26.6514   11.8614 N.am      6 UNK        -0.4116 
     60 C         -47.4485  -26.1874   12.5239 C.2       5 UNK         0.5034 
     61 O         -47.3549  -26.1695   13.7501 O.2       5 UNK        -0.5045 
     62 CA        -46.3168  -25.6041   11.6673 C.3       5 UNK         0.0224 
     63 CB        -45.4318  -26.7230   11.0947 C.3       5 UNK        -0.1978 
     64 N         -46.8337  -24.7708   10.5787 N.am      5 UNK        -0.4737 
     65 C         -47.3994  -23.5695   10.7661 C.2       4 UNK         0.5027 
     66 O         -47.5281  -23.0437   11.8722 O.2       4 UNK        -0.5211 
     67 CA        -47.9458  -22.8460    9.5213 C.3       4 UNK         0.0297 
     68 CB        -46.8383  -22.0133    8.8576 C.3       4 UNK        -0.1993 
     69 N         -48.5473  -23.7412    8.5277 N.am      4 UNK        -0.4486 
     70 C         -49.5929  -24.5453    8.7613 C.2       3 UNK         0.4961 
     71 O         -50.1652  -24.6294    9.8462 O.2       3 UNK        -0.5105 
     72 CA        -50.0673  -25.4463    7.6125 C.3       3 UNK         0.0299 
     73 CB        -51.0757  -24.7015    6.7248 C.3       3 UNK        -0.1972 
     74 N         -49.0307  -26.0581    6.7716 N.am      3 UNK        -0.4305 
     75 C         -47.9016  -26.6626    7.1771 C.2       2 UNK         0.5006 
     76 O         -47.4351  -26.5788    8.3143 O.2       2 UNK        -0.5106 
     77 CA        -47.2581  -27.6065    6.1521 C.3       2 UNK         0.0296 
     78 CB        -46.0587  -28.3915    6.7176 C.3       2 UNK        -0.2002 
     79 N         -48.2968  -28.5375    5.7129 N.am      2 UNK        -0.4032 
     80 C         -48.5134  -28.9310    4.4548 C.2       1 UNK         0.5000 
     81 O         -47.7579  -28.6843    3.5105 O.2       1 UNK        -0.5238 
     82 H82       -52.6985  -27.5537    1.5543 H         1 UNK         0.0889 
     83 H83       -51.5737  -28.6654    0.7711 H         1 UNK         0.0889 
     84 H84       -51.1432  -26.9642    0.9609 H         1 UNK         0.0889 
     85 H85       -50.4878  -29.9731    2.2367 H         1 UNK         0.3028 
     86 H86       -50.4963  -29.4843    5.0369 H         1 UNK         0.0864 
     87 H87       -48.9777  -31.5370    5.1335 H         1 UNK         0.0720 
     88 H88       -48.9499  -31.5546    3.3912 H         1 UNK         0.0720 
     89 H89       -50.5210  -33.2332    6.3356 H         1 UNK         0.0814 
     90 H90       -52.2497  -33.2099    6.1012 H         1 UNK         0.0814 
     91 H91       -49.5115  -31.5539    7.7197 H         1 UNK         0.1469 
     92 H92       -51.7163  -28.0753    8.8617 H         1 UNK         0.1381 
     93 H93       -53.4722  -30.9113    6.1961 H         1 UNK         0.1206 
     94 H94       -54.7554  -29.0245    6.8737 H         1 UNK         0.0813 
     95 H95       -53.8012  -27.5858    7.1169 H         1 UNK         0.0813 
     96 H96       -54.2471  -26.0823    8.9356 H         1 UNK         0.0638 
     97 H97       -53.0535  -26.8603    9.9203 H         1 UNK         0.0638 
     98 H98       -54.3787  -25.1584   11.0753 H         1 UNK         0.0568 
     99 H99       -57.9985  -25.6700   12.0462 H         1 UNK         0.3450 
    100 H100      -56.5694  -25.9541   13.0097 H         1 UNK         0.3450 
    101 H101      -53.6734  -26.1182   12.8414 H         1 UNK         0.2987 
    102 H102      -55.0825  -28.4270   14.9264 H         1 UNK         0.0766 
    103 H103      -52.8782  -29.2504   15.6127 H         1 UNK         0.0798 
    104 H104      -52.1410  -28.6945   14.1192 H         1 UNK         0.0798 
    105 H105      -53.3216  -29.9943   14.0845 H         1 UNK         0.0798 
    106 H106      -52.8718  -26.6216   15.2657 H         1 UNK         0.3198 
    107 H107      -53.7116  -23.9156   15.0993 H         1 UNK         0.0843 
    108 H108      -54.8580  -22.6476   16.9152 H         1 UNK         0.0831 
    109 H109      -55.8272  -24.0710   17.2974 H         1 UNK         0.0831 
    110 H110      -55.9923  -23.2824   15.7370 H         1 UNK         0.0831 
    111 H111      -52.2179  -24.2185   16.6819 H         1 UNK         0.3133 
    112 H112      -51.9651  -24.2650   19.3932 H         1 UNK         0.0566 
    113 H113      -51.2555  -26.1330   20.8915 H         1 UNK         0.0814 
    114 H114      -53.0034  -26.0108   20.7990 H         1 UNK         0.0814 
    115 H115      -52.1704  -27.2770   19.9099 H         1 UNK         0.0814 
    116 H116      -50.0247  -24.7154   18.4239 H         1 UNK         0.3091 
    117 H117      -48.1821  -26.4361   18.0614 H         1 UNK         0.0702 
    118 H118      -47.3546  -27.7754   16.1229 H         1 UNK         0.0785 
    119 H119      -49.0119  -27.9797   15.5564 H         1 UNK         0.0785 
    120 H120      -48.5120  -28.6780   17.0885 H         1 UNK         0.0785 
    121 H121      -48.4173  -25.5678   15.3167 H         1 UNK         0.2998 
    122 H122      -48.4998  -22.0656   16.0645 H         1 UNK         0.0697 
    123 H123      -46.6038  -22.1039   14.4682 H         1 UNK         0.0825 
    124 H124      -46.0903  -22.7203   16.0311 H         1 UNK         0.0825 
    125 H125      -46.3961  -23.8363   14.7076 H         1 UNK         0.0825 
    126 H126      -48.6054  -23.4029   13.5720 H         1 UNK         0.3029 
    127 H127      -52.1755  -23.8781   13.4494 H         1 UNK         0.0897 
    128 H128      -51.7032  -22.7518   11.2951 H         1 UNK         0.0792 
    129 H129      -51.6040  -21.6055   12.6225 H         1 UNK         0.0792 
    130 H130      -50.1315  -22.2203   11.8873 H         1 UNK         0.0792 
    131 H131      -50.1700  -24.7495   11.6599 H         1 UNK         0.3086 
    132 H132      -49.4043  -27.8507   13.2971 H         1 UNK         0.0583 
    133 H133      -51.5503  -28.2548   11.9419 H         1 UNK         0.1020 
    134 H134      -50.7855  -27.3983   10.6337 H         1 UNK         0.1020 
    135 H135      -49.1324  -28.2791    9.1428 H         1 UNK         0.0694 
    136 H136      -48.4433  -29.8809    9.0779 H         1 UNK         0.0694 
    137 H137      -48.5075  -26.6041   10.8529 H         1 UNK         0.2989 
    138 H138      -45.6996  -24.9778   12.3157 H         1 UNK         0.1055 
    139 H139      -45.0043  -27.3283   11.8953 H         1 UNK         0.0806 
    140 H140      -44.6015  -26.3154   10.5180 H         1 UNK         0.0806 
    141 H141      -45.9927  -27.3947   10.4437 H         1 UNK         0.0806 
    142 H142      -46.8413  -25.1805    9.6489 H         1 UNK         0.3061 
    143 H143      -48.7274  -22.1625    9.8588 H         1 UNK         0.0734 
    144 H144      -47.2292  -21.4144    8.0348 H         1 UNK         0.0832 
    145 H145      -46.3889  -21.3227    9.5728 H         1 UNK         0.0832 
    146 H146      -46.0380  -22.6430    8.4665 H         1 UNK         0.0832 
    147 H147      -48.1245  -23.7637    7.6111 H         1 UNK         0.3156 
    148 H148      -50.5986  -26.2748    8.0790 H         1 UNK         0.0589 
    149 H149      -50.6015  -23.8935    6.1664 H         1 UNK         0.0808 
    150 H150      -51.5464  -25.3744    6.0071 H         1 UNK         0.0808 
    151 H151      -51.8749  -24.2609    7.3230 H         1 UNK         0.0808 
    152 H152      -49.2941  -26.1897    5.8041 H         1 UNK         0.3098 
    153 H153      -46.9168  -26.9927    5.3158 H         1 UNK         0.0720 
    154 H154      -45.2734  -27.7142    7.0559 H         1 UNK         0.0791 
    155 H155      -45.6217  -29.0437    5.9614 H         1 UNK         0.0791 
    156 H156      -46.3459  -29.0105    7.5684 H         1 UNK         0.0791 
    157 H157      -48.9794  -28.7841    6.4167 H         1 UNK         0.3028 
@<TRIPOS>BOND
     1    1    2 1    
     2    1   82 1    
     3    1   83 1    
     4    1   84 1    
     5    2    3 2    
     6    2    4 am   BACKBONE|DICT|INTERRES
     7    4    5 1    
     8    4   85 1    
     9    5    6 1    
    10    5   80 1    
    11    5   86 1    
    12    6    7 1    
    13    6   87 1    
    14    6   88 1    
    15    7    8 1    
    16    8    9 1    
    17    8   89 1    
    18    8   90 1    
    19    9   10 ar   
    20    9   14 ar   
    21   10   11 ar   
    22   10   91 1    
    23   11   12 ar   
    24   11   58 1    
    25   12   13 ar   
    26   12   92 1    
    27   13   14 ar   
    28   13   15 1    
    29   14   93 1    
    30   15   16 1    
    31   15   94 1    
    32   15   95 1    
    33   16   17 1    
    34   17   18 1    
    35   17   96 1    
    36   17   97 1    
    37   18   19 1    
    38   18   22 1    
    39   18   98 1    
    40   19   20 am   BACKBONE|DICT|INTERRES
    41   19   21 2    
    42   20   99 1    
    43   20  100 1    
    44   22   23 am   BACKBONE|DICT|INTERRES
    45   22  101 1    
    46   23   24 2    
    47   23   25 1    
    48   25   26 1    
    49   25   27 1    
    50   25  102 1    
    51   26  103 1    
    52   26  104 1    
    53   26  105 1    
    54   27   28 am   BACKBONE|DICT|INTERRES
    55   27  106 1    
    56   28   29 2    
    57   28   30 1    
    58   30   31 1    
    59   30   32 1    
    60   30  107 1    
    61   31  108 1    
    62   31  109 1    
    63   31  110 1    
    64   32   33 am   BACKBONE|DICT|INTERRES
    65   32  111 1    
    66   33   34 2    
    67   33   35 1    
    68   35   36 1    
    69   35   37 1    
    70   35  112 1    
    71   36  113 1    
    72   36  114 1    
    73   36  115 1    
    74   37   38 am   BACKBONE|DICT|INTERRES
    75   37  116 1    
    76   38   39 2    
    77   38   40 1    
    78   40   41 1    
    79   40   42 1    
    80   40  117 1    
    81   41  118 1    
    82   41  119 1    
    83   41  120 1    
    84   42   43 am   BACKBONE|DICT|INTERRES
    85   42  121 1    
    86   43   44 2    
    87   43   45 1    
    88   45   46 1    
    89   45   47 1    
    90   45  122 1    
    91   46  123 1    
    92   46  124 1    
    93   46  125 1    
    94   47   48 am   BACKBONE|DICT|INTERRES
    95   47  126 1    
    96   48   49 2    
    97   48   50 1    
    98   50   51 1    
    99   50   52 1    
   100   50  127 1    
   101   51  128 1    
   102   51  129 1    
   103   51  130 1    
   104   52   53 am   BACKBONE|DICT|INTERRES
   105   52  131 1    
   106   53   54 2    
   107   53   55 1    
   108   55   56 1    
   109   55   59 1    
   110   55  132 1    
   111   56   57 1    
   112   56  133 1    
   113   56  134 1    
   114   57   58 1    
   115   58  135 1    
   116   58  136 1    
   117   59   60 am   BACKBONE|DICT|INTERRES
   118   59  137 1    
   119   60   61 2    
   120   60   62 1    
   121   62   63 1    
   122   62   64 1    
   123   62  138 1    
   124   63  139 1    
   125   63  140 1    
   126   63  141 1    
   127   64   65 am   BACKBONE|DICT|INTERRES
   128   64  142 1    
   129   65   66 2    
   130   65   67 1    
   131   67   68 1    
   132   67   69 1    
   133   67  143 1    
   134   68  144 1    
   135   68  145 1    
   136   68  146 1    
   137   69   70 am   BACKBONE|DICT|INTERRES
   138   69  147 1    
   139   70   71 2    
   140   70   72 1    
   141   72   73 1    
   142   72   74 1    
   143   72  148 1    
   144   73  149 1    
   145   73  150 1    
   146   73  151 1    
   147   74   75 am   BACKBONE|DICT|INTERRES
   148   74  152 1    
   149   75   76 2    
   150   75   77 1    
   151   77   78 1    
   152   77   79 1    
   153   77  153 1    
   154   78  154 1    
   155   78  155 1    
   156   78  156 1    
   157   79   80 am   BACKBONE|DICT|INTERRES
   158   79  157 1    
   159   80   81 2    
@<TRIPOS>SUBSTRUCTURE
     1 UNK         1 GROUP             0       ****    0 ROOT    
