@<TRIPOS>MOLECULE
3R207
157   159    1
SMALL
USER_CHARGES


@<TRIPOS>ATOM
      1 CA        -51.8698  -29.8876    6.5567 C.3       0 UNK        -0.1975 
      2 C         -51.4920  -28.8374    5.5225 C.2       0 UNK         0.4852 
      3 O         -51.2618  -29.1734    4.3607 O.2       0 UNK        -0.5216 
      4 N         -51.4299  -27.5665    5.9408 N.am      1 UNK        -0.4461 
      5 CA        -51.1390  -26.3953    5.1014 C.3       1 UNK         0.0864 
      6 C6        -51.3947  -25.0545    5.8439 C.3       14 UNK        -0.0898 
      7 S7        -52.9524  -24.9938    6.7971 S.3       14 UNK        -0.2598 
      8 C8        -52.3348  -24.8594    8.5090 C.3       14 UNK         0.0286 
      9 C9        -51.9370  -26.2119    9.0873 C.ar      14 UNK        -0.0844 
     10 C10       -50.6705  -26.7541    8.8394 C.ar      14 UNK        -0.0881 
     11 C11       -50.3227  -28.0108    9.3449 C.ar      14 UNK        -0.0643 
     12 C12       -51.2310  -28.6985   10.1546 C.ar      14 UNK        -0.0930 
     13 C13       -52.4793  -28.1453   10.4515 C.ar      14 UNK        -0.0827 
     14 C14       -52.8351  -26.9122    9.8988 C.ar      14 UNK        -0.1249 
     15 C15       -53.4150  -28.8593   11.4128 C.3       14 UNK         0.0141 
     16 S16       -54.4966  -30.0542   10.5782 S.3       14 UNK        -0.2313 
     17 C17       -55.0374  -31.0715   11.9965 C.3       14 UNK        -0.0915 
     18 CA        -56.5070  -30.8167   12.4288 C.3       13 UNK         0.0968 
     19 C         -57.0136  -31.9489   13.3737 C.2       13 UNK         0.5732 
     20 N         -57.4140  -31.6776   14.6114 N.am      13 UNK        -0.7310 
     21 O         -57.0575  -33.1077   12.9667 O.2       13 UNK        -0.5035 
     22 N         -56.7081  -29.4591   12.9656 N.am      13 UNK        -0.4233 
     23 C         -57.8998  -28.8417   12.9913 C.2       13 UNK         0.4989 
     24 O         -58.9047  -29.2964   12.4407 O.2       13 UNK        -0.4996 
     25 CA        -58.0045  -27.5010   13.7556 C.3       12 UNK         0.0216 
     26 CB        -59.4372  -27.2196   14.2579 C.3       12 UNK        -0.1964 
     27 N         -57.0439  -27.3508   14.8568 N.am      12 UNK        -0.4276 
     28 C         -56.8672  -28.1622   15.9124 C.2       12 UNK         0.5020 
     29 O         -57.5569  -29.1604   16.1288 O.2       12 UNK        -0.5489 
     30 CA        -55.6768  -27.8269   16.8435 C.3       11 UNK         0.0294 
     31 CB        -55.1889  -29.0587   17.6351 C.3       11 UNK        -0.2019 
     32 N         -54.5445  -27.1909   16.1460 N.am      11 UNK        -0.4493 
     33 C         -53.9166  -27.6657   15.0585 C.2       11 UNK         0.4932 
     34 O         -54.1916  -28.7383   14.5202 O.2       11 UNK        -0.5029 
     35 CA        -52.8654  -26.7560   14.4152 C.3       10 UNK         0.0280 
     36 CB        -53.5343  -25.6362   13.5987 C.3       10 UNK        -0.1976 
     37 N         -51.9244  -26.1655   15.3663 N.am      10 UNK        -0.4242 
     38 C         -50.9051  -26.8196   15.9378 C.2       10 UNK         0.5072 
     39 O         -50.7422  -28.0385   15.8523 O.2       10 UNK        -0.5224 
     40 CA        -49.8731  -25.9566   16.6973 C.3       9 UNK         0.0343 
     41 CB        -48.6189  -26.7541   17.1027 C.3       9 UNK        -0.2003 
     42 N         -49.4459  -24.7897   15.9164 N.am      9 UNK        -0.4272 
     43 C         -50.1143  -23.6315   15.8237 C.2       9 UNK         0.4988 
     44 O         -51.1884  -23.4199   16.3875 O.2       9 UNK        -0.5108 
     45 CA        -49.5146  -22.5582   14.9055 C.3       8 UNK         0.0248 
     46 CB        -48.2124  -21.9816   15.4873 C.3       8 UNK        -0.2001 
     47 N         -49.2698  -23.1176   13.5767 N.am      8 UNK        -0.4140 
     48 C         -50.1910  -23.1810   12.6036 C.2       8 UNK         0.5028 
     49 O         -51.3015  -22.6540   12.6776 O.2       8 UNK        -0.5428 
     50 CA        -49.8267  -23.9714   11.3340 C.3       7 UNK         0.0264 
     51 CB        -49.3349  -23.0295   10.2234 C.3       7 UNK        -0.1988 
     52 N         -48.8231  -25.0107   11.5737 N.am      7 UNK        -0.4454 
     53 C         -49.0705  -26.1426   12.2544 C.2       7 UNK         0.5027 
     54 O         -50.1808  -26.4351   12.6846 O.2       7 UNK        -0.5083 
     55 CA        -47.8913  -27.0992   12.5462 C.3       6 UNK         0.0844 
     56 C56       -47.8728  -28.3028   11.5726 C.3       14 UNK        -0.0967 
     57 S57       -47.5767  -27.8398    9.8255 S.3       14 UNK        -0.2604 
     58 C58       -48.9821  -28.6426    8.9928 C.3       14 UNK         0.0134 
     59 N         -46.5918  -26.4289   12.5904 N.am      6 UNK        -0.4116 
     60 C         -46.2535  -25.4151   13.3975 C.2       5 UNK         0.5034 
     61 O         -46.9727  -24.9969   14.3066 O.2       5 UNK        -0.5045 
     62 CA        -44.9221  -24.6993   13.0901 C.3       5 UNK         0.0224 
     63 CB        -43.8344  -25.1529   14.0761 C.3       5 UNK        -0.1978 
     64 N         -44.4318  -24.8716   11.7105 N.am      5 UNK        -0.4737 
     65 C         -45.1120  -24.5526   10.5986 C.2       4 UNK         0.5027 
     66 O         -46.2468  -24.0704   10.6245 O.2       4 UNK        -0.5211 
     67 CA        -44.4402  -24.8739    9.2499 C.3       4 UNK         0.0297 
     68 CB        -43.9233  -26.3245    9.1944 C.3       4 UNK        -0.1993 
     69 N         -45.4016  -24.6854    8.1631 N.am      4 UNK        -0.4486 
     70 C         -45.5428  -23.5705    7.4363 C.2       3 UNK         0.4961 
     71 O         -44.7744  -22.6090    7.5027 O.2       3 UNK        -0.5105 
     72 CA        -46.7701  -23.5100    6.5016 C.3       3 UNK         0.0299 
     73 CB        -46.5716  -22.5502    5.3086 C.3       3 UNK        -0.1972 
     74 N         -47.2451  -24.8271    6.0511 N.am      3 UNK        -0.4305 
     75 C         -46.6055  -25.7036    5.2584 C.2       2 UNK         0.5006 
     76 O         -45.4837  -25.5145    4.7876 O.2       2 UNK        -0.5106 
     77 CA        -47.3257  -27.0325    4.9490 C.3       2 UNK         0.0296 
     78 CB        -46.6622  -28.1866    5.7201 C.3       2 UNK        -0.2002 
     79 N         -48.7609  -27.0170    5.2554 N.am      2 UNK        -0.4032 
     80 C         -49.7013  -26.3865    4.5338 C.2       1 UNK         0.5000 
     81 O         -49.4662  -25.7799    3.4877 O.2       1 UNK        -0.5238 
     82 H82       -52.2873  -29.4373    7.4574 H         1 UNK         0.0889 
     83 H83       -50.9938  -30.4703    6.8395 H         1 UNK         0.0889 
     84 H84       -52.6160  -30.5682    6.1478 H         1 UNK         0.0889 
     85 H85       -51.6801  -27.3530    6.8983 H         1 UNK         0.3028 
     86 H86       -51.8193  -26.4423    4.2482 H         1 UNK         0.0864 
     87 H87       -51.4283  -24.2389    5.1188 H         1 UNK         0.0720 
     88 H88       -50.5665  -24.8089    6.5095 H         1 UNK         0.0720 
     89 H89       -53.1186  -24.4127    9.1229 H         1 UNK         0.0814 
     90 H90       -51.4969  -24.1633    8.5515 H         1 UNK         0.0814 
     91 H91       -49.9552  -26.2085    8.2423 H         1 UNK         0.1469 
     92 H92       -50.9644  -29.6619   10.5666 H         1 UNK         0.1381 
     93 H93       -53.8055  -26.4885   10.1186 H         1 UNK         0.1206 
     94 H94       -54.0421  -28.1356   11.9308 H         1 UNK         0.0813 
     95 H95       -52.8227  -29.3618   12.1789 H         1 UNK         0.0813 
     96 H96       -54.3643  -30.9341   12.8440 H         1 UNK         0.0638 
     97 H97       -54.9079  -32.1098   11.6857 H         1 UNK         0.0638 
     98 H98       -57.1167  -30.9075   11.5278 H         1 UNK         0.0568 
     99 H99       -57.7409  -32.4326   15.1920 H         1 UNK         0.3450 
    100 H100      -57.4062  -30.7320   14.9817 H         1 UNK         0.3450 
    101 H101      -55.9241  -29.0650   13.4738 H         1 UNK         0.2987 
    102 H102      -57.7538  -26.7277   13.0280 H         1 UNK         0.0766 
    103 H103      -59.4970  -26.2599   14.7711 H         1 UNK         0.0798 
    104 H104      -59.7803  -27.9909   14.9485 H         1 UNK         0.0798 
    105 H105      -60.1466  -27.1848   13.4300 H         1 UNK         0.0798 
    106 H106      -56.4130  -26.5660   14.7761 H         1 UNK         0.3198 
    107 H107      -56.0518  -27.0963   17.5619 H         1 UNK         0.0843 
    108 H108      -54.8531  -29.8566   16.9716 H         1 UNK         0.0831 
    109 H109      -55.9863  -29.4674   18.2572 H         1 UNK         0.0831 
    110 H110      -54.3620  -28.8034   18.2976 H         1 UNK         0.0831 
    111 H111      -54.2506  -26.2932   16.5066 H         1 UNK         0.3133 
    112 H112      -52.2991  -27.3795   13.7220 H         1 UNK         0.0566 
    113 H113      -52.7998  -25.1135   12.9849 H         1 UNK         0.0814 
    114 H114      -54.2912  -26.0310   12.9207 H         1 UNK         0.0814 
    115 H115      -54.0211  -24.8985   14.2372 H         1 UNK         0.0814 
    116 H116      -51.9717  -25.1633   15.5081 H         1 UNK         0.3091 
    117 H117      -50.3575  -25.6124   17.6135 H         1 UNK         0.0702 
    118 H118      -47.9220  -26.1357   17.6686 H         1 UNK         0.0785 
    119 H119      -48.0901  -27.1408   16.2304 H         1 UNK         0.0785 
    120 H120      -48.8799  -27.6049   17.7333 H         1 UNK         0.0785 
    121 H121      -48.5833  -24.8938   15.3889 H         1 UNK         0.2998 
    122 H122      -50.2331  -21.7392   14.8280 H         1 UNK         0.0697 
    123 H123      -47.4389  -22.7403   15.6076 H         1 UNK         0.0825 
    124 H124      -48.3892  -21.5413   16.4695 H         1 UNK         0.0825 
    125 H125      -47.8102  -21.1949   14.8489 H         1 UNK         0.0825 
    126 H126      -48.3984  -23.6162   13.4489 H         1 UNK         0.3029 
    127 H127      -50.7396  -24.4609   10.9907 H         1 UNK         0.0897 
    128 H128      -48.4431  -22.4798   10.5271 H         1 UNK         0.0792 
    129 H129      -50.0997  -22.2946    9.9691 H         1 UNK         0.0792 
    130 H130      -49.0942  -23.5794    9.3137 H         1 UNK         0.0792 
    131 H131      -47.8815  -24.8206   11.2369 H         1 UNK         0.3086 
    132 H132      -48.0640  -27.4951   13.5493 H         1 UNK         0.0583 
    133 H133      -47.0929  -29.0047   11.8719 H         1 UNK         0.1020 
    134 H134      -48.8055  -28.8615   11.6615 H         1 UNK         0.1020 
    135 H135      -48.8338  -28.5840    7.9151 H         1 UNK         0.0694 
    136 H136      -48.9789  -29.7065    9.2357 H         1 UNK         0.0694 
    137 H137      -45.9440  -26.6831   11.8601 H         1 UNK         0.2989 
    138 H138      -45.0996  -23.6323   13.2412 H         1 UNK         0.1055 
    139 H139      -44.1601  -25.0140   15.1083 H         1 UNK         0.0806 
    140 H140      -42.9173  -24.5772   13.9496 H         1 UNK         0.0806 
    141 H141      -43.5901  -26.2086   13.9512 H         1 UNK         0.0806 
    142 H142      -43.5054  -25.2625   11.6109 H         1 UNK         0.3061 
    143 H143      -43.5935  -24.1958    9.1257 H         1 UNK         0.0734 
    144 H144      -43.5256  -26.5613    8.2072 H         1 UNK         0.0832 
    145 H145      -43.1146  -26.4910    9.9065 H         1 UNK         0.0832 
    146 H146      -44.7091  -27.0471    9.4149 H         1 UNK         0.0832 
    147 H147      -46.1154  -25.3934    8.0787 H         1 UNK         0.3156 
    148 H148      -47.5769  -23.0997    7.1108 H         1 UNK         0.0589 
    149 H149      -45.7243  -22.8435    4.6884 H         1 UNK         0.0808 
    150 H150      -47.4571  -22.5172    4.6739 H         1 UNK         0.0808 
    151 H151      -46.3834  -21.5323    5.6521 H         1 UNK         0.0808 
    152 H152      -48.1577  -25.0936    6.3860 H         1 UNK         0.3098 
    153 H153      -47.2087  -27.2247    3.8803 H         1 UNK         0.0720 
    154 H154      -47.1385  -29.1417    5.4977 H         1 UNK         0.0791 
    155 H155      -46.7012  -28.0313    6.7986 H         1 UNK         0.0791 
    156 H156      -45.6101  -28.2815    5.4473 H         1 UNK         0.0791 
    157 H157      -49.0586  -27.5266    6.0727 H         1 UNK         0.3028 
@<TRIPOS>BOND
     1    1    2 1    
     2    1   82 1    
     3    1   83 1    
     4    1   84 1    
     5    2    3 2    
     6    2    4 am   BACKBONE|DICT|INTERRES
     7    4    5 1    
     8    4   85 1    
     9    5    6 1    
    10    5   80 1    
    11    5   86 1    
    12    6    7 1    
    13    6   87 1    
    14    6   88 1    
    15    7    8 1    
    16    8    9 1    
    17    8   89 1    
    18    8   90 1    
    19    9   10 ar   
    20    9   14 ar   
    21   10   11 ar   
    22   10   91 1    
    23   11   12 ar   
    24   11   58 1    
    25   12   13 ar   
    26   12   92 1    
    27   13   14 ar   
    28   13   15 1    
    29   14   93 1    
    30   15   16 1    
    31   15   94 1    
    32   15   95 1    
    33   16   17 1    
    34   17   18 1    
    35   17   96 1    
    36   17   97 1    
    37   18   19 1    
    38   18   22 1    
    39   18   98 1    
    40   19   20 am   BACKBONE|DICT|INTERRES
    41   19   21 2    
    42   20   99 1    
    43   20  100 1    
    44   22   23 am   BACKBONE|DICT|INTERRES
    45   22  101 1    
    46   23   24 2    
    47   23   25 1    
    48   25   26 1    
    49   25   27 1    
    50   25  102 1    
    51   26  103 1    
    52   26  104 1    
    53   26  105 1    
    54   27   28 am   BACKBONE|DICT|INTERRES
    55   27  106 1    
    56   28   29 2    
    57   28   30 1    
    58   30   31 1    
    59   30   32 1    
    60   30  107 1    
    61   31  108 1    
    62   31  109 1    
    63   31  110 1    
    64   32   33 am   BACKBONE|DICT|INTERRES
    65   32  111 1    
    66   33   34 2    
    67   33   35 1    
    68   35   36 1    
    69   35   37 1    
    70   35  112 1    
    71   36  113 1    
    72   36  114 1    
    73   36  115 1    
    74   37   38 am   BACKBONE|DICT|INTERRES
    75   37  116 1    
    76   38   39 2    
    77   38   40 1    
    78   40   41 1    
    79   40   42 1    
    80   40  117 1    
    81   41  118 1    
    82   41  119 1    
    83   41  120 1    
    84   42   43 am   BACKBONE|DICT|INTERRES
    85   42  121 1    
    86   43   44 2    
    87   43   45 1    
    88   45   46 1    
    89   45   47 1    
    90   45  122 1    
    91   46  123 1    
    92   46  124 1    
    93   46  125 1    
    94   47   48 am   BACKBONE|DICT|INTERRES
    95   47  126 1    
    96   48   49 2    
    97   48   50 1    
    98   50   51 1    
    99   50   52 1    
   100   50  127 1    
   101   51  128 1    
   102   51  129 1    
   103   51  130 1    
   104   52   53 am   BACKBONE|DICT|INTERRES
   105   52  131 1    
   106   53   54 2    
   107   53   55 1    
   108   55   56 1    
   109   55   59 1    
   110   55  132 1    
   111   56   57 1    
   112   56  133 1    
   113   56  134 1    
   114   57   58 1    
   115   58  135 1    
   116   58  136 1    
   117   59   60 am   BACKBONE|DICT|INTERRES
   118   59  137 1    
   119   60   61 2    
   120   60   62 1    
   121   62   63 1    
   122   62   64 1    
   123   62  138 1    
   124   63  139 1    
   125   63  140 1    
   126   63  141 1    
   127   64   65 am   BACKBONE|DICT|INTERRES
   128   64  142 1    
   129   65   66 2    
   130   65   67 1    
   131   67   68 1    
   132   67   69 1    
   133   67  143 1    
   134   68  144 1    
   135   68  145 1    
   136   68  146 1    
   137   69   70 am   BACKBONE|DICT|INTERRES
   138   69  147 1    
   139   70   71 2    
   140   70   72 1    
   141   72   73 1    
   142   72   74 1    
   143   72  148 1    
   144   73  149 1    
   145   73  150 1    
   146   73  151 1    
   147   74   75 am   BACKBONE|DICT|INTERRES
   148   74  152 1    
   149   75   76 2    
   150   75   77 1    
   151   77   78 1    
   152   77   79 1    
   153   77  153 1    
   154   78  154 1    
   155   78  155 1    
   156   78  156 1    
   157   79   80 am   BACKBONE|DICT|INTERRES
   158   79  157 1    
   159   80   81 2    
@<TRIPOS>SUBSTRUCTURE
     1 UNK         1 GROUP             0       ****    0 ROOT    
