@<TRIPOS>MOLECULE
3R207
157   159    1
SMALL
USER_CHARGES


@<TRIPOS>ATOM
      1 CA        -47.5967  -29.4077   10.4180 C.3       0 UNK        -0.1975 
      2 C         -47.6413  -28.7873    9.0302 C.2       0 UNK         0.4852 
      3 O         -46.8207  -27.9211    8.7209 O.2       0 UNK        -0.5216 
      4 N         -48.5686  -29.2490    8.1771 N.am      1 UNK        -0.4461 
      5 CA        -48.8865  -28.7293    6.8309 C.3       1 UNK         0.0864 
      6 C6        -49.5269  -27.3158    6.8711 C.3       14 UNK        -0.0898 
      7 S7        -50.9935  -27.2227    7.9494 S.3       14 UNK        -0.2598 
      8 C8        -52.2751  -26.6111    6.8098 C.3       14 UNK         0.0286 
      9 C9        -53.4621  -26.0487    7.5790 C.ar      14 UNK        -0.0844 
     10 C10       -53.7788  -24.6888    7.5014 C.ar      14 UNK        -0.0881 
     11 C11       -54.8481  -24.1598    8.2355 C.ar      14 UNK        -0.0643 
     12 C12       -55.6031  -25.0131    9.0485 C.ar      14 UNK        -0.0930 
     13 C13       -55.3093  -26.3794    9.1194 C.ar      14 UNK        -0.0827 
     14 C14       -54.2447  -26.8905    8.3730 C.ar      14 UNK        -0.1249 
     15 C15       -56.1556  -27.3046    9.9842 C.3       14 UNK         0.0141 
     16 S16       -55.5080  -27.4332   11.6815 S.3       14 UNK        -0.2313 
     17 C17       -54.1438  -28.6340   11.4918 C.3       14 UNK        -0.0915 
     18 CA        -54.3150  -29.9028   12.3702 C.3       13 UNK         0.0968 
     19 C         -53.1992  -30.9537   12.0924 C.2       13 UNK         0.5732 
     20 N         -52.5261  -31.5099   13.0944 N.am      13 UNK        -0.7310 
     21 O         -52.9483  -31.2912   10.9380 O.2       13 UNK        -0.5035 
     22 N         -54.4537  -29.5730   13.7976 N.am      13 UNK        -0.4233 
     23 C         -55.2867  -30.1986   14.6390 C.2       13 UNK         0.4989 
     24 O         -56.0811  -31.0729   14.2863 O.2       13 UNK        -0.4996 
     25 CA        -55.2269  -29.7806   16.1230 C.3       12 UNK         0.0216 
     26 CB        -55.8626  -30.8262   17.0644 C.3       12 UNK        -0.1964 
     27 N         -53.8817  -29.4253   16.5924 N.am      12 UNK        -0.4276 
     28 C         -52.7780  -30.1916   16.5739 C.2       12 UNK         0.5020 
     29 O         -52.7516  -31.3300   16.1032 O.2       12 UNK        -0.5489 
     30 CA        -51.4812  -29.5816   17.1445 C.3       11 UNK         0.0294 
     31 CB        -50.2477  -30.0065   16.3258 C.3       11 UNK        -0.2019 
     32 N         -51.5515  -28.1205   17.1580 N.am      11 UNK        -0.4493 
     33 C         -51.7080  -27.3466   18.2409 C.2       11 UNK         0.4932 
     34 O         -51.7121  -27.7760   19.3944 O.2       11 UNK        -0.5029 
     35 CA        -51.9309  -25.8388   18.0004 C.3       10 UNK         0.0280 
     36 CB        -50.6239  -25.0630   18.2260 C.3       10 UNK        -0.1976 
     37 N         -52.4554  -25.5318   16.6640 N.am      10 UNK        -0.4242 
     38 C         -53.6653  -25.9114   16.2180 C.2       10 UNK         0.5072 
     39 O         -54.5001  -26.4750   16.9259 O.2       10 UNK        -0.5224 
     40 CA        -53.9719  -25.7221   14.7195 C.3       9 UNK         0.0343 
     41 CB        -54.7777  -24.4360   14.4891 C.3       9 UNK        -0.2003 
     42 N         -52.7729  -25.7145   13.8750 N.am      9 UNK        -0.4272 
     43 C         -51.8995  -26.7315   13.7864 C.2       9 UNK         0.4988 
     44 O         -52.1089  -27.8314   14.2981 O.2       9 UNK        -0.5108 
     45 CA        -50.5533  -26.4945   13.0725 C.3       8 UNK         0.0248 
     46 CB        -50.5070  -27.2635   11.7432 C.3       8 UNK        -0.2001 
     47 N         -50.2357  -25.0842   12.8293 N.am      8 UNK        -0.4140 
     48 C         -50.1042  -24.1382   13.7753 C.2       8 UNK         0.5028 
     49 O         -50.1475  -24.3767   14.9829 O.2       8 UNK        -0.5428 
     50 CA        -49.9975  -22.6725   13.3063 C.3       7 UNK         0.0264 
     51 CB        -48.5332  -22.2092   13.3194 C.3       7 UNK        -0.1988 
     52 N         -50.5766  -22.4453   11.9765 N.am      7 UNK        -0.4454 
     53 C         -51.8626  -22.6706   11.6578 C.2       7 UNK         0.5027 
     54 O         -52.7204  -22.9374   12.4995 O.2       7 UNK        -0.5083 
     55 CA        -52.2607  -22.6839   10.1641 C.3       6 UNK         0.0844 
     56 C56       -53.2699  -21.5536    9.8475 C.3       14 UNK        -0.0967 
     57 S57       -53.8072  -21.5382    8.1023 S.3       14 UNK        -0.2604 
     58 C58       -55.2302  -22.6836    8.1261 C.3       14 UNK         0.0134 
     59 N         -51.1323  -22.7190    9.2219 N.am      6 UNK        -0.4116 
     60 C         -50.2283  -23.7039    9.1381 C.2       5 UNK         0.5034 
     61 O         -50.1819  -24.6401    9.9379 O.2       5 UNK        -0.5045 
     62 CA        -49.1930  -23.6367    7.9955 C.3       5 UNK         0.0224 
     63 CB        -49.0166  -22.2298    7.3796 C.3       5 UNK        -0.1978 
     64 N         -47.9021  -24.1939    8.4214 N.am      5 UNK        -0.4737 
     65 C         -47.1410  -23.7555    9.4343 C.2       4 UNK         0.5027 
     66 O         -47.3462  -22.7090   10.0503 O.2       4 UNK        -0.5211 
     67 CA        -45.9759  -24.6595    9.8651 C.3       4 UNK         0.0297 
     68 CB        -46.4144  -25.5372   11.0496 C.3       4 UNK        -0.1993 
     69 N         -45.4624  -25.5166    8.7885 N.am      4 UNK        -0.4486 
     70 C         -44.6416  -25.0777    7.8240 C.2       3 UNK         0.4961 
     71 O         -44.3317  -23.8922    7.6975 O.2       3 UNK        -0.5105 
     72 CA        -44.0051  -26.0965    6.8631 C.3       3 UNK         0.0299 
     73 CB        -42.5839  -26.4474    7.3512 C.3       3 UNK        -0.1972 
     74 N         -44.7760  -27.3277    6.6328 N.am      3 UNK        -0.4305 
     75 C         -44.5842  -28.1119    5.5557 C.2       2 UNK         0.5006 
     76 O         -43.8089  -27.8288    4.6404 O.2       2 UNK        -0.5106 
     77 CA        -45.3446  -29.4499    5.4648 C.3       2 UNK         0.0296 
     78 CB        -44.4654  -30.5984    5.9869 C.3       2 UNK        -0.2002 
     79 N         -46.6133  -29.4555    6.1865 N.am      2 UNK        -0.4032 
     80 C         -47.7038  -28.7648    5.8297 C.2       1 UNK         0.5000 
     81 O         -47.7922  -28.1589    4.7596 O.2       1 UNK        -0.5238 
     82 H82       -47.5346  -28.6293   11.1774 H         1 UNK         0.0889 
     83 H83       -46.7186  -30.0455   10.5145 H         1 UNK         0.0889 
     84 H84       -48.4828  -30.0083   10.6230 H         1 UNK         0.0889 
     85 H85       -49.1887  -29.9812    8.4948 H         1 UNK         0.3028 
     86 H86       -49.6297  -29.4129    6.4176 H         1 UNK         0.0864 
     87 H87       -49.8094  -26.9920    5.8680 H         1 UNK         0.0720 
     88 H88       -48.7997  -26.5890    7.2309 H         1 UNK         0.0720 
     89 H89       -51.8493  -25.8449    6.1603 H         1 UNK         0.0814 
     90 H90       -52.6052  -27.4245    6.1622 H         1 UNK         0.0814 
     91 H91       -53.1896  -24.0377    6.8709 H         1 UNK         0.1469 
     92 H92       -56.4330  -24.6176    9.6181 H         1 UNK         0.1381 
     93 H93       -54.0089  -27.9443    8.4163 H         1 UNK         0.1206 
     94 H94       -56.2233  -28.2968    9.5353 H         1 UNK         0.0813 
     95 H95       -57.1783  -26.9275   10.0315 H         1 UNK         0.0813 
     96 H96       -54.0679  -28.9205   10.4435 H         1 UNK         0.0638 
     97 H97       -53.2113  -28.1276   11.7267 H         1 UNK         0.0638 
     98 H98       -55.2359  -30.3815   12.0331 H         1 UNK         0.0568 
     99 H99       -52.7342  -31.2890   14.0617 H         1 UNK         0.3450 
    100 H100      -51.8168  -32.1925   12.8830 H         1 UNK         0.3450 
    101 H101      -53.7750  -28.9105   14.1583 H         1 UNK         0.2987 
    102 H102      -55.8220  -28.8692   16.1967 H         1 UNK         0.0766 
    103 H103      -55.8364  -30.4936   18.1020 H         1 UNK         0.0798 
    104 H104      -56.9087  -31.0012   16.8097 H         1 UNK         0.0798 
    105 H105      -55.3481  -31.7861   17.0065 H         1 UNK         0.0798 
    106 H106      -53.8005  -28.4862   16.9662 H         1 UNK         0.3198 
    107 H107      -51.3676  -29.9667   18.1599 H         1 UNK         0.0843 
    108 H108      -50.1127  -31.0886   16.3512 H         1 UNK         0.0831 
    109 H109      -49.3357  -29.5595   16.7213 H         1 UNK         0.0831 
    110 H110      -50.3387  -29.7142   15.2787 H         1 UNK         0.0831 
    111 H111      -51.6001  -27.6931   16.2388 H         1 UNK         0.3133 
    112 H112      -52.6633  -25.4935   18.7331 H         1 UNK         0.0566 
    113 H113      -49.8444  -25.3757   17.5300 H         1 UNK         0.0814 
    114 H114      -50.2431  -25.2243   19.2355 H         1 UNK         0.0814 
    115 H115      -50.7712  -23.9899   18.1028 H         1 UNK         0.0814 
    116 H116      -51.8092  -25.0860   16.0188 H         1 UNK         0.3091 
    117 H117      -54.5874  -26.5678   14.4083 H         1 UNK         0.0702 
    118 H118      -55.6953  -24.4385   15.0789 H         1 UNK         0.0785 
    119 H119      -55.0658  -24.3336   13.4424 H         1 UNK         0.0785 
    120 H120      -54.2094  -23.5483   14.7695 H         1 UNK         0.0785 
    121 H121      -52.5612  -24.8398   13.4076 H         1 UNK         0.2998 
    122 H122      -49.7739  -26.8940   13.7240 H         1 UNK         0.0697 
    123 H123      -51.2714  -26.9104   11.0496 H         1 UNK         0.0825 
    124 H124      -50.6697  -28.3311   11.8976 H         1 UNK         0.0825 
    125 H125      -49.5427  -27.1489   11.2497 H         1 UNK         0.0825 
    126 H126      -50.1932  -24.8060   11.8509 H         1 UNK         0.3029 
    127 H127      -50.5574  -22.0624   14.0183 H         1 UNK         0.0897 
    128 H128      -48.4418  -21.1636   13.0249 H         1 UNK         0.0792 
    129 H129      -48.1052  -22.3032   14.3184 H         1 UNK         0.0792 
    130 H130      -47.9164  -22.8041   12.6458 H         1 UNK         0.0792 
    131 H131      -49.9247  -22.2569   11.2271 H         1 UNK         0.3086 
    132 H132      -52.7862  -23.6310   10.0297 H         1 UNK         0.0583 
    133 H133      -54.1512  -21.6350   10.4872 H         1 UNK         0.1020 
    134 H134      -52.8282  -20.5802   10.0691 H         1 UNK         0.1020 
    135 H135      -55.9021  -22.3952    8.9360 H         1 UNK         0.0694 
    136 H136      -55.7924  -22.5488    7.2013 H         1 UNK         0.0694 
    137 H137      -51.1063  -21.9750    8.5404 H         1 UNK         0.2989 
    138 H138      -49.5729  -24.2940    7.2126 H         1 UNK         0.1055 
    139 H139      -48.2312  -22.2309    6.6235 H         1 UNK         0.0806 
    140 H140      -48.7499  -21.4829    8.1283 H         1 UNK         0.0806 
    141 H141      -49.9284  -21.8940    6.8844 H         1 UNK         0.0806 
    142 H142      -47.6526  -25.0876    8.0237 H         1 UNK         0.3061 
    143 H143      -45.1657  -24.0126   10.2089 H         1 UNK         0.0734 
    144 H144      -46.7039  -24.9231   11.9031 H         1 UNK         0.0832 
    145 H145      -47.2753  -26.1548   10.7929 H         1 UNK         0.0832 
    146 H146      -45.6113  -26.1957   11.3805 H         1 UNK         0.0832 
    147 H147      -45.7517  -26.4923    8.8220 H         1 UNK         0.3156 
    148 H148      -43.9146  -25.5744    5.9078 H         1 UNK         0.0589 
    149 H149      -42.6108  -27.0305    8.2724 H         1 UNK         0.0808 
    150 H150      -42.0314  -27.0218    6.6077 H         1 UNK         0.0808 
    151 H151      -42.0017  -25.5467    7.5518 H         1 UNK         0.0808 
    152 H152      -45.4558  -27.6025    7.3357 H         1 UNK         0.3098 
    153 H153      -45.5555  -29.6361    4.4094 H         1 UNK         0.0720 
    154 H154      -44.9549  -31.5640    5.8582 H         1 UNK         0.0791 
    155 H155      -43.5192  -30.6425    5.4454 H         1 UNK         0.0791 
    156 H156      -44.2294  -30.4781    7.0451 H         1 UNK         0.0791 
    157 H157      -46.6263  -29.9160    7.0848 H         1 UNK         0.3028 
@<TRIPOS>BOND
     1    1    2 1    
     2    1   82 1    
     3    1   83 1    
     4    1   84 1    
     5    2    3 2    
     6    2    4 am   BACKBONE|DICT|INTERRES
     7    4    5 1    
     8    4   85 1    
     9    5    6 1    
    10    5   80 1    
    11    5   86 1    
    12    6    7 1    
    13    6   87 1    
    14    6   88 1    
    15    7    8 1    
    16    8    9 1    
    17    8   89 1    
    18    8   90 1    
    19    9   10 ar   
    20    9   14 ar   
    21   10   11 ar   
    22   10   91 1    
    23   11   12 ar   
    24   11   58 1    
    25   12   13 ar   
    26   12   92 1    
    27   13   14 ar   
    28   13   15 1    
    29   14   93 1    
    30   15   16 1    
    31   15   94 1    
    32   15   95 1    
    33   16   17 1    
    34   17   18 1    
    35   17   96 1    
    36   17   97 1    
    37   18   19 1    
    38   18   22 1    
    39   18   98 1    
    40   19   20 am   BACKBONE|DICT|INTERRES
    41   19   21 2    
    42   20   99 1    
    43   20  100 1    
    44   22   23 am   BACKBONE|DICT|INTERRES
    45   22  101 1    
    46   23   24 2    
    47   23   25 1    
    48   25   26 1    
    49   25   27 1    
    50   25  102 1    
    51   26  103 1    
    52   26  104 1    
    53   26  105 1    
    54   27   28 am   BACKBONE|DICT|INTERRES
    55   27  106 1    
    56   28   29 2    
    57   28   30 1    
    58   30   31 1    
    59   30   32 1    
    60   30  107 1    
    61   31  108 1    
    62   31  109 1    
    63   31  110 1    
    64   32   33 am   BACKBONE|DICT|INTERRES
    65   32  111 1    
    66   33   34 2    
    67   33   35 1    
    68   35   36 1    
    69   35   37 1    
    70   35  112 1    
    71   36  113 1    
    72   36  114 1    
    73   36  115 1    
    74   37   38 am   BACKBONE|DICT|INTERRES
    75   37  116 1    
    76   38   39 2    
    77   38   40 1    
    78   40   41 1    
    79   40   42 1    
    80   40  117 1    
    81   41  118 1    
    82   41  119 1    
    83   41  120 1    
    84   42   43 am   BACKBONE|DICT|INTERRES
    85   42  121 1    
    86   43   44 2    
    87   43   45 1    
    88   45   46 1    
    89   45   47 1    
    90   45  122 1    
    91   46  123 1    
    92   46  124 1    
    93   46  125 1    
    94   47   48 am   BACKBONE|DICT|INTERRES
    95   47  126 1    
    96   48   49 2    
    97   48   50 1    
    98   50   51 1    
    99   50   52 1    
   100   50  127 1    
   101   51  128 1    
   102   51  129 1    
   103   51  130 1    
   104   52   53 am   BACKBONE|DICT|INTERRES
   105   52  131 1    
   106   53   54 2    
   107   53   55 1    
   108   55   56 1    
   109   55   59 1    
   110   55  132 1    
   111   56   57 1    
   112   56  133 1    
   113   56  134 1    
   114   57   58 1    
   115   58  135 1    
   116   58  136 1    
   117   59   60 am   BACKBONE|DICT|INTERRES
   118   59  137 1    
   119   60   61 2    
   120   60   62 1    
   121   62   63 1    
   122   62   64 1    
   123   62  138 1    
   124   63  139 1    
   125   63  140 1    
   126   63  141 1    
   127   64   65 am   BACKBONE|DICT|INTERRES
   128   64  142 1    
   129   65   66 2    
   130   65   67 1    
   131   67   68 1    
   132   67   69 1    
   133   67  143 1    
   134   68  144 1    
   135   68  145 1    
   136   68  146 1    
   137   69   70 am   BACKBONE|DICT|INTERRES
   138   69  147 1    
   139   70   71 2    
   140   70   72 1    
   141   72   73 1    
   142   72   74 1    
   143   72  148 1    
   144   73  149 1    
   145   73  150 1    
   146   73  151 1    
   147   74   75 am   BACKBONE|DICT|INTERRES
   148   74  152 1    
   149   75   76 2    
   150   75   77 1    
   151   77   78 1    
   152   77   79 1    
   153   77  153 1    
   154   78  154 1    
   155   78  155 1    
   156   78  156 1    
   157   79   80 am   BACKBONE|DICT|INTERRES
   158   79  157 1    
   159   80   81 2    
@<TRIPOS>SUBSTRUCTURE
     1 UNK         1 GROUP             0       ****    0 ROOT    
