@<TRIPOS>MOLECULE
3R207
157   159    1
SMALL
USER_CHARGES


@<TRIPOS>ATOM
      1 CA        -48.5451  -30.1197    4.4879 C.3       0 UNK        -0.1975 
      2 C         -49.0472  -28.8073    3.9050 C.2       0 UNK         0.4852 
      3 O         -48.7076  -28.4660    2.7712 O.2       0 UNK        -0.5216 
      4 N         -49.8384  -28.0531    4.6784 N.am      1 UNK        -0.4461 
      5 CA        -50.4307  -26.7557    4.3255 C.3       1 UNK         0.0864 
      6 C6        -51.7192  -26.4800    5.1507 C.3       14 UNK        -0.0898 
      7 S7        -51.4999  -26.6559    6.9570 S.3       14 UNK        -0.2598 
      8 C8        -52.2658  -28.2787    7.2708 C.3       14 UNK         0.0286 
      9 C9        -51.7821  -28.8722    8.5864 C.ar      14 UNK        -0.0844 
     10 C10       -50.4518  -29.2810    8.7160 C.ar      14 UNK        -0.0881 
     11 C11       -49.9880  -29.8333    9.9117 C.ar      14 UNK        -0.0643 
     12 C12       -50.8719  -29.9953   10.9824 C.ar      14 UNK        -0.0930 
     13 C13       -52.2093  -29.5981   10.8664 C.ar      14 UNK        -0.0827 
     14 C14       -52.6545  -29.0247    9.6690 C.ar      14 UNK        -0.1249 
     15 C15       -53.1542  -29.7523   12.0522 C.3       14 UNK         0.0141 
     16 S16       -54.6627  -30.6853   11.6463 S.3       14 UNK        -0.2313 
     17 C17       -55.5681  -30.5908   13.2305 C.3       14 UNK        -0.0915 
     18 CA        -56.6624  -29.4882   13.2222 C.3       13 UNK         0.0968 
     19 C         -57.6548  -29.6214   14.4150 C.2       13 UNK         0.5732 
     20 N         -58.0021  -28.5550   15.1285 N.am      13 UNK        -0.7310 
     21 O         -58.1499  -30.7136   14.6844 O.2       13 UNK        -0.5035 
     22 N         -56.0639  -28.1496   13.1360 N.am      13 UNK        -0.4233 
     23 C         -56.3776  -27.2155   12.2309 C.2       13 UNK         0.4989 
     24 O         -57.1697  -27.3991   11.3049 O.2       13 UNK        -0.4996 
     25 CA        -55.6832  -25.8442   12.3710 C.3       12 UNK         0.0216 
     26 CB        -56.5560  -24.6830   11.8500 C.3       12 UNK        -0.1964 
     27 N         -55.1891  -25.5497   13.7226 N.am      12 UNK        -0.4276 
     28 C         -55.8963  -25.4698   14.8577 C.2       12 UNK         0.5020 
     29 O         -57.1122  -25.6657   14.9217 O.2       12 UNK        -0.5489 
     30 CA        -55.0874  -25.1762   16.1386 C.3       11 UNK         0.0294 
     31 CB        -55.9468  -25.2751   17.4163 C.3       11 UNK        -0.2019 
     32 N         -53.8828  -26.0079   16.2804 N.am      11 UNK        -0.4493 
     33 C         -53.8087  -27.3477   16.2399 C.2       11 UNK         0.4932 
     34 O         -54.7700  -28.0733   15.9820 O.2       11 UNK        -0.5029 
     35 CA        -52.4427  -28.0039   16.5226 C.3       10 UNK         0.0280 
     36 CB        -52.1833  -29.1855   15.5761 C.3       10 UNK        -0.1976 
     37 N         -51.3125  -27.0757   16.4299 N.am      10 UNK        -0.4242 
     38 C         -50.7989  -26.3817   17.4540 C.2       10 UNK         0.5072 
     39 O         -51.2513  -26.4125   18.5989 O.2       10 UNK        -0.5224 
     40 CA        -49.5814  -25.4904   17.1494 C.3       9 UNK         0.0343 
     41 CB        -48.2927  -26.3276   17.1164 C.3       9 UNK        -0.2003 
     42 N         -49.7088  -24.7375   15.8989 N.am      9 UNK        -0.4272 
     43 C         -50.6335  -23.7929   15.6699 C.2       9 UNK         0.4988 
     44 O         -51.4760  -23.4404   16.4963 O.2       9 UNK        -0.5108 
     45 CA        -50.6465  -23.1609   14.2674 C.3       8 UNK         0.0248 
     46 CB        -49.5194  -22.1268   14.1152 C.3       8 UNK        -0.2001 
     47 N         -50.5511  -24.1599   13.2016 N.am      8 UNK        -0.4140 
     48 C         -51.4540  -25.1273   12.9907 C.2       8 UNK         0.5028 
     49 O         -52.4960  -25.2436   13.6318 O.2       8 UNK        -0.5428 
     50 CA        -51.1240  -26.1708   11.9181 C.3       7 UNK         0.0264 
     51 CB        -51.4377  -25.6361   10.5160 C.3       7 UNK        -0.1988 
     52 N         -49.7331  -26.6169   11.9891 N.am      7 UNK        -0.4454 
     53 C         -49.2183  -27.3126   13.0132 C.2       7 UNK         0.5027 
     54 O         -49.8717  -27.6705   13.9921 O.2       7 UNK        -0.5083 
     55 CA        -47.7076  -27.6090   12.9760 C.3       6 UNK         0.0844 
     56 C56       -47.3830  -28.9441   12.2624 C.3       14 UNK        -0.0967 
     57 S57       -47.4439  -28.8661   10.4365 S.3       14 UNK        -0.2604 
     58 C58       -48.5341  -30.2654   10.0239 C.3       14 UNK         0.0134 
     59 N         -46.9372  -26.4786   12.4534 N.am      6 UNK        -0.4116 
     60 C         -46.8307  -25.2900   13.0617 C.2       5 UNK         0.5034 
     61 O         -47.3292  -25.0293   14.1574 O.2       5 UNK        -0.5045 
     62 CA        -46.0808  -24.1941   12.2914 C.3       5 UNK         0.0224 
     63 CB        -44.5605  -24.3752   12.4241 C.3       5 UNK        -0.1978 
     64 N         -46.4460  -24.1276   10.8725 N.am      5 UNK        -0.4737 
     65 C         -47.6641  -23.8417   10.3996 C.2       4 UNK         0.5027 
     66 O         -48.6431  -23.6778   11.1258 O.2       4 UNK        -0.5211 
     67 CA        -47.8333  -23.6932    8.8749 C.3       4 UNK         0.0297 
     68 CB        -47.3702  -22.2982    8.4157 C.3       4 UNK        -0.1993 
     69 N         -47.2296  -24.7427    8.0389 N.am      4 UNK        -0.4486 
     70 C         -45.9417  -25.0994    7.9106 C.2       3 UNK         0.4961 
     71 O         -45.0171  -24.6315    8.5758 O.2       3 UNK        -0.5105 
     72 CA        -45.6281  -26.1492    6.8299 C.3       3 UNK         0.0299 
     73 CB        -45.8955  -27.5682    7.3567 C.3       3 UNK        -0.1972 
     74 N         -46.3771  -25.9438    5.5869 N.am      3 UNK        -0.4305 
     75 C         -46.2755  -24.8719    4.7847 C.2       2 UNK         0.5006 
     76 O         -45.5022  -23.9352    4.9877 O.2       2 UNK        -0.5106 
     77 CA        -47.1739  -24.8355    3.5328 C.3       2 UNK         0.0296 
     78 CB        -46.3508  -25.1468    2.2717 C.3       2 UNK        -0.2002 
     79 N         -48.3142  -25.7546    3.5939 N.am      2 UNK        -0.4032 
     80 C         -49.3855  -25.6143    4.3861 C.2       1 UNK         0.5000 
     81 O         -49.5341  -24.6597    5.1514 O.2       1 UNK        -0.5238 
     82 H82       -48.8490  -30.9513    3.8528 H         1 UNK         0.0889 
     83 H83       -48.9356  -30.2987    5.4895 H         1 UNK         0.0889 
     84 H84       -47.4569  -30.1135    4.5436 H         1 UNK         0.0889 
     85 H85       -50.0563  -28.3640    5.6132 H         1 UNK         0.3028 
     86 H86       -50.7419  -26.8085    3.2796 H         1 UNK         0.0864 
     87 H87       -52.5093  -27.1585    4.8253 H         1 UNK         0.0720 
     88 H88       -52.1019  -25.4786    4.9447 H         1 UNK         0.0720 
     89 H89       -52.0265  -28.9711    6.4628 H         1 UNK         0.0814 
     90 H90       -53.3511  -28.1663    7.2684 H         1 UNK         0.0814 
     91 H91       -49.7687  -29.1581    7.8877 H         1 UNK         0.1469 
     92 H92       -50.5143  -30.4232   11.9088 H         1 UNK         0.1381 
     93 H93       -53.6838  -28.7046    9.5809 H         1 UNK         0.1206 
     94 H94       -53.4242  -28.7633   12.4219 H         1 UNK         0.0813 
     95 H95       -52.6520  -30.2747   12.8664 H         1 UNK         0.0813 
     96 H96       -56.0133  -31.5739   13.3926 H         1 UNK         0.0638 
     97 H97       -54.8701  -30.4363   14.0549 H         1 UNK         0.0638 
     98 H98       -57.2821  -29.6640   12.3415 H         1 UNK         0.0568 
     99 H99       -57.6193  -27.6370   14.9297 H         1 UNK         0.3450 
    100 H100      -58.6515  -28.6687   15.8895 H         1 UNK         0.3450 
    101 H101      -55.4636  -27.8999   13.9127 H         1 UNK         0.2987 
    102 H102      -54.7963  -25.8981   11.7380 H         1 UNK         0.0766 
    103 H103      -56.0361  -23.7286   11.9331 H         1 UNK         0.0798 
    104 H104      -57.4932  -24.6041   12.4021 H         1 UNK         0.0798 
    105 H105      -56.8085  -24.8206   10.7979 H         1 UNK         0.0798 
    106 H106      -54.1751  -25.4132   13.7874 H         1 UNK         0.3198 
    107 H107      -54.7403  -24.1455   16.0494 H         1 UNK         0.0843 
    108 H108      -56.3451  -26.2809   17.5562 H         1 UNK         0.0831 
    109 H109      -56.7959  -24.5919   17.3715 H         1 UNK         0.0831 
    110 H110      -55.3699  -25.0160   18.3040 H         1 UNK         0.0831 
    111 H111      -53.0202  -25.5009   16.4301 H         1 UNK         0.3133 
    112 H112      -52.4953  -28.4049   17.5367 H         1 UNK         0.0566 
    113 H113      -51.2325  -29.6710   15.7964 H         1 UNK         0.0814 
    114 H114      -52.9613  -29.9454   15.6573 H         1 UNK         0.0814 
    115 H115      -52.1526  -28.8465   14.5428 H         1 UNK         0.0814 
    116 H116      -50.8524  -27.0248   15.5237 H         1 UNK         0.3091 
    117 H117      -49.4924  -24.7655   17.9612 H         1 UNK         0.0702 
    118 H118      -47.4137  -25.6965   16.9834 H         1 UNK         0.0785 
    119 H119      -48.3056  -27.0564   16.3054 H         1 UNK         0.0785 
    120 H120      -48.1595  -26.8776   18.0489 H         1 UNK         0.0785 
    121 H121      -49.0230  -24.9346   15.1752 H         1 UNK         0.2998 
    122 H122      -51.6002  -22.6431   14.1463 H         1 UNK         0.0697 
    123 H123      -48.5337  -22.5840   14.2037 H         1 UNK         0.0825 
    124 H124      -49.5919  -21.3548   14.8824 H         1 UNK         0.0825 
    125 H125      -49.5683  -21.6285   13.1468 H         1 UNK         0.0825 
    126 H126      -49.7498  -24.0975   12.5766 H         1 UNK         0.3029 
    127 H127      -51.7568  -27.0407   12.0979 H         1 UNK         0.0897 
    128 H128      -50.9075  -24.7101   10.2954 H         1 UNK         0.0792 
    129 H129      -52.5040  -25.4375   10.4034 H         1 UNK         0.0792 
    130 H130      -51.1609  -26.3662    9.7593 H         1 UNK         0.0792 
    131 H131      -49.1238  -26.3449   11.2323 H         1 UNK         0.3086 
    132 H132      -47.4031  -27.7341   14.0176 H         1 UNK         0.0583 
    133 H133      -46.3732  -29.2544   12.5354 H         1 UNK         0.1020 
    134 H134      -48.0332  -29.7389   12.6328 H         1 UNK         0.1020 
    135 H135      -48.2089  -30.6838    9.0701 H         1 UNK         0.0694 
    136 H136      -48.4206  -31.0687   10.7532 H         1 UNK         0.0694 
    137 H137      -46.5130  -26.6045   11.5459 H         1 UNK         0.2989 
    138 H138      -46.3518  -23.2382   12.7452 H         1 UNK         0.1055 
    139 H139      -44.2619  -24.4198   13.4725 H         1 UNK         0.0806 
    140 H140      -44.0224  -23.5424   11.9707 H         1 UNK         0.0806 
    141 H141      -44.2177  -25.2937   11.9461 H         1 UNK         0.0806 
    142 H142      -45.7063  -24.2619   10.1839 H         1 UNK         0.3061 
    143 H143      -48.9057  -23.7563    8.6810 H         1 UNK         0.0734 
    144 H144      -46.2979  -22.1580    8.5567 H         1 UNK         0.0832 
    145 H145      -47.5923  -22.1360    7.3608 H         1 UNK         0.0832 
    146 H146      -47.8774  -21.5133    8.9786 H         1 UNK         0.0832 
    147 H147      -47.8865  -25.2126    7.4308 H         1 UNK         0.3156 
    148 H148      -44.5653  -26.0697    6.5915 H         1 UNK         0.0589 
    149 H149      -46.9523  -27.7298    7.5731 H         1 UNK         0.0808 
    150 H150      -45.5806  -28.3255    6.6386 H         1 UNK         0.0808 
    151 H151      -45.3431  -27.7518    8.2795 H         1 UNK         0.0808 
    152 H152      -47.0235  -26.6702    5.3201 H         1 UNK         0.3098 
    153 H153      -47.5638  -23.8192    3.4448 H         1 UNK         0.0720 
    154 H154      -46.9534  -25.0437    1.3691 H         1 UNK         0.0791 
    155 H155      -45.9480  -26.1604    2.2929 H         1 UNK         0.0791 
    156 H156      -45.5070  -24.4619    2.1755 H         1 UNK         0.0791 
    157 H157      -48.2660  -26.5963    3.0249 H         1 UNK         0.3028 
@<TRIPOS>BOND
     1    1    2 1    
     2    1   82 1    
     3    1   83 1    
     4    1   84 1    
     5    2    3 2    
     6    2    4 am   BACKBONE|DICT|INTERRES
     7    4    5 1    
     8    4   85 1    
     9    5    6 1    
    10    5   80 1    
    11    5   86 1    
    12    6    7 1    
    13    6   87 1    
    14    6   88 1    
    15    7    8 1    
    16    8    9 1    
    17    8   89 1    
    18    8   90 1    
    19    9   10 ar   
    20    9   14 ar   
    21   10   11 ar   
    22   10   91 1    
    23   11   12 ar   
    24   11   58 1    
    25   12   13 ar   
    26   12   92 1    
    27   13   14 ar   
    28   13   15 1    
    29   14   93 1    
    30   15   16 1    
    31   15   94 1    
    32   15   95 1    
    33   16   17 1    
    34   17   18 1    
    35   17   96 1    
    36   17   97 1    
    37   18   19 1    
    38   18   22 1    
    39   18   98 1    
    40   19   20 am   BACKBONE|DICT|INTERRES
    41   19   21 2    
    42   20   99 1    
    43   20  100 1    
    44   22   23 am   BACKBONE|DICT|INTERRES
    45   22  101 1    
    46   23   24 2    
    47   23   25 1    
    48   25   26 1    
    49   25   27 1    
    50   25  102 1    
    51   26  103 1    
    52   26  104 1    
    53   26  105 1    
    54   27   28 am   BACKBONE|DICT|INTERRES
    55   27  106 1    
    56   28   29 2    
    57   28   30 1    
    58   30   31 1    
    59   30   32 1    
    60   30  107 1    
    61   31  108 1    
    62   31  109 1    
    63   31  110 1    
    64   32   33 am   BACKBONE|DICT|INTERRES
    65   32  111 1    
    66   33   34 2    
    67   33   35 1    
    68   35   36 1    
    69   35   37 1    
    70   35  112 1    
    71   36  113 1    
    72   36  114 1    
    73   36  115 1    
    74   37   38 am   BACKBONE|DICT|INTERRES
    75   37  116 1    
    76   38   39 2    
    77   38   40 1    
    78   40   41 1    
    79   40   42 1    
    80   40  117 1    
    81   41  118 1    
    82   41  119 1    
    83   41  120 1    
    84   42   43 am   BACKBONE|DICT|INTERRES
    85   42  121 1    
    86   43   44 2    
    87   43   45 1    
    88   45   46 1    
    89   45   47 1    
    90   45  122 1    
    91   46  123 1    
    92   46  124 1    
    93   46  125 1    
    94   47   48 am   BACKBONE|DICT|INTERRES
    95   47  126 1    
    96   48   49 2    
    97   48   50 1    
    98   50   51 1    
    99   50   52 1    
   100   50  127 1    
   101   51  128 1    
   102   51  129 1    
   103   51  130 1    
   104   52   53 am   BACKBONE|DICT|INTERRES
   105   52  131 1    
   106   53   54 2    
   107   53   55 1    
   108   55   56 1    
   109   55   59 1    
   110   55  132 1    
   111   56   57 1    
   112   56  133 1    
   113   56  134 1    
   114   57   58 1    
   115   58  135 1    
   116   58  136 1    
   117   59   60 am   BACKBONE|DICT|INTERRES
   118   59  137 1    
   119   60   61 2    
   120   60   62 1    
   121   62   63 1    
   122   62   64 1    
   123   62  138 1    
   124   63  139 1    
   125   63  140 1    
   126   63  141 1    
   127   64   65 am   BACKBONE|DICT|INTERRES
   128   64  142 1    
   129   65   66 2    
   130   65   67 1    
   131   67   68 1    
   132   67   69 1    
   133   67  143 1    
   134   68  144 1    
   135   68  145 1    
   136   68  146 1    
   137   69   70 am   BACKBONE|DICT|INTERRES
   138   69  147 1    
   139   70   71 2    
   140   70   72 1    
   141   72   73 1    
   142   72   74 1    
   143   72  148 1    
   144   73  149 1    
   145   73  150 1    
   146   73  151 1    
   147   74   75 am   BACKBONE|DICT|INTERRES
   148   74  152 1    
   149   75   76 2    
   150   75   77 1    
   151   77   78 1    
   152   77   79 1    
   153   77  153 1    
   154   78  154 1    
   155   78  155 1    
   156   78  156 1    
   157   79   80 am   BACKBONE|DICT|INTERRES
   158   79  157 1    
   159   80   81 2    
@<TRIPOS>SUBSTRUCTURE
     1 UNK         1 GROUP             0       ****    0 ROOT    
