@<TRIPOS>MOLECULE
3R207
157   159    1
SMALL
USER_CHARGES


@<TRIPOS>ATOM
      1 CA        -49.6082  -25.8928    4.8800 C.3       0 UNK        -0.1975 
      2 C         -50.1456  -26.7333    6.0279 C.2       0 UNK         0.4852 
      3 O         -50.2330  -26.2492    7.1547 O.2       0 UNK        -0.5216 
      4 N         -50.4996  -27.9956    5.7623 N.am      1 UNK        -0.4461 
      5 CA        -51.0227  -28.9344    6.7592 C.3       1 UNK         0.0864 
      6 C6        -51.8765  -30.0580    6.1184 C.3       14 UNK        -0.0898 
      7 S7        -53.1986  -29.4307    5.0278 S.3       14 UNK        -0.2598 
      8 C8        -54.5663  -29.1407    6.1984 C.3       14 UNK         0.0286 
      9 C9        -54.4763  -27.8034    6.9300 C.ar      14 UNK        -0.0844 
     10 C10       -54.2707  -26.6107    6.2248 C.ar      14 UNK        -0.0881 
     11 C11       -54.2786  -25.3778    6.8864 C.ar      14 UNK        -0.0643 
     12 C12       -54.5013  -25.3438    8.2651 C.ar      14 UNK        -0.0930 
     13 C13       -54.6886  -26.5249    8.9854 C.ar      14 UNK        -0.0827 
     14 C14       -54.6751  -27.7516    8.3136 C.ar      14 UNK        -0.1249 
     15 C15       -54.9410  -26.4623   10.4847 C.3       14 UNK         0.0141 
     16 S16       -53.4213  -26.1322   11.4340 S.3       14 UNK        -0.2313 
     17 C17       -52.3803  -27.5792   11.0459 C.3       14 UNK        -0.0915 
     18 CA        -52.9626  -28.9246   11.5524 C.3       13 UNK         0.0968 
     19 C         -52.0930  -30.1276   11.0882 C.2       13 UNK         0.5732 
     20 N         -51.4812  -30.9049   11.9754 N.am      13 UNK        -0.7310 
     21 O         -51.9929  -30.3742    9.8902 O.2       13 UNK        -0.5035 
     22 N         -53.2524  -28.9004   12.9937 N.am      13 UNK        -0.4233 
     23 C         -54.1199  -29.7309   13.5891 C.2       13 UNK         0.4989 
     24 O         -54.8340  -30.5236   12.9715 O.2       13 UNK        -0.4996 
     25 CA        -54.2017  -29.6753   15.1277 C.3       12 UNK         0.0216 
     26 CB        -54.7852  -30.9658   15.7415 C.3       12 UNK        -0.1964 
     27 N         -52.9282  -29.3354   15.7730 N.am      12 UNK        -0.4276 
     28 C         -51.7521  -29.9749   15.6544 C.2       12 UNK         0.5020 
     29 O         -51.5904  -30.9752   14.9536 O.2       12 UNK        -0.5489 
     30 CA        -50.5382  -29.3863   16.3991 C.3       11 UNK         0.0294 
     31 CB        -49.3487  -29.2047   15.4385 C.3       11 UNK        -0.2019 
     32 N         -50.8511  -28.0946   17.0151 N.am      11 UNK        -0.4493 
     33 C         -51.2095  -27.9163   18.2950 C.2       11 UNK         0.4932 
     34 O         -51.2247  -28.8182   19.1326 O.2       11 UNK        -0.5029 
     35 CA        -51.6532  -26.5001   18.7140 C.3       10 UNK         0.0280 
     36 CB        -50.4925  -25.7552   19.3927 C.3       10 UNK        -0.1976 
     37 N         -52.1633  -25.6875   17.6047 N.am      10 UNK        -0.4242 
     38 C         -53.2685  -25.9545   16.8922 C.2       10 UNK         0.5072 
     39 O         -54.0261  -26.8934   17.1347 O.2       10 UNK        -0.5224 
     40 CA        -53.5254  -25.0775   15.6533 C.3       9 UNK         0.0343 
     41 CB        -54.3977  -23.8656   16.0132 C.3       9 UNK        -0.2003 
     42 N         -52.2885  -24.6178   15.0145 N.am      9 UNK        -0.4272 
     43 C         -51.3563  -25.4142   14.4765 C.2       9 UNK         0.4988 
     44 O         -51.4670  -26.6426   14.4286 O.2       9 UNK        -0.5108 
     45 CA        -50.0720  -24.7281   13.9686 C.3       8 UNK         0.0248 
     46 CB        -49.0995  -25.7241   13.3205 C.3       8 UNK        -0.2001 
     47 N         -50.3206  -23.6338   13.0248 N.am      8 UNK        -0.4140 
     48 C         -50.7662  -22.4095   13.3476 C.2       8 UNK         0.5028 
     49 O         -51.0907  -22.0918   14.4935 O.2       8 UNK        -0.5428 
     50 CA        -50.8612  -21.3507   12.2319 C.3       7 UNK         0.0264 
     51 CB        -49.7045  -20.3448   12.3515 C.3       7 UNK        -0.1988 
     52 N         -50.8499  -21.9224   10.8858 N.am      7 UNK        -0.4454 
     53 C         -51.8736  -22.5806   10.3250 C.2       7 UNK         0.5027 
     54 O         -52.9867  -22.6607   10.8451 O.2       7 UNK        -0.5083 
     55 CA        -51.6313  -23.2580    8.9563 C.3       6 UNK         0.0844 
     56 C56       -52.4589  -22.5464    7.8549 C.3       14 UNK        -0.0967 
     57 S57       -52.4047  -23.4148    6.2475 S.3       14 UNK        -0.2604 
     58 C58       -54.0945  -24.0831    6.1051 C.3       14 UNK         0.0134 
     59 N         -50.2188  -23.3720    8.5673 N.am      6 UNK        -0.4116 
     60 C         -49.2533  -24.0371    9.2169 C.2       5 UNK         0.5034 
     61 O         -49.4087  -24.5596   10.3229 O.2       5 UNK        -0.5045 
     62 CA        -47.9034  -24.1360    8.4792 C.3       5 UNK         0.0224 
     63 CB        -47.4545  -22.7932    7.8573 C.3       5 UNK        -0.1978 
     64 N         -46.8304  -24.7270    9.2870 N.am      5 UNK        -0.4737 
     65 C         -46.2097  -24.2058   10.3569 C.2       4 UNK         0.5027 
     66 O         -46.4799  -23.1024   10.8333 O.2       4 UNK        -0.5211 
     67 CA        -45.0754  -25.0390   10.9970 C.3       4 UNK         0.0297 
     68 CB        -45.2096  -25.1247   12.5282 C.3       4 UNK        -0.1993 
     69 N         -44.9825  -26.3989   10.4583 N.am      4 UNK        -0.4486 
     70 C         -44.2776  -26.7690    9.3801 C.2       3 UNK         0.4961 
     71 O         -43.5357  -26.0148    8.7512 O.2       3 UNK        -0.5105 
     72 CA        -44.4633  -28.2239    8.9024 C.3       3 UNK         0.0299 
     73 CB        -43.3562  -29.1234    9.4751 C.3       3 UNK        -0.1972 
     74 N         -45.7769  -28.7873    9.2456 N.am      3 UNK        -0.4305 
     75 C         -46.9443  -28.3320    8.7690 C.2       2 UNK         0.5006 
     76 O         -47.0330  -27.4179    7.9463 O.2       2 UNK        -0.5106 
     77 CA        -48.2117  -28.9386    9.3863 C.3       2 UNK         0.0296 
     78 CB        -48.4644  -28.3168   10.7690 C.3       2 UNK        -0.2002 
     79 N         -49.3691  -28.6628    8.5389 N.am      2 UNK        -0.4032 
     80 C         -49.8607  -29.4902    7.6107 C.2       1 UNK         0.5000 
     81 O         -49.4101  -30.6175    7.3887 O.2       1 UNK        -0.5238 
     82 H82       -49.5985  -26.4449    3.9406 H         1 UNK         0.0889 
     83 H83       -48.5900  -25.5717    5.0975 H         1 UNK         0.0889 
     84 H84       -50.2253  -25.0051    4.7455 H         1 UNK         0.0889 
     85 H85       -50.4063  -28.3602    4.8253 H         1 UNK         0.3028 
     86 H86       -51.6820  -28.3864    7.4370 H         1 UNK         0.0864 
     87 H87       -52.3175  -30.6877    6.8934 H         1 UNK         0.0720 
     88 H88       -51.2506  -30.7169    5.5137 H         1 UNK         0.0720 
     89 H89       -55.5030  -29.1565    5.6398 H         1 UNK         0.0814 
     90 H90       -54.6212  -29.9720    6.9029 H         1 UNK         0.0814 
     91 H91       -54.1236  -26.6421    5.1540 H         1 UNK         0.1469 
     92 H92       -54.5292  -24.3978    8.7865 H         1 UNK         0.1381 
     93 H93       -54.8439  -28.6661    8.8649 H         1 UNK         0.1206 
     94 H94       -55.4129  -27.3778   10.8420 H         1 UNK         0.0813 
     95 H95       -55.6545  -25.6638   10.6932 H         1 UNK         0.0813 
     96 H96       -52.2186  -27.6029    9.9666 H         1 UNK         0.0638 
     97 H97       -51.4013  -27.4048   11.4922 H         1 UNK         0.0638 
     98 H98       -53.9131  -29.0723   11.0405 H         1 UNK         0.0568 
     99 H99       -51.5896  -30.7624   12.9743 H         1 UNK         0.3450 
    100 H100      -50.9365  -31.6831   11.6423 H         1 UNK         0.3450 
    101 H101      -52.6975  -28.2625   13.5524 H         1 UNK         0.2987 
    102 H102      -54.8878  -28.8597   15.3602 H         1 UNK         0.0766 
    103 H103      -54.8532  -30.8926   16.8269 H         1 UNK         0.0798 
    104 H104      -55.7918  -31.1591   15.3687 H         1 UNK         0.0798 
    105 H105      -54.1756  -31.8377   15.5013 H         1 UNK         0.0798 
    106 H106      -52.9642  -28.5106   16.3618 H         1 UNK         0.3198 
    107 H107      -50.2478  -30.1062   17.1671 H         1 UNK         0.0843 
    108 H108      -49.0031  -30.1678   15.0606 H         1 UNK         0.0831 
    109 H109      -48.5018  -28.7303   15.9342 H         1 UNK         0.0831 
    110 H110      -49.6180  -28.5993   14.5728 H         1 UNK         0.0831 
    111 H111      -50.9076  -27.3123   16.3735 H         1 UNK         0.3133 
    112 H112      -52.4600  -26.6120   19.4414 H         1 UNK         0.0566 
    113 H113      -49.6587  -25.5948   18.7079 H         1 UNK         0.0814 
    114 H114      -50.1102  -26.3214   20.2434 H         1 UNK         0.0814 
    115 H115      -50.8101  -24.7833   19.7709 H         1 UNK         0.0814 
    116 H116      -51.6073  -24.8896   17.3326 H         1 UNK         0.3091 
    117 H117      -54.0651  -25.6866   14.9247 H         1 UNK         0.0702 
    118 H118      -55.3355  -24.1821   16.4722 H         1 UNK         0.0785 
    119 H119      -54.6519  -23.2847   15.1262 H         1 UNK         0.0785 
    120 H120      -53.8961  -23.2005   16.7174 H         1 UNK         0.0785 
    121 H121      -52.1049  -23.6171   15.0047 H         1 UNK         0.2998 
    122 H122      -49.5709  -24.3068   14.8424 H         1 UNK         0.0697 
    123 H123      -49.5877  -26.2857   12.5258 H         1 UNK         0.0825 
    124 H124      -48.7204  -26.4396   14.0499 H         1 UNK         0.0825 
    125 H125      -48.2443  -25.2102   12.8851 H         1 UNK         0.0825 
    126 H126      -50.0965  -23.8325   12.0534 H         1 UNK         0.3029 
    127 H127      -51.8014  -20.8127   12.3725 H         1 UNK         0.0897 
    128 H128      -49.7940  -19.5463   11.6146 H         1 UNK         0.0792 
    129 H129      -49.6958  -19.8747   13.3360 H         1 UNK         0.0792 
    130 H130      -48.7352  -20.8259   12.2115 H         1 UNK         0.0792 
    131 H131      -49.9687  -21.9071   10.3930 H         1 UNK         0.3086 
    132 H132      -52.0009  -24.2804    9.0570 H         1 UNK         0.0583 
    133 H133      -53.4990  -22.4264    8.1621 H         1 UNK         0.1020 
    134 H134      -52.0856  -21.5320    7.7009 H         1 UNK         0.1020 
    135 H135      -54.8219  -23.3391    6.4326 H         1 UNK         0.0694 
    136 H136      -54.3032  -24.2563    5.0483 H         1 UNK         0.0694 
    137 H137      -50.0051  -23.0100    7.6503 H         1 UNK         0.2989 
    138 H138      -48.0612  -24.8396    7.6610 H         1 UNK         0.1055 
    139 H139      -46.4636  -22.8779    7.4109 H         1 UNK         0.0806 
    140 H140      -47.4176  -21.9933    8.5976 H         1 UNK         0.0806 
    141 H141      -48.1288  -22.4725    7.0629 H         1 UNK         0.0806 
    142 H142      -46.5627  -25.6592    8.9924 H         1 UNK         0.3061 
    143 H143      -44.1479  -24.5052   10.7790 H         1 UNK         0.0734 
    144 H144      -45.3506  -24.1395   12.9748 H         1 UNK         0.0832 
    145 H145      -46.0514  -25.7469   12.8280 H         1 UNK         0.0832 
    146 H146      -44.3112  -25.5508   12.9748 H         1 UNK         0.0832 
    147 H147      -45.5586  -27.0965   10.9052 H         1 UNK         0.3156 
    148 H148      -44.3746  -28.2247    7.8139 H         1 UNK         0.0589 
    149 H149      -43.4024  -29.1806   10.5634 H         1 UNK         0.0808 
    150 H150      -43.4241  -30.1376    9.0810 H         1 UNK         0.0808 
    151 H151      -42.3688  -28.7416    9.2112 H         1 UNK         0.0808 
    152 H152      -45.7847  -29.5426    9.9169 H         1 UNK         0.3098 
    153 H153      -48.0751  -30.0162    9.4989 H         1 UNK         0.0720 
    154 H154      -49.3657  -28.7225   11.2271 H         1 UNK         0.0791 
    155 H155      -47.6416  -28.5172   11.4560 H         1 UNK         0.0791 
    156 H156      -48.5784  -27.2344   10.6978 H         1 UNK         0.0791 
    157 H157      -49.6940  -27.7011    8.5135 H         1 UNK         0.3028 
@<TRIPOS>BOND
     1    1    2 1    
     2    1   82 1    
     3    1   83 1    
     4    1   84 1    
     5    2    3 2    
     6    2    4 am   BACKBONE|DICT|INTERRES
     7    4    5 1    
     8    4   85 1    
     9    5    6 1    
    10    5   80 1    
    11    5   86 1    
    12    6    7 1    
    13    6   87 1    
    14    6   88 1    
    15    7    8 1    
    16    8    9 1    
    17    8   89 1    
    18    8   90 1    
    19    9   10 ar   
    20    9   14 ar   
    21   10   11 ar   
    22   10   91 1    
    23   11   12 ar   
    24   11   58 1    
    25   12   13 ar   
    26   12   92 1    
    27   13   14 ar   
    28   13   15 1    
    29   14   93 1    
    30   15   16 1    
    31   15   94 1    
    32   15   95 1    
    33   16   17 1    
    34   17   18 1    
    35   17   96 1    
    36   17   97 1    
    37   18   19 1    
    38   18   22 1    
    39   18   98 1    
    40   19   20 am   BACKBONE|DICT|INTERRES
    41   19   21 2    
    42   20   99 1    
    43   20  100 1    
    44   22   23 am   BACKBONE|DICT|INTERRES
    45   22  101 1    
    46   23   24 2    
    47   23   25 1    
    48   25   26 1    
    49   25   27 1    
    50   25  102 1    
    51   26  103 1    
    52   26  104 1    
    53   26  105 1    
    54   27   28 am   BACKBONE|DICT|INTERRES
    55   27  106 1    
    56   28   29 2    
    57   28   30 1    
    58   30   31 1    
    59   30   32 1    
    60   30  107 1    
    61   31  108 1    
    62   31  109 1    
    63   31  110 1    
    64   32   33 am   BACKBONE|DICT|INTERRES
    65   32  111 1    
    66   33   34 2    
    67   33   35 1    
    68   35   36 1    
    69   35   37 1    
    70   35  112 1    
    71   36  113 1    
    72   36  114 1    
    73   36  115 1    
    74   37   38 am   BACKBONE|DICT|INTERRES
    75   37  116 1    
    76   38   39 2    
    77   38   40 1    
    78   40   41 1    
    79   40   42 1    
    80   40  117 1    
    81   41  118 1    
    82   41  119 1    
    83   41  120 1    
    84   42   43 am   BACKBONE|DICT|INTERRES
    85   42  121 1    
    86   43   44 2    
    87   43   45 1    
    88   45   46 1    
    89   45   47 1    
    90   45  122 1    
    91   46  123 1    
    92   46  124 1    
    93   46  125 1    
    94   47   48 am   BACKBONE|DICT|INTERRES
    95   47  126 1    
    96   48   49 2    
    97   48   50 1    
    98   50   51 1    
    99   50   52 1    
   100   50  127 1    
   101   51  128 1    
   102   51  129 1    
   103   51  130 1    
   104   52   53 am   BACKBONE|DICT|INTERRES
   105   52  131 1    
   106   53   54 2    
   107   53   55 1    
   108   55   56 1    
   109   55   59 1    
   110   55  132 1    
   111   56   57 1    
   112   56  133 1    
   113   56  134 1    
   114   57   58 1    
   115   58  135 1    
   116   58  136 1    
   117   59   60 am   BACKBONE|DICT|INTERRES
   118   59  137 1    
   119   60   61 2    
   120   60   62 1    
   121   62   63 1    
   122   62   64 1    
   123   62  138 1    
   124   63  139 1    
   125   63  140 1    
   126   63  141 1    
   127   64   65 am   BACKBONE|DICT|INTERRES
   128   64  142 1    
   129   65   66 2    
   130   65   67 1    
   131   67   68 1    
   132   67   69 1    
   133   67  143 1    
   134   68  144 1    
   135   68  145 1    
   136   68  146 1    
   137   69   70 am   BACKBONE|DICT|INTERRES
   138   69  147 1    
   139   70   71 2    
   140   70   72 1    
   141   72   73 1    
   142   72   74 1    
   143   72  148 1    
   144   73  149 1    
   145   73  150 1    
   146   73  151 1    
   147   74   75 am   BACKBONE|DICT|INTERRES
   148   74  152 1    
   149   75   76 2    
   150   75   77 1    
   151   77   78 1    
   152   77   79 1    
   153   77  153 1    
   154   78  154 1    
   155   78  155 1    
   156   78  156 1    
   157   79   80 am   BACKBONE|DICT|INTERRES
   158   79  157 1    
   159   80   81 2    
@<TRIPOS>SUBSTRUCTURE
     1 UNK         1 GROUP             0       ****    0 ROOT    
