@<TRIPOS>MOLECULE
3R207
157   159    1
SMALL
USER_CHARGES


@<TRIPOS>ATOM
      1 CA        -48.0509  -32.2075    3.6029 C.3       0 UNK        -0.1975 
      2 C         -48.6306  -31.0092    4.3399 C.2       0 UNK         0.4852 
      3 O         -49.7342  -30.5686    4.0173 O.2       0 UNK        -0.5216 
      4 N         -47.8930  -30.4774    5.3245 N.am      1 UNK        -0.4461 
      5 CA        -48.2966  -29.3339    6.1541 C.3       1 UNK         0.0864 
      6 C6        -47.4307  -29.2273    7.4365 C.3       14 UNK        -0.0898 
      7 S7        -47.8246  -30.5430    8.6391 S.3       14 UNK        -0.2598 
      8 C8        -48.6319  -29.6097    9.9853 C.3       14 UNK         0.0286 
      9 C9        -50.1110  -29.3469    9.7233 C.ar      14 UNK        -0.0844 
     10 C10       -50.5056  -28.4335    8.7413 C.ar      14 UNK        -0.0881 
     11 C11       -51.8563  -28.1535    8.5261 C.ar      14 UNK        -0.0643 
     12 C12       -52.8222  -28.7990    9.2979 C.ar      14 UNK        -0.0930 
     13 C13       -52.4451  -29.6743   10.3186 C.ar      14 UNK        -0.0827 
     14 C14       -51.0898  -29.9645   10.5108 C.ar      14 UNK        -0.1249 
     15 C15       -53.5035  -30.2656   11.2385 C.3       14 UNK         0.0141 
     16 S16       -53.8186  -29.1906   12.6792 S.3       14 UNK        -0.2313 
     17 C17       -54.7161  -27.7908   11.9180 C.3       14 UNK        -0.0915 
     18 CA        -55.1006  -26.6780   12.9336 C.3       13 UNK         0.0968 
     19 C         -55.7294  -25.4141   12.2687 C.2       13 UNK         0.5732 
     20 N         -56.4174  -24.5638   13.0239 N.am      13 UNK        -0.7310 
     21 O         -55.6056  -25.1924   11.0665 O.2       13 UNK        -0.5035 
     22 N         -55.8699  -27.1829   14.0821 N.am      13 UNK        -0.4233 
     23 C         -57.1264  -27.6535   14.0544 C.2       13 UNK         0.4989 
     24 O         -57.7980  -27.7557   13.0270 O.2       13 UNK        -0.4996 
     25 CA        -57.7577  -28.0944   15.3917 C.3       12 UNK         0.0216 
     26 CB        -57.9309  -29.6227   15.4230 C.3       12 UNK        -0.1964 
     27 N         -56.9939  -27.6843   16.5725 N.am      12 UNK        -0.4276 
     28 C         -56.8757  -26.4300   17.0312 C.2       12 UNK         0.5020 
     29 O         -57.4887  -25.4684   16.5672 O.2       12 UNK        -0.5489 
     30 CA        -55.8490  -26.2101   18.1601 C.3       11 UNK         0.0294 
     31 CB        -56.5307  -26.2963   19.5350 C.3       11 UNK        -0.2019 
     32 N         -54.7263  -27.1582   18.1064 N.am      11 UNK        -0.4493 
     33 C         -53.8513  -27.2339   17.0941 C.2       11 UNK         0.4932 
     34 O         -53.8515  -26.4655   16.1292 O.2       11 UNK        -0.5029 
     35 CA        -52.8741  -28.4111   17.1200 C.3       10 UNK         0.0280 
     36 CB        -53.5995  -29.7151   16.7261 C.3       10 UNK        -0.1976 
     37 N         -51.7939  -28.1228   16.1823 N.am      10 UNK        -0.4242 
     38 C         -50.6339  -28.7795   16.0894 C.2       10 UNK         0.5072 
     39 O         -50.3371  -29.7552   16.7813 O.2       10 UNK        -0.5224 
     40 CA        -49.6188  -28.2553   15.0586 C.3       9 UNK         0.0343 
     41 CB        -49.8978  -28.8638   13.6744 C.3       9 UNK        -0.2003 
     42 N         -49.5439  -26.7940   14.9366 N.am      9 UNK        -0.4272 
     43 C         -49.2787  -25.9343   15.9320 C.2       9 UNK         0.4988 
     44 O         -49.1701  -26.2670   17.1128 O.2       9 UNK        -0.5108 
     45 CA        -49.0521  -24.4579   15.5681 C.3       8 UNK         0.0248 
     46 CB        -47.5443  -24.1804   15.4416 C.3       8 UNK        -0.2001 
     47 N         -49.7077  -24.0432   14.3224 N.am      8 UNK        -0.4140 
     48 C         -50.6823  -23.1245   14.2460 C.2       8 UNK         0.5028 
     49 O         -51.2274  -22.6293   15.2339 O.2       8 UNK        -0.5428 
     50 CA        -51.1054  -22.6209   12.8508 C.3       7 UNK         0.0264 
     51 CB        -50.6463  -21.1670   12.6464 C.3       7 UNK        -0.1988 
     52 N         -50.5864  -23.4315   11.7471 N.am      7 UNK        -0.4454 
     53 C         -51.1777  -24.5500   11.3003 C.2       7 UNK         0.5027 
     54 O         -52.2239  -24.9904   11.7760 O.2       7 UNK        -0.5083 
     55 CA        -50.4569  -25.3437   10.1831 C.3       6 UNK         0.0844 
     56 C56       -50.9341  -24.9405    8.7618 C.3       14 UNK        -0.0967 
     57 S57       -52.6150  -25.5108    8.3347 S.3       14 UNK        -0.2604 
     58 C58       -52.2755  -27.1017    7.5130 C.3       14 UNK         0.0134 
     59 N         -48.9935  -25.2708   10.2592 N.am      6 UNK        -0.4116 
     60 C         -48.2437  -25.5560   11.3335 C.2       5 UNK         0.5034 
     61 O         -48.6997  -26.0051   12.3822 O.2       5 UNK        -0.5045 
     62 CA        -46.7452  -25.2095   11.2689 C.3       5 UNK         0.0224 
     63 CB        -45.9304  -26.4628   10.9114 C.3       5 UNK        -0.1978 
     64 N         -46.4135  -24.1342   10.3281 N.am      5 UNK        -0.4737 
     65 C         -46.9700  -22.9134   10.2770 C.2       4 UNK         0.5027 
     66 O         -47.7888  -22.5016   11.0995 O.2       4 UNK        -0.5211 
     67 CA        -46.6094  -22.0312    9.0657 C.3       4 UNK         0.0297 
     68 CB        -45.6353  -20.9199    9.4873 C.3       4 UNK        -0.1993 
     69 N         -46.0440  -22.7648    7.9229 N.am      4 UNK        -0.4486 
     70 C         -46.6482  -23.7533    7.2472 C.2       3 UNK         0.4961 
     71 O         -47.7789  -24.1764    7.5062 O.2       3 UNK        -0.5105 
     72 CA        -45.8090  -24.4220    6.1523 C.3       3 UNK         0.0299 
     73 CB        -44.6884  -25.2801    6.7756 C.3       3 UNK        -0.1972 
     74 N         -46.6704  -25.2622    5.3271 N.am      3 UNK        -0.4305 
     75 C         -46.3841  -25.7234    4.1051 C.2       2 UNK         0.5006 
     76 O         -45.3435  -25.4534    3.5017 O.2       2 UNK        -0.5106 
     77 CA        -47.4193  -26.6754    3.4721 C.3       2 UNK         0.0296 
     78 CB        -47.0612  -27.0706    2.0266 C.3       2 UNK        -0.2002 
     79 N         -47.5767  -27.8948    4.2701 N.am      2 UNK        -0.4032 
     80 C         -48.2973  -27.9882    5.3966 C.2       1 UNK         0.5000 
     81 O         -48.9341  -27.0425    5.8643 O.2       1 UNK        -0.5238 
     82 H82       -48.7152  -33.0655    3.7024 H         1 UNK         0.0889 
     83 H83       -47.0721  -32.4906    3.9897 H         1 UNK         0.0889 
     84 H84       -47.9440  -31.9802    2.5426 H         1 UNK         0.0889 
     85 H85       -47.0054  -30.8980    5.5618 H         1 UNK         0.3028 
     86 H86       -49.3333  -29.5060    6.4501 H         1 UNK         0.0864 
     87 H87       -46.3701  -29.2934    7.1871 H         1 UNK         0.0720 
     88 H88       -47.5475  -28.2584    7.9253 H         1 UNK         0.0720 
     89 H89       -48.1140  -28.6653   10.1567 H         1 UNK         0.0814 
     90 H90       -48.5136  -30.1815   10.9069 H         1 UNK         0.0814 
     91 H91       -49.7637  -27.8989    8.1702 H         1 UNK         0.1469 
     92 H92       -53.8674  -28.5674    9.1449 H         1 UNK         0.1381 
     93 H93       -50.7975  -30.6436   11.2998 H         1 UNK         0.1206 
     94 H94       -54.4346  -30.4326   10.6948 H         1 UNK         0.0813 
     95 H95       -53.1786  -31.2442   11.5947 H         1 UNK         0.0813 
     96 H96       -54.0693  -27.3560   11.1563 H         1 UNK         0.0638 
     97 H97       -55.5995  -28.1707   11.4029 H         1 UNK         0.0638 
     98 H98       -54.1641  -26.3140   13.3572 H         1 UNK         0.0568 
     99 H99       -56.8275  -23.7485   12.5975 H         1 UNK         0.3450 
    100 H100      -56.5429  -24.7373   14.0094 H         1 UNK         0.3450 
    101 H101      -55.3924  -27.0972   14.9706 H         1 UNK         0.2987 
    102 H102      -58.7463  -27.6340   15.4500 H         1 UNK         0.0766 
    103 H103      -58.4348  -29.9482   16.3333 H         1 UNK         0.0798 
    104 H104      -56.9717  -30.1391   15.3642 H         1 UNK         0.0798 
    105 H105      -58.5356  -29.9650   14.5818 H         1 UNK         0.0798 
    106 H106      -56.4578  -28.4043   17.0335 H         1 UNK         0.3198 
    107 H107      -55.4426  -25.2032   18.0403 H         1 UNK         0.0843 
    108 H108      -56.9421  -27.2888   19.7232 H         1 UNK         0.0831 
    109 H109      -57.3542  -25.5842   19.6060 H         1 UNK         0.0831 
    110 H110      -55.8336  -26.0621   20.3398 H         1 UNK         0.0831 
    111 H111      -54.6523  -27.8206   18.8664 H         1 UNK         0.3133 
    112 H112      -52.4571  -28.5012   18.1250 H         1 UNK         0.0566 
    113 H113      -52.9245  -30.5707   16.7346 H         1 UNK         0.0814 
    114 H114      -54.4078  -29.9458   17.4206 H         1 UNK         0.0814 
    115 H115      -54.0342  -29.6472   15.7280 H         1 UNK         0.0814 
    116 H116      -51.9596  -27.3134   15.5958 H         1 UNK         0.3091 
    117 H117      -48.6330  -28.5956   15.3818 H         1 UNK         0.0702 
    118 H118      -49.9897  -29.9493   13.7313 H         1 UNK         0.0785 
    119 H119      -49.0907  -28.6452   12.9755 H         1 UNK         0.0785 
    120 H120      -50.8235  -28.4792   13.2440 H         1 UNK         0.0785 
    121 H121      -49.5162  -26.4409   13.9841 H         1 UNK         0.2998 
    122 H122      -49.4263  -23.8678   16.4072 H         1 UNK         0.0697 
    123 H123      -47.0914  -24.7687   14.6431 H         1 UNK         0.0825 
    124 H124      -47.0217  -24.4302   16.3662 H         1 UNK         0.0825 
    125 H125      -47.3502  -23.1277   15.2352 H         1 UNK         0.0825 
    126 H126      -49.3499  -24.4488   13.4654 H         1 UNK         0.3029 
    127 H127      -52.1974  -22.6345   12.8213 H         1 UNK         0.0897 
    128 H128      -50.9794  -20.7764   11.6847 H         1 UNK         0.0792 
    129 H129      -49.5598  -21.0777   12.6869 H         1 UNK         0.0792 
    130 H130      -51.0555  -20.5143   13.4188 H         1 UNK         0.0792 
    131 H131      -49.6953  -23.1412   11.3533 H         1 UNK         0.3086 
    132 H132      -50.7117  -26.3869   10.3631 H         1 UNK         0.0583 
    133 H133      -50.8912  -23.8569    8.6360 H         1 UNK         0.1020 
    134 H134      -50.2517  -25.3404    8.0091 H         1 UNK         0.1020 
    135 H135      -53.1777  -27.4321    6.9962 H         1 UNK         0.0694 
    136 H136      -51.5136  -26.9711    6.7433 H         1 UNK         0.0694 
    137 H137      -48.5256  -24.8943    9.4425 H         1 UNK         0.2989 
    138 H138      -46.4487  -24.8730   12.2640 H         1 UNK         0.1055 
    139 H139      -46.1413  -27.2774   11.6063 H         1 UNK         0.0806 
    140 H140      -44.8589  -26.2685   10.9618 H         1 UNK         0.0806 
    141 H141      -46.1604  -26.8228    9.9077 H         1 UNK         0.0806 
    142 H142      -45.7491  -24.3639    9.6042 H         1 UNK         0.3061 
    143 H143      -47.5364  -21.5641    8.7266 H         1 UNK         0.0734 
    144 H144      -45.4471  -20.2234    8.6701 H         1 UNK         0.0832 
    145 H145      -46.0418  -20.3387   10.3165 H         1 UNK         0.0832 
    146 H146      -44.6766  -21.3249    9.8139 H         1 UNK         0.0832 
    147 H147      -45.1120  -22.4952    7.6403 H         1 UNK         0.3156 
    148 H148      -45.3733  -23.6381    5.5293 H         1 UNK         0.0589 
    149 H149      -45.0941  -26.0786    7.3984 H         1 UNK         0.0808 
    150 H150      -44.0664  -25.7421    6.0089 H         1 UNK         0.0808 
    151 H151      -44.0252  -24.6810    7.4004 H         1 UNK         0.0808 
    152 H152      -47.5586  -25.5154    5.7559 H         1 UNK         0.3098 
    153 H153      -48.3733  -26.1443    3.4425 H         1 UNK         0.0720 
    154 H154      -47.8348  -27.6992    1.5849 H         1 UNK         0.0791 
    155 H155      -46.1174  -27.6151    1.9767 H         1 UNK         0.0791 
    156 H156      -46.9631  -26.1877    1.3934 H         1 UNK         0.0791 
    157 H157      -47.0578  -28.7061    3.9678 H         1 UNK         0.3028 
@<TRIPOS>BOND
     1    1    2 1    
     2    1   82 1    
     3    1   83 1    
     4    1   84 1    
     5    2    3 2    
     6    2    4 am   BACKBONE|DICT|INTERRES
     7    4    5 1    
     8    4   85 1    
     9    5    6 1    
    10    5   80 1    
    11    5   86 1    
    12    6    7 1    
    13    6   87 1    
    14    6   88 1    
    15    7    8 1    
    16    8    9 1    
    17    8   89 1    
    18    8   90 1    
    19    9   10 ar   
    20    9   14 ar   
    21   10   11 ar   
    22   10   91 1    
    23   11   12 ar   
    24   11   58 1    
    25   12   13 ar   
    26   12   92 1    
    27   13   14 ar   
    28   13   15 1    
    29   14   93 1    
    30   15   16 1    
    31   15   94 1    
    32   15   95 1    
    33   16   17 1    
    34   17   18 1    
    35   17   96 1    
    36   17   97 1    
    37   18   19 1    
    38   18   22 1    
    39   18   98 1    
    40   19   20 am   BACKBONE|DICT|INTERRES
    41   19   21 2    
    42   20   99 1    
    43   20  100 1    
    44   22   23 am   BACKBONE|DICT|INTERRES
    45   22  101 1    
    46   23   24 2    
    47   23   25 1    
    48   25   26 1    
    49   25   27 1    
    50   25  102 1    
    51   26  103 1    
    52   26  104 1    
    53   26  105 1    
    54   27   28 am   BACKBONE|DICT|INTERRES
    55   27  106 1    
    56   28   29 2    
    57   28   30 1    
    58   30   31 1    
    59   30   32 1    
    60   30  107 1    
    61   31  108 1    
    62   31  109 1    
    63   31  110 1    
    64   32   33 am   BACKBONE|DICT|INTERRES
    65   32  111 1    
    66   33   34 2    
    67   33   35 1    
    68   35   36 1    
    69   35   37 1    
    70   35  112 1    
    71   36  113 1    
    72   36  114 1    
    73   36  115 1    
    74   37   38 am   BACKBONE|DICT|INTERRES
    75   37  116 1    
    76   38   39 2    
    77   38   40 1    
    78   40   41 1    
    79   40   42 1    
    80   40  117 1    
    81   41  118 1    
    82   41  119 1    
    83   41  120 1    
    84   42   43 am   BACKBONE|DICT|INTERRES
    85   42  121 1    
    86   43   44 2    
    87   43   45 1    
    88   45   46 1    
    89   45   47 1    
    90   45  122 1    
    91   46  123 1    
    92   46  124 1    
    93   46  125 1    
    94   47   48 am   BACKBONE|DICT|INTERRES
    95   47  126 1    
    96   48   49 2    
    97   48   50 1    
    98   50   51 1    
    99   50   52 1    
   100   50  127 1    
   101   51  128 1    
   102   51  129 1    
   103   51  130 1    
   104   52   53 am   BACKBONE|DICT|INTERRES
   105   52  131 1    
   106   53   54 2    
   107   53   55 1    
   108   55   56 1    
   109   55   59 1    
   110   55  132 1    
   111   56   57 1    
   112   56  133 1    
   113   56  134 1    
   114   57   58 1    
   115   58  135 1    
   116   58  136 1    
   117   59   60 am   BACKBONE|DICT|INTERRES
   118   59  137 1    
   119   60   61 2    
   120   60   62 1    
   121   62   63 1    
   122   62   64 1    
   123   62  138 1    
   124   63  139 1    
   125   63  140 1    
   126   63  141 1    
   127   64   65 am   BACKBONE|DICT|INTERRES
   128   64  142 1    
   129   65   66 2    
   130   65   67 1    
   131   67   68 1    
   132   67   69 1    
   133   67  143 1    
   134   68  144 1    
   135   68  145 1    
   136   68  146 1    
   137   69   70 am   BACKBONE|DICT|INTERRES
   138   69  147 1    
   139   70   71 2    
   140   70   72 1    
   141   72   73 1    
   142   72   74 1    
   143   72  148 1    
   144   73  149 1    
   145   73  150 1    
   146   73  151 1    
   147   74   75 am   BACKBONE|DICT|INTERRES
   148   74  152 1    
   149   75   76 2    
   150   75   77 1    
   151   77   78 1    
   152   77   79 1    
   153   77  153 1    
   154   78  154 1    
   155   78  155 1    
   156   78  156 1    
   157   79   80 am   BACKBONE|DICT|INTERRES
   158   79  157 1    
   159   80   81 2    
@<TRIPOS>SUBSTRUCTURE
     1 UNK         1 GROUP             0       ****    0 ROOT    
