@<TRIPOS>MOLECULE
3R207
157   159    1
SMALL
USER_CHARGES


@<TRIPOS>ATOM
      1 CA        -49.4588  -31.5029    8.2455 C.3       0 UNK        -0.1975 
      2 C         -49.8774  -30.5781    7.1121 C.2       0 UNK         0.4852 
      3 O         -49.0397  -30.2145    6.2854 O.2       0 UNK        -0.5216 
      4 N         -51.1634  -30.2029    7.0603 N.am      1 UNK        -0.4461 
      5 CA        -51.7145  -29.2268    6.1118 C.3       1 UNK         0.0864 
      6 C6        -53.2657  -29.2342    6.1572 C.3       14 UNK        -0.0898 
      7 S7        -54.0587  -28.1252    4.9326 S.3       14 UNK        -0.2598 
      8 C8        -55.3302  -27.2387    5.8991 C.3       14 UNK         0.0286 
      9 C9        -54.7875  -26.5591    7.1516 C.ar      14 UNK        -0.0844 
     10 C10       -54.0582  -25.3661    7.0706 C.ar      14 UNK        -0.0881 
     11 C11       -53.5736  -24.7527    8.2336 C.ar      14 UNK        -0.0643 
     12 C12       -53.8205  -25.3415    9.4753 C.ar      14 UNK        -0.0930 
     13 C13       -54.5247  -26.5429    9.5636 C.ar      14 UNK        -0.0827 
     14 C14       -55.0274  -27.1333    8.4033 C.ar      14 UNK        -0.1249 
     15 C15       -54.6982  -27.2215   10.9108 C.3       14 UNK         0.0141 
     16 S16       -53.1087  -27.8625   11.5190 S.3       14 UNK        -0.2313 
     17 C17       -52.8318  -29.2889   10.4151 C.3       14 UNK        -0.0915 
     18 CA        -53.1537  -30.6499   11.0963 C.3       13 UNK         0.0968 
     19 C         -52.9630  -31.8564   10.1297 C.2       13 UNK         0.5732 
     20 N         -52.7549  -33.0662   10.6337 N.am      13 UNK        -0.7310 
     21 O         -53.0071  -31.6994    8.9104 O.2       13 UNK        -0.5035 
     22 N         -52.4998  -30.7897   12.4104 N.am      13 UNK        -0.4233 
     23 C         -51.1823  -30.8630   12.6332 C.2       13 UNK         0.4989 
     24 O         -50.3479  -31.0280   11.7423 O.2       13 UNK        -0.4996 
     25 CA        -50.7162  -30.6909   14.0949 C.3       12 UNK         0.0216 
     26 CB        -49.1983  -30.4484   14.2038 C.3       12 UNK        -0.1964 
     27 N         -51.4130  -29.6075   14.8040 N.am      12 UNK        -0.4276 
     28 C         -52.6224  -29.7100   15.3710 C.2       12 UNK         0.5020 
     29 O         -53.3423  -30.7024   15.2515 O.2       12 UNK        -0.5489 
     30 CA        -53.1114  -28.5219   16.2102 C.3       11 UNK         0.0294 
     31 CB        -52.4576  -28.5421   17.6017 C.3       11 UNK        -0.2019 
     32 N         -52.8420  -27.2338   15.5705 N.am      11 UNK        -0.4493 
     33 C         -53.7239  -26.5748   14.8020 C.2       11 UNK         0.4932 
     34 O         -54.8316  -27.0236   14.5010 O.2       11 UNK        -0.5029 
     35 CA        -53.3127  -25.1655   14.3168 C.3       10 UNK         0.0280 
     36 CB        -54.5125  -24.2789   13.9197 C.3       10 UNK        -0.1976 
     37 N         -52.4483  -24.4714   15.2788 N.am      10 UNK        -0.4242 
     38 C         -52.7383  -24.1761   16.5570 C.2       10 UNK         0.5072 
     39 O         -53.8611  -24.3036   17.0490 O.2       10 UNK        -0.5224 
     40 CA        -51.5861  -23.6800   17.4567 C.3       9 UNK         0.0343 
     41 CB        -51.6716  -24.2846   18.8744 C.3       9 UNK        -0.2003 
     42 N         -50.2354  -23.8779   16.9137 N.am      9 UNK        -0.4272 
     43 C         -49.6348  -25.0195   16.5471 C.2       9 UNK         0.4988 
     44 O         -50.1941  -26.1191   16.5491 O.2       9 UNK        -0.5108 
     45 CA        -48.1732  -24.8859   16.0679 C.3       8 UNK         0.0248 
     46 CB        -47.5536  -26.2447   15.6947 C.3       8 UNK        -0.2001 
     47 N         -48.0387  -23.9688   14.9299 N.am      8 UNK        -0.4140 
     48 C         -48.1450  -22.6324   14.9763 C.2       8 UNK         0.5028 
     49 O         -48.3165  -21.9990   16.0193 O.2       8 UNK        -0.5428 
     50 CA        -48.1034  -21.8754   13.6397 C.3       7 UNK         0.0264 
     51 CB        -46.6585  -21.5174   13.2557 C.3       7 UNK        -0.1988 
     52 N         -48.7326  -22.6300   12.5540 N.am      7 UNK        -0.4454 
     53 C         -50.0565  -22.8008   12.4094 C.2       7 UNK         0.5027 
     54 O         -50.8978  -22.3053   13.1596 O.2       7 UNK        -0.5083 
     55 CA        -50.5120  -23.6891   11.2330 C.3       6 UNK         0.0844 
     56 C56       -50.5851  -22.8446    9.9329 C.3       14 UNK        -0.0967 
     57 S57       -50.9941  -23.8077    8.4367 S.3       14 UNK        -0.2604 
     58 C58       -52.7628  -23.4682    8.1661 C.3       14 UNK         0.0134 
     59 N         -49.6591  -24.8750   11.1029 N.am      6 UNK        -0.4116 
     60 C         -49.5671  -25.8559   12.0162 C.2       5 UNK         0.5034 
     61 O         -50.2213  -25.8911   13.0578 O.2       5 UNK        -0.5045 
     62 CA        -48.5331  -26.9666   11.7543 C.3       5 UNK         0.0224 
     63 CB        -49.1710  -28.0878   10.9267 C.3       5 UNK        -0.1978 
     64 N         -47.3217  -26.5087   11.0748 N.am      5 UNK        -0.4737 
     65 C         -46.5220  -25.5098   11.4721 C.2       4 UNK         0.5027 
     66 O         -46.6446  -24.9300   12.5499 O.2       4 UNK        -0.5211 
     67 CA        -45.4505  -25.0317   10.4705 C.3       4 UNK         0.0297 
     68 CB        -44.0632  -25.5418   10.8898 C.3       4 UNK        -0.1993 
     69 N         -45.7124  -25.4205    9.0753 N.am      4 UNK        -0.4486 
     70 C         -46.8122  -25.1038    8.3749 C.2       3 UNK         0.4961 
     71 O         -47.7107  -24.3849    8.8195 O.2       3 UNK        -0.5105 
     72 CA        -46.9660  -25.7504    6.9890 C.3       3 UNK         0.0299 
     73 CB        -46.5628  -27.2444    6.9946 C.3       3 UNK        -0.1972 
     74 N         -48.3593  -25.6108    6.5718 N.am      3 UNK        -0.4305 
     75 C         -48.8472  -25.8243    5.3474 C.2       2 UNK         0.5006 
     76 O         -48.1573  -26.1216    4.3695 O.2       2 UNK        -0.5106 
     77 CA        -50.3732  -25.7290    5.1974 C.3       2 UNK         0.0296 
     78 CB        -50.7840  -25.0309    3.8891 C.3       2 UNK        -0.2002 
     79 N         -50.9656  -27.0628    5.2378 N.am      2 UNK        -0.4032 
     80 C         -51.1063  -27.8198    6.3362 C.2       1 UNK         0.5000 
     81 O         -50.7898  -27.4540    7.4713 O.2       1 UNK        -0.5238 
     82 H82       -49.1501  -32.4698    7.8495 H         1 UNK         0.0889 
     83 H83       -50.2646  -31.6677    8.9587 H         1 UNK         0.0889 
     84 H84       -48.6191  -31.0711    8.7897 H         1 UNK         0.0889 
     85 H85       -51.8137  -30.5662    7.7499 H         1 UNK         0.3028 
     86 H86       -51.4128  -29.5583    5.1157 H         1 UNK         0.0864 
     87 H87       -53.6302  -30.2440    5.9620 H         1 UNK         0.0720 
     88 H88       -53.6039  -28.9953    7.1628 H         1 UNK         0.0720 
     89 H89       -56.1220  -27.9424    6.1607 H         1 UNK         0.0814 
     90 H90       -55.7967  -26.4892    5.2584 H         1 UNK         0.0814 
     91 H91       -53.8607  -24.9241    6.1037 H         1 UNK         0.1469 
     92 H92       -53.4280  -24.8863   10.3733 H         1 UNK         0.1381 
     93 H93       -55.5773  -28.0621    8.4714 H         1 UNK         0.1206 
     94 H94       -55.4226  -28.0354   10.8568 H         1 UNK         0.0813 
     95 H95       -55.0945  -26.5060   11.6302 H         1 UNK         0.0813 
     96 H96       -53.4365  -29.1633    9.5180 H         1 UNK         0.0638 
     97 H97       -51.7960  -29.2641   10.0751 H         1 UNK         0.0638 
     98 H98       -54.2225  -30.6456   11.3111 H         1 UNK         0.0568 
     99 H99       -52.6335  -33.8466   10.0084 H         1 UNK         0.3450 
    100 H100      -52.7072  -33.2033   11.6305 H         1 UNK         0.3450 
    101 H101      -53.1020  -30.7028   13.2215 H         1 UNK         0.2987 
    102 H102      -50.9336  -31.6330   14.6026 H         1 UNK         0.0766 
    103 H103      -48.8999  -29.5323   13.6940 H         1 UNK         0.0798 
    104 H104      -48.6354  -31.2688   13.7565 H         1 UNK         0.0798 
    105 H105      -48.8809  -30.3726   15.2440 H         1 UNK         0.0798 
    106 H106      -50.9149  -28.7339   14.8992 H         1 UNK         0.3198 
    107 H107      -54.1880  -28.6402   16.3529 H         1 UNK         0.0843 
    108 H108      -52.8437  -27.7393   18.2303 H         1 UNK         0.0831 
    109 H109      -51.3742  -28.4288   17.5456 H         1 UNK         0.0831 
    110 H110      -52.6615  -29.4827   18.1153 H         1 UNK         0.0831 
    111 H111      -51.9543  -26.7885   15.7878 H         1 UNK         0.3133 
    112 H112      -52.7155  -25.3178   13.4184 H         1 UNK         0.0566 
    113 H113      -55.0821  -24.7259   13.1060 H         1 UNK         0.0814 
    114 H114      -55.2017  -24.1317   14.7515 H         1 UNK         0.0814 
    115 H115      -54.1815  -23.2977   13.5791 H         1 UNK         0.0814 
    116 H116      -51.4954  -24.3288   14.9721 H         1 UNK         0.3091 
    117 H117      -51.7192  -22.6009   17.5453 H         1 UNK         0.0702 
    118 H118      -50.8728  -23.9102   19.5145 H         1 UNK         0.0785 
    119 H119      -51.6016  -25.3728   18.8520 H         1 UNK         0.0785 
    120 H120      -52.6155  -24.0292   19.3575 H         1 UNK         0.0785 
    121 H121      -49.6794  -23.0314   16.8047 H         1 UNK         0.2998 
    122 H122      -47.5976  -24.4785   16.9016 H         1 UNK         0.0697 
    123 H123      -46.5247  -26.1354   15.3512 H         1 UNK         0.0825 
    124 H124      -47.5415  -26.9164   16.5539 H         1 UNK         0.0825 
    125 H125      -48.1211  -26.7383   14.9072 H         1 UNK         0.0825 
    126 H126      -47.8319  -24.3941   14.0308 H         1 UNK         0.3029 
    127 H127      -48.6582  -20.9438   13.7724 H         1 UNK         0.0897 
    128 H128      -46.6251  -20.9362   12.3340 H         1 UNK         0.0792 
    129 H129      -46.1887  -20.9150   14.0345 H         1 UNK         0.0792 
    130 H130      -46.0404  -22.4046   13.1160 H         1 UNK         0.0792 
    131 H131      -48.1106  -23.1181   11.9243 H         1 UNK         0.3086 
    132 H132      -51.5189  -24.0417   11.4631 H         1 UNK         0.0583 
    133 H133      -51.2977  -22.0260   10.0481 H         1 UNK         0.1020 
    134 H134      -49.6214  -22.3685    9.7394 H         1 UNK         0.1020 
    135 H135      -53.1422  -22.7604    8.9038 H         1 UNK         0.0694 
    136 H136      -52.8836  -22.9905    7.1927 H         1 UNK         0.0694 
    137 H137      -49.0738  -24.9107   10.2749 H         1 UNK         0.2989 
    138 H138      -48.2338  -27.3756   12.7193 H         1 UNK         0.1055 
    139 H139      -49.4369  -27.7562    9.9217 H         1 UNK         0.0806 
    140 H140      -50.0876  -28.4272   11.4060 H         1 UNK         0.0806 
    141 H141      -48.5126  -28.9521   10.8388 H         1 UNK         0.0806 
    142 H142      -47.1298  -26.9236   10.1756 H         1 UNK         0.3061 
    143 H143      -45.4419  -23.9405   10.5104 H         1 UNK         0.0734 
    144 H144      -43.2789  -25.1339   10.2520 H         1 UNK         0.0832 
    145 H145      -43.8318  -25.2433   11.9136 H         1 UNK         0.0832 
    146 H146      -44.0024  -26.6300   10.8471 H         1 UNK         0.0832 
    147 H147      -45.0207  -26.0125    8.6380 H         1 UNK         0.3156 
    148 H148      -46.3322  -25.2004    6.2911 H         1 UNK         0.0589 
    149 H149      -47.1507  -27.8158    7.7145 H         1 UNK         0.0808 
    150 H150      -46.7119  -27.7052    6.0181 H         1 UNK         0.0808 
    151 H151      -45.5095  -27.3817    7.2393 H         1 UNK         0.0808 
    152 H152      -48.9896  -25.3305    7.3162 H         1 UNK         0.3098 
    153 H153      -50.7811  -25.1475    6.0221 H         1 UNK         0.0720 
    154 H154      -50.3536  -24.0303    3.8322 H         1 UNK         0.0791 
    155 H155      -50.4482  -25.5815    3.0094 H         1 UNK         0.0791 
    156 H156      -51.8669  -24.9220    3.8232 H         1 UNK         0.0791 
    157 H157      -51.2523  -27.4479    4.3498 H         1 UNK         0.3028 
@<TRIPOS>BOND
     1    1    2 1    
     2    1   82 1    
     3    1   83 1    
     4    1   84 1    
     5    2    3 2    
     6    2    4 am   BACKBONE|DICT|INTERRES
     7    4    5 1    
     8    4   85 1    
     9    5    6 1    
    10    5   80 1    
    11    5   86 1    
    12    6    7 1    
    13    6   87 1    
    14    6   88 1    
    15    7    8 1    
    16    8    9 1    
    17    8   89 1    
    18    8   90 1    
    19    9   10 ar   
    20    9   14 ar   
    21   10   11 ar   
    22   10   91 1    
    23   11   12 ar   
    24   11   58 1    
    25   12   13 ar   
    26   12   92 1    
    27   13   14 ar   
    28   13   15 1    
    29   14   93 1    
    30   15   16 1    
    31   15   94 1    
    32   15   95 1    
    33   16   17 1    
    34   17   18 1    
    35   17   96 1    
    36   17   97 1    
    37   18   19 1    
    38   18   22 1    
    39   18   98 1    
    40   19   20 am   BACKBONE|DICT|INTERRES
    41   19   21 2    
    42   20   99 1    
    43   20  100 1    
    44   22   23 am   BACKBONE|DICT|INTERRES
    45   22  101 1    
    46   23   24 2    
    47   23   25 1    
    48   25   26 1    
    49   25   27 1    
    50   25  102 1    
    51   26  103 1    
    52   26  104 1    
    53   26  105 1    
    54   27   28 am   BACKBONE|DICT|INTERRES
    55   27  106 1    
    56   28   29 2    
    57   28   30 1    
    58   30   31 1    
    59   30   32 1    
    60   30  107 1    
    61   31  108 1    
    62   31  109 1    
    63   31  110 1    
    64   32   33 am   BACKBONE|DICT|INTERRES
    65   32  111 1    
    66   33   34 2    
    67   33   35 1    
    68   35   36 1    
    69   35   37 1    
    70   35  112 1    
    71   36  113 1    
    72   36  114 1    
    73   36  115 1    
    74   37   38 am   BACKBONE|DICT|INTERRES
    75   37  116 1    
    76   38   39 2    
    77   38   40 1    
    78   40   41 1    
    79   40   42 1    
    80   40  117 1    
    81   41  118 1    
    82   41  119 1    
    83   41  120 1    
    84   42   43 am   BACKBONE|DICT|INTERRES
    85   42  121 1    
    86   43   44 2    
    87   43   45 1    
    88   45   46 1    
    89   45   47 1    
    90   45  122 1    
    91   46  123 1    
    92   46  124 1    
    93   46  125 1    
    94   47   48 am   BACKBONE|DICT|INTERRES
    95   47  126 1    
    96   48   49 2    
    97   48   50 1    
    98   50   51 1    
    99   50   52 1    
   100   50  127 1    
   101   51  128 1    
   102   51  129 1    
   103   51  130 1    
   104   52   53 am   BACKBONE|DICT|INTERRES
   105   52  131 1    
   106   53   54 2    
   107   53   55 1    
   108   55   56 1    
   109   55   59 1    
   110   55  132 1    
   111   56   57 1    
   112   56  133 1    
   113   56  134 1    
   114   57   58 1    
   115   58  135 1    
   116   58  136 1    
   117   59   60 am   BACKBONE|DICT|INTERRES
   118   59  137 1    
   119   60   61 2    
   120   60   62 1    
   121   62   63 1    
   122   62   64 1    
   123   62  138 1    
   124   63  139 1    
   125   63  140 1    
   126   63  141 1    
   127   64   65 am   BACKBONE|DICT|INTERRES
   128   64  142 1    
   129   65   66 2    
   130   65   67 1    
   131   67   68 1    
   132   67   69 1    
   133   67  143 1    
   134   68  144 1    
   135   68  145 1    
   136   68  146 1    
   137   69   70 am   BACKBONE|DICT|INTERRES
   138   69  147 1    
   139   70   71 2    
   140   70   72 1    
   141   72   73 1    
   142   72   74 1    
   143   72  148 1    
   144   73  149 1    
   145   73  150 1    
   146   73  151 1    
   147   74   75 am   BACKBONE|DICT|INTERRES
   148   74  152 1    
   149   75   76 2    
   150   75   77 1    
   151   77   78 1    
   152   77   79 1    
   153   77  153 1    
   154   78  154 1    
   155   78  155 1    
   156   78  156 1    
   157   79   80 am   BACKBONE|DICT|INTERRES
   158   79  157 1    
   159   80   81 2    
@<TRIPOS>SUBSTRUCTURE
     1 UNK         1 GROUP             0       ****    0 ROOT    
