@<TRIPOS>MOLECULE
3R207
157   159    1
SMALL
USER_CHARGES


@<TRIPOS>ATOM
      1 CA        -45.7185  -28.9599    0.7968 C.3       0 UNK        -0.1975 
      2 C         -47.0632  -28.7291    1.4708 C.2       0 UNK         0.4852 
      3 O         -48.0484  -28.4434    0.7882 O.2       0 UNK        -0.5216 
      4 N         -47.1135  -28.8583    2.8030 N.am      1 UNK        -0.4461 
      5 CA        -48.3015  -28.6007    3.6224 C.3       1 UNK         0.0864 
      6 C6        -48.1527  -29.2270    5.0348 C.3       14 UNK        -0.0898 
      7 S7        -49.7435  -29.7551    5.7544 S.3       14 UNK        -0.2598 
      8 C8        -50.0993  -28.4073    6.9261 C.3       14 UNK         0.0286 
      9 C9        -51.2060  -28.7896    7.8977 C.ar      14 UNK        -0.0844 
     10 C10       -50.9193  -28.9634    9.2538 C.ar      14 UNK        -0.0881 
     11 C11       -51.9200  -29.3349   10.1606 C.ar      14 UNK        -0.0643 
     12 C12       -53.2214  -29.5291    9.6858 C.ar      14 UNK        -0.0930 
     13 C13       -53.5295  -29.3355    8.3355 C.ar      14 UNK        -0.0827 
     14 C14       -52.5173  -28.9618    7.4470 C.ar      14 UNK        -0.1249 
     15 C15       -54.9489  -29.5439    7.8270 C.3       14 UNK         0.0141 
     16 S16       -55.9887  -28.0705    8.0905 S.3       14 UNK        -0.2313 
     17 C17       -56.6104  -28.3317    9.7872 C.3       14 UNK        -0.0915 
     18 CA        -55.8791  -27.4771   10.8598 C.3       13 UNK         0.0968 
     19 C         -56.4444  -26.0268   10.9460 C.2       13 UNK         0.5732 
     20 N         -57.1010  -25.6347   12.0319 N.am      13 UNK        -0.7310 
     21 O         -56.2756  -25.2386   10.0193 O.2       13 UNK        -0.5035 
     22 N         -55.8317  -28.1979   12.1437 N.am      13 UNK        -0.4233 
     23 C         -54.9641  -27.9371   13.1272 C.2       13 UNK         0.4989 
     24 O         -54.0943  -27.0665   13.0663 O.2       13 UNK        -0.4996 
     25 CA        -55.0782  -28.8056   14.3853 C.3       12 UNK         0.0216 
     26 CB        -54.5946  -30.2463   14.1280 C.3       12 UNK        -0.1964 
     27 N         -54.2796  -28.1897   15.4387 N.am      12 UNK        -0.4276 
     28 C         -54.3798  -28.4218   16.7517 C.2       12 UNK         0.5020 
     29 O         -55.1678  -29.2270   17.2497 O.2       12 UNK        -0.5489 
     30 CA        -53.4449  -27.6176   17.6685 C.3       11 UNK         0.0294 
     31 CB        -52.1566  -28.4087   17.9495 C.3       11 UNK        -0.2019 
     32 N         -53.0905  -26.3222   17.0888 N.am      11 UNK        -0.4493 
     33 C         -53.8452  -25.2178   17.1568 C.2       11 UNK         0.4932 
     34 O         -54.9262  -25.1654   17.7460 O.2       11 UNK        -0.5029 
     35 CA        -53.2887  -23.9680   16.4440 C.3       10 UNK         0.0280 
     36 CB        -53.9641  -22.6574   16.8993 C.3       10 UNK        -0.1976 
     37 N         -51.8267  -23.8669   16.5343 N.am      10 UNK        -0.4242 
     38 C         -51.0788  -23.7729   17.6461 C.2       10 UNK         0.5072 
     39 O         -51.5452  -23.6649   18.7812 O.2       10 UNK        -0.5224 
     40 CA        -49.5478  -23.8485   17.4837 C.3       9 UNK         0.0343 
     41 CB        -49.0282  -25.1861   18.0376 C.3       9 UNK        -0.2003 
     42 N         -49.0938  -23.7043   16.0980 N.am      9 UNK        -0.4272 
     43 C         -49.0516  -22.5470   15.4226 C.2       9 UNK         0.4988 
     44 O         -49.3144  -21.4522   15.9209 O.2       9 UNK        -0.5108 
     45 CA        -48.6970  -22.6315   13.9271 C.3       8 UNK         0.0248 
     46 CB        -47.1744  -22.6919   13.7296 C.3       8 UNK        -0.2001 
     47 N         -49.3268  -23.7719   13.2539 N.am      8 UNK        -0.4140 
     48 C         -50.6499  -23.9532   13.1271 C.2       8 UNK         0.5028 
     49 O         -51.4930  -23.1581   13.5400 O.2       8 UNK        -0.5428 
     50 CA        -51.1149  -25.2657   12.4829 C.3       7 UNK         0.0264 
     51 CB        -51.0881  -25.1810   10.9481 C.3       7 UNK        -0.1988 
     52 N         -50.3099  -26.3997   12.9329 N.am      7 UNK        -0.4454 
     53 C         -50.4320  -26.9878   14.1311 C.2       7 UNK         0.5027 
     54 O         -51.2528  -26.6459   14.9839 O.2       7 UNK        -0.5083 
     55 CA        -49.4539  -28.1404   14.4425 C.3       6 UNK         0.0844 
     56 C56       -49.9969  -29.5061   13.9461 C.3       14 UNK        -0.0967 
     57 S57       -49.9066  -29.7334   12.1323 S.3       14 UNK        -0.2604 
     58 C58       -51.6558  -29.4976   11.6583 C.3       14 UNK         0.0134 
     59 N         -48.0924  -27.8738   13.9656 N.am      6 UNK        -0.4116 
     60 C         -47.3121  -26.8702   14.3900 C.2       5 UNK         0.5034 
     61 O         -47.6412  -26.0662   15.2607 O.2       5 UNK        -0.5045 
     62 CA        -45.9535  -26.6986   13.6874 C.3       5 UNK         0.0224 
     63 CB        -44.8971  -27.6099   14.3320 C.3       5 UNK        -0.1978 
     64 N         -45.9824  -26.9284   12.2364 N.am      5 UNK        -0.4737 
     65 C         -46.7940  -26.3051   11.3721 C.2       4 UNK         0.5027 
     66 O         -47.6659  -25.4988   11.7120 O.2       4 UNK        -0.5211 
     67 CA        -46.6294  -26.6577    9.8876 C.3       4 UNK         0.0297 
     68 CB        -46.8616  -28.1621    9.6367 C.3       4 UNK        -0.1993 
     69 N         -47.5879  -25.8429    9.1464 N.am      4 UNK        -0.4486 
     70 C         -47.6276  -25.6386    7.8288 C.2       3 UNK         0.4961 
     71 O         -46.8605  -26.1678    7.0223 O.2       3 UNK        -0.5105 
     72 CA        -48.7041  -24.6647    7.3355 C.3       3 UNK         0.0299 
     73 CB        -48.2262  -23.2058    7.4417 C.3       3 UNK        -0.1972 
     74 N         -49.0321  -24.9862    5.9509 N.am      3 UNK        -0.4305 
     75 C         -50.2067  -24.7708    5.3500 C.2       2 UNK         0.5006 
     76 O         -51.1418  -24.1725    5.8825 O.2       2 UNK        -0.5106 
     77 CA        -50.4059  -25.3487    3.9340 C.3       2 UNK         0.0296 
     78 CB        -49.9142  -24.3653    2.8530 C.3       2 UNK        -0.2002 
     79 N         -49.8563  -26.7024    3.7435 N.am      2 UNK        -0.4032 
     80 C         -48.5713  -27.0849    3.7135 C.2       1 UNK         0.5000 
     81 O         -47.6202  -26.3051    3.8139 O.2       1 UNK        -0.5238 
     82 H82       -44.9409  -29.2183    1.5154 H         1 UNK         0.0889 
     83 H83       -45.4055  -28.0602    0.2676 H         1 UNK         0.0889 
     84 H84       -45.7953  -29.7717    0.0740 H         1 UNK         0.0889 
     85 H85       -46.2643  -29.0558    3.3128 H         1 UNK         0.3028 
     86 H86       -49.1450  -29.0741    3.1140 H         1 UNK         0.0864 
     87 H87       -47.6143  -28.5708    5.7223 H         1 UNK         0.0720 
     88 H88       -47.5473  -30.1331    4.9743 H         1 UNK         0.0720 
     89 H89       -50.3997  -27.5151    6.3801 H         1 UNK         0.0814 
     90 H90       -49.1891  -28.1520    7.4691 H         1 UNK         0.0814 
     91 H91       -49.9108  -28.8030    9.5967 H         1 UNK         0.1469 
     92 H92       -54.0037  -29.8172   10.3742 H         1 UNK         0.1381 
     93 H93       -52.7448  -28.8177    6.3995 H         1 UNK         0.1206 
     94 H94       -55.3968  -30.4208    8.2960 H         1 UNK         0.0813 
     95 H95       -54.9288  -29.7606    6.7578 H         1 UNK         0.0813 
     96 H96       -57.6843  -28.1360    9.7983 H         1 UNK         0.0638 
     97 H97       -56.5154  -29.3937   10.0170 H         1 UNK         0.0638 
     98 H98       -54.8415  -27.3604   10.5411 H         1 UNK         0.0568 
     99 H99       -57.4562  -24.6929   12.0779 H         1 UNK         0.3450 
    100 H100      -57.2469  -26.2672   12.8012 H         1 UNK         0.3450 
    101 H101      -56.5313  -28.9126   12.2794 H         1 UNK         0.2987 
    102 H102      -56.1256  -28.8176   14.6941 H         1 UNK         0.0766 
    103 H103      -54.7973  -30.8885   14.9853 H         1 UNK         0.0798 
    104 H104      -53.5223  -30.2805   13.9405 H         1 UNK         0.0798 
    105 H105      -55.0960  -30.6940   13.2692 H         1 UNK         0.0798 
    106 H106      -53.6326  -27.4830   15.1035 H         1 UNK         0.3198 
    107 H107      -53.9618  -27.4545   18.6169 H         1 UNK         0.0843 
    108 H108      -51.5996  -28.6141   17.0346 H         1 UNK         0.0831 
    109 H109      -52.3835  -29.3686   18.4156 H         1 UNK         0.0831 
    110 H110      -51.4984  -27.8661   18.6283 H         1 UNK         0.0831 
    111 H111      -52.2561  -26.2984   16.5055 H         1 UNK         0.3133 
    112 H112      -53.5136  -24.1028   15.3849 H         1 UNK         0.0566 
    113 H113      -53.5574  -21.7977   16.3666 H         1 UNK         0.0814 
    114 H114      -55.0365  -22.6816   16.7025 H         1 UNK         0.0814 
    115 H115      -53.8342  -22.4834   17.9678 H         1 UNK         0.0814 
    116 H116      -51.3429  -23.9227   15.6469 H         1 UNK         0.3091 
    117 H117      -49.1147  -23.0402   18.0765 H         1 UNK         0.0702 
    118 H118      -47.9406  -25.2409   17.9867 H         1 UNK         0.0785 
    119 H119      -49.4323  -26.0344   17.4830 H         1 UNK         0.0785 
    120 H120      -49.3100  -25.3156   19.0835 H         1 UNK         0.0785 
    121 H121      -48.7780  -24.5537   15.6365 H         1 UNK         0.2998 
    122 H122      -49.0671  -21.7236   13.4464 H         1 UNK         0.0697 
    123 H123      -46.7413  -23.5700   14.2081 H         1 UNK         0.0825 
    124 H124      -46.6908  -21.8144   14.1608 H         1 UNK         0.0825 
    125 H125      -46.9107  -22.7222   12.6721 H         1 UNK         0.0825 
    126 H126      -48.7035  -24.4624   12.8399 H         1 UNK         0.3029 
    127 H127      -52.1484  -25.4314   12.7910 H         1 UNK         0.0897 
    128 H128      -50.0858  -24.9891   10.5681 H         1 UNK         0.0792 
    129 H129      -51.7302  -24.3734   10.5944 H         1 UNK         0.0792 
    130 H130      -51.4517  -26.1039   10.4949 H         1 UNK         0.0792 
    131 H131      -49.5694  -26.7066   12.3179 H         1 UNK         0.3086 
    132 H132      -49.3932  -28.1980   15.5316 H         1 UNK         0.0583 
    133 H133      -51.0188  -29.6679   14.2957 H         1 UNK         0.1020 
    134 H134      -49.4123  -30.3067   14.4020 H         1 UNK         0.1020 
    135 H135      -52.2191  -30.3549   12.0273 H         1 UNK         0.0694 
    136 H136      -52.0480  -28.6162   12.1655 H         1 UNK         0.0694 
    137 H137      -47.7500  -28.4764   13.2316 H         1 UNK         0.2989 
    138 H138      -45.6434  -25.6634   13.8415 H         1 UNK         0.1055 
    139 H139      -44.8450  -27.4460   15.4095 H         1 UNK         0.0806 
    140 H140      -43.9031  -27.4125   13.9299 H         1 UNK         0.0806 
    141 H141      -45.1205  -28.6657   14.1734 H         1 UNK         0.0806 
    142 H142      -45.2999  -27.5779   11.8717 H         1 UNK         0.3061 
    143 H143      -45.6210  -26.3800    9.5748 H         1 UNK         0.0734 
    144 H144      -46.8918  -28.4009    8.5739 H         1 UNK         0.0832 
    145 H145      -46.0584  -28.7596   10.0685 H         1 UNK         0.0832 
    146 H146      -47.7912  -28.5058   10.0864 H         1 UNK         0.0832 
    147 H147      -48.2015  -25.3198    9.7604 H         1 UNK         0.3156 
    148 H148      -49.5951  -24.8011    7.9525 H         1 UNK         0.0589 
    149 H149      -47.9709  -22.9490    8.4706 H         1 UNK         0.0808 
    150 H150      -47.3405  -23.0289    6.8301 H         1 UNK         0.0808 
    151 H151      -49.0005  -22.5099    7.1182 H         1 UNK         0.0808 
    152 H152      -48.3036  -25.4822    5.4392 H         1 UNK         0.3098 
    153 H153      -51.4832  -25.4585    3.7987 H         1 UNK         0.0720 
    154 H154      -50.0999  -24.7520    1.8509 H         1 UNK         0.0791 
    155 H155      -48.8476  -24.1569    2.9402 H         1 UNK         0.0791 
    156 H156      -50.4349  -23.4103    2.9340 H         1 UNK         0.0791 
    157 H157      -50.5547  -27.4308    3.6787 H         1 UNK         0.3028 
@<TRIPOS>BOND
     1    1    2 1    
     2    1   82 1    
     3    1   83 1    
     4    1   84 1    
     5    2    3 2    
     6    2    4 am   BACKBONE|DICT|INTERRES
     7    4    5 1    
     8    4   85 1    
     9    5    6 1    
    10    5   80 1    
    11    5   86 1    
    12    6    7 1    
    13    6   87 1    
    14    6   88 1    
    15    7    8 1    
    16    8    9 1    
    17    8   89 1    
    18    8   90 1    
    19    9   10 ar   
    20    9   14 ar   
    21   10   11 ar   
    22   10   91 1    
    23   11   12 ar   
    24   11   58 1    
    25   12   13 ar   
    26   12   92 1    
    27   13   14 ar   
    28   13   15 1    
    29   14   93 1    
    30   15   16 1    
    31   15   94 1    
    32   15   95 1    
    33   16   17 1    
    34   17   18 1    
    35   17   96 1    
    36   17   97 1    
    37   18   19 1    
    38   18   22 1    
    39   18   98 1    
    40   19   20 am   BACKBONE|DICT|INTERRES
    41   19   21 2    
    42   20   99 1    
    43   20  100 1    
    44   22   23 am   BACKBONE|DICT|INTERRES
    45   22  101 1    
    46   23   24 2    
    47   23   25 1    
    48   25   26 1    
    49   25   27 1    
    50   25  102 1    
    51   26  103 1    
    52   26  104 1    
    53   26  105 1    
    54   27   28 am   BACKBONE|DICT|INTERRES
    55   27  106 1    
    56   28   29 2    
    57   28   30 1    
    58   30   31 1    
    59   30   32 1    
    60   30  107 1    
    61   31  108 1    
    62   31  109 1    
    63   31  110 1    
    64   32   33 am   BACKBONE|DICT|INTERRES
    65   32  111 1    
    66   33   34 2    
    67   33   35 1    
    68   35   36 1    
    69   35   37 1    
    70   35  112 1    
    71   36  113 1    
    72   36  114 1    
    73   36  115 1    
    74   37   38 am   BACKBONE|DICT|INTERRES
    75   37  116 1    
    76   38   39 2    
    77   38   40 1    
    78   40   41 1    
    79   40   42 1    
    80   40  117 1    
    81   41  118 1    
    82   41  119 1    
    83   41  120 1    
    84   42   43 am   BACKBONE|DICT|INTERRES
    85   42  121 1    
    86   43   44 2    
    87   43   45 1    
    88   45   46 1    
    89   45   47 1    
    90   45  122 1    
    91   46  123 1    
    92   46  124 1    
    93   46  125 1    
    94   47   48 am   BACKBONE|DICT|INTERRES
    95   47  126 1    
    96   48   49 2    
    97   48   50 1    
    98   50   51 1    
    99   50   52 1    
   100   50  127 1    
   101   51  128 1    
   102   51  129 1    
   103   51  130 1    
   104   52   53 am   BACKBONE|DICT|INTERRES
   105   52  131 1    
   106   53   54 2    
   107   53   55 1    
   108   55   56 1    
   109   55   59 1    
   110   55  132 1    
   111   56   57 1    
   112   56  133 1    
   113   56  134 1    
   114   57   58 1    
   115   58  135 1    
   116   58  136 1    
   117   59   60 am   BACKBONE|DICT|INTERRES
   118   59  137 1    
   119   60   61 2    
   120   60   62 1    
   121   62   63 1    
   122   62   64 1    
   123   62  138 1    
   124   63  139 1    
   125   63  140 1    
   126   63  141 1    
   127   64   65 am   BACKBONE|DICT|INTERRES
   128   64  142 1    
   129   65   66 2    
   130   65   67 1    
   131   67   68 1    
   132   67   69 1    
   133   67  143 1    
   134   68  144 1    
   135   68  145 1    
   136   68  146 1    
   137   69   70 am   BACKBONE|DICT|INTERRES
   138   69  147 1    
   139   70   71 2    
   140   70   72 1    
   141   72   73 1    
   142   72   74 1    
   143   72  148 1    
   144   73  149 1    
   145   73  150 1    
   146   73  151 1    
   147   74   75 am   BACKBONE|DICT|INTERRES
   148   74  152 1    
   149   75   76 2    
   150   75   77 1    
   151   77   78 1    
   152   77   79 1    
   153   77  153 1    
   154   78  154 1    
   155   78  155 1    
   156   78  156 1    
   157   79   80 am   BACKBONE|DICT|INTERRES
   158   79  157 1    
   159   80   81 2    
@<TRIPOS>SUBSTRUCTURE
     1 UNK         1 GROUP             0       ****    0 ROOT    
