@<TRIPOS>MOLECULE
3R207
157   159    1
SMALL
USER_CHARGES


@<TRIPOS>ATOM
      1 CA        -46.2127  -27.4186    5.0023 C.3       0 UNK        -0.1975 
      2 C         -47.6666  -27.3926    5.4478 C.2       0 UNK         0.4852 
      3 O         -47.9594  -26.9341    6.5542 O.2       0 UNK        -0.5216 
      4 N         -48.5831  -27.8696    4.5943 N.am      1 UNK        -0.4461 
      5 CA        -50.0306  -27.9368    4.8377 C.3       1 UNK         0.0864 
      6 C6        -50.4154  -28.9516    5.9556 C.3       14 UNK        -0.0898 
      7 S7        -49.7801  -30.6359    5.6444 S.3       14 UNK        -0.2598 
      8 C8        -51.2515  -31.6729    5.9343 C.3       14 UNK         0.0286 
      9 C9        -51.8569  -31.4525    7.3152 C.ar      14 UNK        -0.0844 
     10 C10       -51.1354  -31.7749    8.4702 C.ar      14 UNK        -0.0881 
     11 C11       -51.6842  -31.5475    9.7365 C.ar      14 UNK        -0.0643 
     12 C12       -52.9691  -31.0079    9.8404 C.ar      14 UNK        -0.0930 
     13 C13       -53.7007  -30.6834    8.6947 C.ar      14 UNK        -0.0827 
     14 C14       -53.1423  -30.9159    7.4353 C.ar      14 UNK        -0.1249 
     15 C15       -55.0948  -30.0845    8.8225 C.3       14 UNK         0.0141 
     16 S16       -55.2399  -28.4282    8.0695 S.3       14 UNK        -0.2313 
     17 C17       -53.9072  -27.4627    8.8684 C.3       14 UNK        -0.0915 
     18 CA        -54.3703  -26.5609   10.0424 C.3       13 UNK         0.0968 
     19 C         -55.3262  -25.4187    9.5885 C.2       13 UNK         0.5732 
     20 N         -56.5616  -25.3532   10.0700 N.am      13 UNK        -0.7310 
     21 O         -54.9298  -24.5686    8.7961 O.2       13 UNK        -0.5035 
     22 N         -54.8255  -27.3668   11.1841 N.am      13 UNK        -0.4233 
     23 C         -54.8722  -26.9409   12.4516 C.2       13 UNK         0.4989 
     24 O         -54.6053  -25.7878   12.7943 O.2       13 UNK        -0.4996 
     25 CA        -55.2469  -27.9710   13.5291 C.3       12 UNK         0.0216 
     26 CB        -55.2778  -29.4361   13.0364 C.3       12 UNK        -0.1964 
     27 N         -54.2877  -27.8202   14.6167 N.am      12 UNK        -0.4276 
     28 C         -54.4399  -28.2304   15.8796 C.2       12 UNK         0.5020 
     29 O         -55.4218  -28.8475   16.2949 O.2       12 UNK        -0.5489 
     30 CA        -53.3029  -27.8702   16.8485 C.3       11 UNK         0.0294 
     31 CB        -52.1533  -28.8863   16.7460 C.3       11 UNK        -0.2019 
     32 N         -52.7869  -26.5237   16.5959 N.am      11 UNK        -0.4493 
     33 C         -53.4022  -25.3948   16.9754 C.2       11 UNK         0.4932 
     34 O         -54.4506  -25.3761   17.6230 O.2       11 UNK        -0.5029 
     35 CA        -52.7314  -24.0697   16.5600 C.3       10 UNK         0.0280 
     36 CB        -53.2196  -22.8599   17.3848 C.3       10 UNK        -0.1976 
     37 N         -51.2646  -24.1386   16.5511 N.am      10 UNK        -0.4242 
     38 C         -50.4515  -24.4166   17.5847 C.2       10 UNK         0.5072 
     39 O         -50.8489  -24.6032   18.7357 O.2       10 UNK        -0.5224 
     40 CA        -48.9413  -24.5406   17.2994 C.3       9 UNK         0.0343 
     41 CB        -48.4431  -25.9514   17.6592 C.3       9 UNK        -0.2003 
     42 N         -48.5957  -24.2512   15.9038 N.am      9 UNK        -0.4272 
     43 C         -48.3501  -23.0217   15.4279 C.2       9 UNK         0.4988 
     44 O         -48.3067  -22.0133   16.1334 O.2       9 UNK        -0.5108 
     45 CA        -48.1576  -22.8749   13.9075 C.3       8 UNK         0.0248 
     46 CB        -46.6823  -23.0496   13.5182 C.3       8 UNK        -0.2001 
     47 N         -48.9968  -23.7721   13.1049 N.am      8 UNK        -0.4140 
     48 C         -50.3380  -23.7383   13.0876 C.2       8 UNK         0.5028 
     49 O         -51.0120  -23.0136   13.8180 O.2       8 UNK        -0.5428 
     50 CA        -51.0520  -24.6699   12.1023 C.3       7 UNK         0.0264 
     51 CB        -51.0057  -24.0842   10.6828 C.3       7 UNK        -0.1988 
     52 N         -50.4515  -26.0000   12.0986 N.am      7 UNK        -0.4454 
     53 C         -50.8051  -26.9950   12.9235 C.2       7 UNK         0.5027 
     54 O         -51.7039  -26.9127   13.7625 O.2       7 UNK        -0.5083 
     55 CA        -49.9911  -28.3005   12.8023 C.3       6 UNK         0.0844 
     56 C56       -50.5228  -29.1381   11.6108 C.3       14 UNK        -0.0967 
     57 S57       -49.5770  -30.6753   11.3280 S.3       14 UNK        -0.2604 
     58 C58       -50.8947  -31.8881   10.9938 C.3       14 UNK         0.0134 
     59 N         -48.5483  -28.0502   12.7067 N.am      6 UNK        -0.4116 
     60 C         -47.8129  -27.3354   13.5698 C.2       5 UNK         0.5034 
     61 O         -48.2585  -26.8046   14.5858 O.2       5 UNK        -0.5045 
     62 CA        -46.3329  -27.1245   13.2136 C.3       5 UNK         0.0224 
     63 CB        -45.4927  -28.3008   13.7361 C.3       5 UNK        -0.1978 
     64 N         -46.0421  -26.9180   11.7872 N.am      5 UNK        -0.4737 
     65 C         -46.6899  -26.1271   10.9171 C.2       4 UNK         0.5027 
     66 O         -47.7156  -25.4974   11.1911 O.2       4 UNK        -0.5211 
     67 CA        -46.0801  -26.0623    9.5031 C.3       4 UNK         0.0297 
     68 CB        -45.7994  -27.4690    8.9381 C.3       4 UNK        -0.1993 
     69 N         -46.9261  -25.3455    8.5472 N.am      4 UNK        -0.4486 
     70 C         -47.0680  -24.0157    8.4688 C.2       3 UNK         0.4961 
     71 O         -46.4766  -23.2212    9.2012 O.2       3 UNK        -0.5105 
     72 CA        -48.0083  -23.4670    7.3821 C.3       3 UNK         0.0299 
     73 CB        -47.2489  -23.2511    6.0618 C.3       3 UNK        -0.1972 
     74 N         -49.1708  -24.3311    7.1444 N.am      3 UNK        -0.4305 
     75 C         -50.4242  -23.8874    6.9636 C.2       2 UNK         0.5006 
     76 O         -50.7242  -22.6921    6.9564 O.2       2 UNK        -0.5106 
     77 CA        -51.5419  -24.9409    6.7953 C.3       2 UNK         0.0296 
     78 CB        -52.7529  -24.4191    5.9918 C.3       2 UNK        -0.2002 
     79 N         -51.0771  -26.2367    6.2863 N.am      2 UNK        -0.4032 
     80 C         -50.5870  -26.5109    5.0669 C.2       1 UNK         0.5000 
     81 O         -50.5187  -25.6914    4.1483 O.2       1 UNK        -0.5238 
     82 H82       -46.1189  -27.6311    3.9366 H         1 UNK         0.0889 
     83 H83       -45.6680  -28.1856    5.5534 H         1 UNK         0.0889 
     84 H84       -45.7403  -26.4553    5.1987 H         1 UNK         0.0889 
     85 H85       -48.2848  -28.2096    3.6910 H         1 UNK         0.3028 
     86 H86       -50.4826  -28.2869    3.9080 H         1 UNK         0.0864 
     87 H87       -51.5016  -28.9948    6.0514 H         1 UNK         0.0720 
     88 H88       -50.0289  -28.6430    6.9286 H         1 UNK         0.0720 
     89 H89       -50.9721  -32.7220    5.8297 H         1 UNK         0.0814 
     90 H90       -51.9840  -31.4721    5.1508 H         1 UNK         0.0814 
     91 H91       -50.1386  -32.1857    8.3834 H         1 UNK         0.1469 
     92 H92       -53.3980  -30.8403   10.8172 H         1 UNK         0.1381 
     93 H93       -53.7077  -30.6622    6.5487 H         1 UNK         0.1206 
     94 H94       -55.4022  -30.0303    9.8665 H         1 UNK         0.0813 
     95 H95       -55.8077  -30.7505    8.3345 H         1 UNK         0.0813 
     96 H96       -53.4516  -26.8521    8.0896 H         1 UNK         0.0638 
     97 H97       -53.1127  -28.1274    9.2072 H         1 UNK         0.0638 
     98 H98       -53.4759  -26.0413   10.3888 H         1 UNK         0.0568 
     99 H99       -57.1664  -24.6046    9.7723 H         1 UNK         0.3450 
    100 H100      -56.8941  -26.0429   10.7231 H         1 UNK         0.3450 
    101 H101      -55.0924  -28.3152   10.9764 H         1 UNK         0.2987 
    102 H102      -56.2379  -27.7000   13.8982 H         1 UNK         0.0766 
    103 H103      -55.5527  -30.1171   13.8419 H         1 UNK         0.0798 
    104 H104      -54.3052  -29.7540   12.6615 H         1 UNK         0.0798 
    105 H105      -56.0168  -29.5798   12.2477 H         1 UNK         0.0798 
    106 H106      -53.4434  -27.3035   14.3714 H         1 UNK         0.3198 
    107 H107      -53.7013  -27.9081   17.8650 H         1 UNK         0.0843 
    108 H108      -51.7077  -28.8982   15.7509 H         1 UNK         0.0831 
    109 H109      -52.5082  -29.8963   16.9557 H         1 UNK         0.0831 
    110 H110      -51.3635  -28.6649   17.4642 H         1 UNK         0.0831 
    111 H111      -51.9651  -26.4519   16.0101 H         1 UNK         0.3133 
    112 H112      -53.0294  -23.9004   15.5243 H         1 UNK         0.0566 
    113 H113      -52.7438  -21.9372   17.0527 H         1 UNK         0.0814 
    114 H114      -54.2965  -22.7231   17.2793 H         1 UNK         0.0814 
    115 H115      -53.0104  -22.9828   18.4478 H         1 UNK         0.0814 
    116 H116      -50.8422  -23.9419   15.6500 H         1 UNK         0.3091 
    117 H117      -48.4283  -23.8302   17.9510 H         1 UNK         0.0702 
    118 H118      -47.3849  -26.0725   17.4270 H         1 UNK         0.0785 
    119 H119      -48.9957  -26.7236   17.1228 H         1 UNK         0.0785 
    120 H120      -48.5656  -26.1486   18.7249 H         1 UNK         0.0785 
    121 H121      -48.5764  -25.0487   15.2722 H         1 UNK         0.2998 
    122 H122      -48.4483  -21.8554   13.6453 H         1 UNK         0.0697 
    123 H123      -46.3052  -24.0308   13.7977 H         1 UNK         0.0825 
    124 H124      -46.0584  -22.3089   14.0201 H         1 UNK         0.0825 
    125 H125      -46.5346  -22.9253   12.4447 H         1 UNK         0.0825 
    126 H126      -48.5175  -24.3934   12.4559 H         1 UNK         0.3029 
    127 H127      -52.0989  -24.7433   12.4063 H         1 UNK         0.0897 
    128 H128      -51.5659  -24.7062    9.9894 H         1 UNK         0.0792 
    129 H129      -51.4503  -23.0885   10.6549 H         1 UNK         0.0792 
    130 H130      -49.9848  -23.9981   10.3077 H         1 UNK         0.0792 
    131 H131      -49.6225  -26.1159   11.5242 H         1 UNK         0.3086 
    132 H132      -50.1512  -28.8709   13.7193 H         1 UNK         0.0583 
    133 H133      -51.5712  -29.3880   11.7825 H         1 UNK         0.1020 
    134 H134      -50.4982  -28.5632   10.6825 H         1 UNK         0.1020 
    135 H135      -50.4436  -32.8747   10.8794 H         1 UNK         0.0694 
    136 H136      -51.5528  -31.9537   11.8619 H         1 UNK         0.0694 
    137 H137      -48.0840  -28.4505   11.9050 H         1 UNK         0.2989 
    138 H138      -46.0043  -26.2293   13.7403 H         1 UNK         0.1055 
    139 H139      -45.6743  -28.4701   14.7987 H         1 UNK         0.0806 
    140 H140      -44.4254  -28.1104   13.6211 H         1 UNK         0.0806 
    141 H141      -45.7271  -29.2293   13.2137 H         1 UNK         0.0806 
    142 H142      -45.2189  -27.3927   11.4454 H         1 UNK         0.3061 
    143 H143      -45.1309  -25.5288    9.5845 H         1 UNK         0.0734 
    144 H144      -46.7086  -28.0698    8.8830 H         1 UNK         0.0832 
    145 H145      -45.0771  -28.0182    9.5423 H         1 UNK         0.0832 
    146 H146      -45.3802  -27.4102    7.9341 H         1 UNK         0.0832 
    147 H147      -47.4021  -25.9342    7.8655 H         1 UNK         0.3156 
    148 H148      -48.3457  -22.4924    7.7410 H         1 UNK         0.0589 
    149 H149      -46.9030  -24.1941    5.6378 H         1 UNK         0.0808 
    150 H150      -46.3738  -22.6172    6.2118 H         1 UNK         0.0808 
    151 H151      -47.8800  -22.7627    5.3192 H         1 UNK         0.0808 
    152 H152      -48.9900  -25.3282    7.0918 H         1 UNK         0.3098 
    153 H153      -51.9009  -25.1377    7.8036 H         1 UNK         0.0720 
    154 H154      -53.2061  -23.5585    6.4855 H         1 UNK         0.0791 
    155 H155      -53.5284  -25.1800    5.9042 H         1 UNK         0.0791 
    156 H156      -52.4713  -24.1047    4.9866 H         1 UNK         0.0791 
    157 H157      -51.0540  -26.9833    6.9660 H         1 UNK         0.3028 
@<TRIPOS>BOND
     1    1    2 1    
     2    1   82 1    
     3    1   83 1    
     4    1   84 1    
     5    2    3 2    
     6    2    4 am   BACKBONE|DICT|INTERRES
     7    4    5 1    
     8    4   85 1    
     9    5    6 1    
    10    5   80 1    
    11    5   86 1    
    12    6    7 1    
    13    6   87 1    
    14    6   88 1    
    15    7    8 1    
    16    8    9 1    
    17    8   89 1    
    18    8   90 1    
    19    9   10 ar   
    20    9   14 ar   
    21   10   11 ar   
    22   10   91 1    
    23   11   12 ar   
    24   11   58 1    
    25   12   13 ar   
    26   12   92 1    
    27   13   14 ar   
    28   13   15 1    
    29   14   93 1    
    30   15   16 1    
    31   15   94 1    
    32   15   95 1    
    33   16   17 1    
    34   17   18 1    
    35   17   96 1    
    36   17   97 1    
    37   18   19 1    
    38   18   22 1    
    39   18   98 1    
    40   19   20 am   BACKBONE|DICT|INTERRES
    41   19   21 2    
    42   20   99 1    
    43   20  100 1    
    44   22   23 am   BACKBONE|DICT|INTERRES
    45   22  101 1    
    46   23   24 2    
    47   23   25 1    
    48   25   26 1    
    49   25   27 1    
    50   25  102 1    
    51   26  103 1    
    52   26  104 1    
    53   26  105 1    
    54   27   28 am   BACKBONE|DICT|INTERRES
    55   27  106 1    
    56   28   29 2    
    57   28   30 1    
    58   30   31 1    
    59   30   32 1    
    60   30  107 1    
    61   31  108 1    
    62   31  109 1    
    63   31  110 1    
    64   32   33 am   BACKBONE|DICT|INTERRES
    65   32  111 1    
    66   33   34 2    
    67   33   35 1    
    68   35   36 1    
    69   35   37 1    
    70   35  112 1    
    71   36  113 1    
    72   36  114 1    
    73   36  115 1    
    74   37   38 am   BACKBONE|DICT|INTERRES
    75   37  116 1    
    76   38   39 2    
    77   38   40 1    
    78   40   41 1    
    79   40   42 1    
    80   40  117 1    
    81   41  118 1    
    82   41  119 1    
    83   41  120 1    
    84   42   43 am   BACKBONE|DICT|INTERRES
    85   42  121 1    
    86   43   44 2    
    87   43   45 1    
    88   45   46 1    
    89   45   47 1    
    90   45  122 1    
    91   46  123 1    
    92   46  124 1    
    93   46  125 1    
    94   47   48 am   BACKBONE|DICT|INTERRES
    95   47  126 1    
    96   48   49 2    
    97   48   50 1    
    98   50   51 1    
    99   50   52 1    
   100   50  127 1    
   101   51  128 1    
   102   51  129 1    
   103   51  130 1    
   104   52   53 am   BACKBONE|DICT|INTERRES
   105   52  131 1    
   106   53   54 2    
   107   53   55 1    
   108   55   56 1    
   109   55   59 1    
   110   55  132 1    
   111   56   57 1    
   112   56  133 1    
   113   56  134 1    
   114   57   58 1    
   115   58  135 1    
   116   58  136 1    
   117   59   60 am   BACKBONE|DICT|INTERRES
   118   59  137 1    
   119   60   61 2    
   120   60   62 1    
   121   62   63 1    
   122   62   64 1    
   123   62  138 1    
   124   63  139 1    
   125   63  140 1    
   126   63  141 1    
   127   64   65 am   BACKBONE|DICT|INTERRES
   128   64  142 1    
   129   65   66 2    
   130   65   67 1    
   131   67   68 1    
   132   67   69 1    
   133   67  143 1    
   134   68  144 1    
   135   68  145 1    
   136   68  146 1    
   137   69   70 am   BACKBONE|DICT|INTERRES
   138   69  147 1    
   139   70   71 2    
   140   70   72 1    
   141   72   73 1    
   142   72   74 1    
   143   72  148 1    
   144   73  149 1    
   145   73  150 1    
   146   73  151 1    
   147   74   75 am   BACKBONE|DICT|INTERRES
   148   74  152 1    
   149   75   76 2    
   150   75   77 1    
   151   77   78 1    
   152   77   79 1    
   153   77  153 1    
   154   78  154 1    
   155   78  155 1    
   156   78  156 1    
   157   79   80 am   BACKBONE|DICT|INTERRES
   158   79  157 1    
   159   80   81 2    
@<TRIPOS>SUBSTRUCTURE
     1 UNK         1 GROUP             0       ****    0 ROOT    
