@<TRIPOS>MOLECULE
3R207
157   159    1
SMALL
USER_CHARGES


@<TRIPOS>ATOM
      1 CA        -47.9079  -30.9372    7.4886 C.3       0 UNK        -0.1975 
      2 C         -47.5912  -31.1161    6.0073 C.2       0 UNK         0.4852 
      3 O         -46.7876  -31.9866    5.6756 O.2       0 UNK        -0.5216 
      4 N         -48.1851  -30.3582    5.0723 N.am      1 UNK        -0.4461 
      5 CA        -49.1245  -29.2338    5.2055 C.3       1 UNK         0.0864 
      6 C6        -50.3515  -29.5252    6.1128 C.3       14 UNK        -0.0898 
      7 S7        -51.8809  -28.7477    5.4981 S.3       14 UNK        -0.2598 
      8 C8        -53.0964  -29.3903    6.6941 C.3       14 UNK         0.0286 
      9 C9        -52.8433  -28.8467    8.0921 C.ar      14 UNK        -0.0844 
     10 C10       -53.2189  -27.5400    8.4117 C.ar      14 UNK        -0.0881 
     11 C11       -52.9490  -27.0140    9.6773 C.ar      14 UNK        -0.0643 
     12 C12       -52.3082  -27.8102   10.6322 C.ar      14 UNK        -0.0930 
     13 C13       -51.9387  -29.1227   10.3278 C.ar      14 UNK        -0.0827 
     14 C14       -52.2125  -29.6371    9.0573 C.ar      14 UNK        -0.1249 
     15 C15       -51.2031  -29.9765   11.3488 C.3       14 UNK         0.0141 
     16 S16       -52.3043  -31.1765   12.1583 S.3       14 UNK        -0.2313 
     17 C17       -52.9788  -30.2286   13.5627 C.3       14 UNK        -0.0915 
     18 CA        -54.5289  -30.1734   13.5370 C.3       13 UNK         0.0968 
     19 C         -55.1328  -29.9031   14.9477 C.2       13 UNK         0.5732 
     20 N         -56.0368  -28.9484   15.1338 N.am      13 UNK        -0.7310 
     21 O         -54.7910  -30.5971   15.9022 O.2       13 UNK        -0.5035 
     22 N         -55.0051  -29.2448   12.5035 N.am      13 UNK        -0.4233 
     23 C         -56.1143  -29.4143   11.7743 C.2       13 UNK         0.4989 
     24 O         -56.8099  -30.4312   11.8157 O.2       13 UNK        -0.4996 
     25 CA        -56.5240  -28.2437   10.8531 C.3       12 UNK         0.0216 
     26 CB        -58.0186  -28.2841   10.4689 C.3       12 UNK        -0.1964 
     27 N         -56.1698  -26.9181   11.3820 N.am      12 UNK        -0.4276 
     28 C         -56.5206  -26.3964   12.5666 C.2       12 UNK         0.5020 
     29 O         -57.2331  -26.9676   13.3943 O.2       12 UNK        -0.5489 
     30 CA        -55.9331  -25.0149   12.9066 C.3       11 UNK         0.0294 
     31 CB        -57.0565  -23.9894   13.1308 C.3       11 UNK        -0.2019 
     32 N         -55.0683  -25.0505   14.0916 N.am      11 UNK        -0.4493 
     33 C         -54.0255  -25.8697   14.2906 C.2       11 UNK         0.4932 
     34 O         -53.6350  -26.7085   13.4731 O.2       11 UNK        -0.5029 
     35 CA        -53.3066  -25.7313   15.6387 C.3       10 UNK         0.0280 
     36 CB        -54.2061  -26.1838   16.8063 C.3       10 UNK        -0.1976 
     37 N         -52.0895  -26.5359   15.6075 N.am      10 UNK        -0.4242 
     38 C         -51.0372  -26.4113   16.4236 C.2       10 UNK         0.5072 
     39 O         -50.9632  -25.5700   17.3210 O.2       10 UNK        -0.5224 
     40 CA        -49.8798  -27.4065   16.2389 C.3       9 UNK         0.0343 
     41 CB        -50.2433  -28.6514   15.4041 C.3       9 UNK        -0.2003 
     42 N         -48.7510  -26.7236   15.6131 N.am      9 UNK        -0.4272 
     43 C         -47.6469  -26.3170   16.2524 C.2       9 UNK         0.4988 
     44 O         -47.4368  -26.4946   17.4534 O.2       9 UNK        -0.5108 
     45 CA        -46.5788  -25.6056   15.4051 C.3       8 UNK         0.0248 
     46 CB        -45.7827  -26.6242   14.5728 C.3       8 UNK        -0.2001 
     47 N         -47.1324  -24.5707   14.5283 N.am      8 UNK        -0.4140 
     48 C         -47.6629  -23.4164   14.9600 C.2       8 UNK         0.5028 
     49 O         -47.7152  -23.0850   16.1451 O.2       8 UNK        -0.5428 
     50 CA        -48.2249  -22.4611   13.8931 C.3       7 UNK         0.0264 
     51 CB        -47.0988  -21.6370   13.2478 C.3       7 UNK        -0.1988 
     52 N         -48.9780  -23.1579   12.8508 N.am      7 UNK        -0.4454 
     53 C         -50.1568  -23.7689   13.0393 C.2       7 UNK         0.5027 
     54 O         -50.7827  -23.7428   14.0982 O.2       7 UNK        -0.5083 
     55 CA        -50.7246  -24.5559   11.8429 C.3       6 UNK         0.0844 
     56 C56       -51.5383  -23.6183   10.9155 C.3       14 UNK        -0.0967 
     57 S57       -52.1070  -24.4078    9.3728 S.3       14 UNK        -0.2604 
     58 C58       -53.3426  -25.5821    9.9963 C.3       14 UNK         0.0134 
     59 N         -49.6754  -25.2965   11.1372 N.am      6 UNK        -0.4116 
     60 C         -48.9685  -26.3068   11.6608 C.2       5 UNK         0.5034 
     61 O         -49.1537  -26.7633   12.7877 O.2       5 UNK        -0.5045 
     62 CA        -47.8244  -26.8666   10.8054 C.3       5 UNK         0.0224 
     63 CB        -48.3303  -27.9508    9.8470 C.3       5 UNK        -0.1978 
     64 N         -47.1478  -25.8160   10.0442 N.am      5 UNK        -0.4737 
     65 C         -46.3426  -24.8982   10.5985 C.2       4 UNK         0.5027 
     66 O         -46.0631  -24.8736   11.7963 O.2       4 UNK        -0.5211 
     67 CA        -45.8032  -23.7909    9.6767 C.3       4 UNK         0.0297 
     68 CB        -44.5155  -24.2518    8.9766 C.3       4 UNK        -0.1993 
     69 N         -46.7802  -23.3610    8.6739 N.am      4 UNK        -0.4486 
     70 C         -47.9757  -22.8261    8.9581 C.2       3 UNK         0.4961 
     71 O         -48.3464  -22.5584   10.1008 O.2       3 UNK        -0.5105 
     72 CA        -48.9388  -22.5811    7.7843 C.3       3 UNK         0.0299 
     73 CB        -48.8951  -21.1045    7.3612 C.3       3 UNK        -0.1972 
     74 N         -48.7145  -23.4304    6.6073 N.am      3 UNK        -0.4305 
     75 C         -48.7603  -24.7713    6.5771 C.2       2 UNK         0.5006 
     76 O         -48.9179  -25.4744    7.5765 O.2       2 UNK        -0.5106 
     77 CA        -48.5836  -25.3963    5.1816 C.3       2 UNK         0.0296 
     78 CB        -47.1439  -25.2079    4.6540 C.3       2 UNK        -0.2002 
     79 N         -49.0183  -26.7979    5.0900 N.am      2 UNK        -0.4032 
     80 C         -48.4133  -27.9040    5.5503 C.2       1 UNK         0.5000 
     81 O         -47.3479  -27.9114    6.1724 O.2       1 UNK        -0.5238 
     82 H82       -47.0798  -31.2958    8.0994 H         1 UNK         0.0889 
     83 H83       -48.7972  -31.5050    7.7598 H         1 UNK         0.0889 
     84 H84       -48.0679  -29.8948    7.7425 H         1 UNK         0.0889 
     85 H85       -47.9089  -30.5318    4.1159 H         1 UNK         0.3028 
     86 H86       -49.4931  -29.1173    4.1845 H         1 UNK         0.0864 
     87 H87       -50.1755  -29.1976    7.1385 H         1 UNK         0.0720 
     88 H88       -50.5430  -30.5983    6.1600 H         1 UNK         0.0720 
     89 H89       -53.0711  -30.4812    6.6911 H         1 UNK         0.0814 
     90 H90       -54.0987  -29.1076    6.3691 H         1 UNK         0.0814 
     91 H91       -53.6967  -26.9218    7.6639 H         1 UNK         0.1469 
     92 H92       -52.0808  -27.4077   11.6080 H         1 UNK         0.1381 
     93 H93       -51.9148  -30.6481    8.8148 H         1 UNK         0.1206 
     94 H94       -50.4111  -30.5302   10.8429 H         1 UNK         0.0813 
     95 H95       -50.7039  -29.3557   12.0942 H         1 UNK         0.0813 
     96 H96       -52.5644  -29.2209   13.5763 H         1 UNK         0.0638 
     97 H97       -52.6126  -30.7208   14.4652 H         1 UNK         0.0638 
     98 H98       -54.8800  -31.1762   13.2873 H         1 UNK         0.0568 
     99 H99       -56.3666  -28.3625   14.3722 H         1 UNK         0.3450 
    100 H100      -56.4195  -28.8196   16.0557 H         1 UNK         0.3450 
    101 H101      -54.5155  -28.3591   12.4600 H         1 UNK         0.2987 
    102 H102      -55.9437  -28.3721    9.9378 H         1 UNK         0.0766 
    103 H103      -58.2683  -29.2136    9.9558 H         1 UNK         0.0798 
    104 H104      -58.2780  -27.4665    9.7964 H         1 UNK         0.0798 
    105 H105      -58.6618  -28.2133   11.3468 H         1 UNK         0.0798 
    106 H106      -55.5605  -26.3754   10.7888 H         1 UNK         0.3198 
    107 H107      -55.3309  -24.6623   12.0695 H         1 UNK         0.0843 
    108 H108      -57.6783  -24.2526   13.9878 H         1 UNK         0.0831 
    109 H109      -57.7117  -23.9320   12.2604 H         1 UNK         0.0831 
    110 H110      -56.6568  -22.9892   13.2993 H         1 UNK         0.0831 
    111 H111      -55.3183  -24.4166   14.8365 H         1 UNK         0.3133 
    112 H112      -53.0337  -24.6817   15.7667 H         1 UNK         0.0566 
    113 H113      -54.4484  -27.2443   16.7360 H         1 UNK         0.0814 
    114 H114      -55.1472  -25.6336   16.8272 H         1 UNK         0.0814 
    115 H115      -53.7209  -26.0191   17.7684 H         1 UNK         0.0814 
    116 H116      -52.0604  -27.2000   14.8446 H         1 UNK         0.3091 
    117 H117      -49.6072  -27.7565   17.2366 H         1 UNK         0.0702 
    118 H118      -49.4159  -29.3609   15.3858 H         1 UNK         0.0785 
    119 H119      -50.4769  -28.4007   14.3701 H         1 UNK         0.0785 
    120 H120      -51.1013  -29.1738   15.8294 H         1 UNK         0.0785 
    121 H121      -48.8389  -26.5471   14.6146 H         1 UNK         0.2998 
    122 H122      -45.8824  -25.1194   16.0917 H         1 UNK         0.0697 
    123 H123      -44.9639  -26.1444   14.0364 H         1 UNK         0.0825 
    124 H124      -46.4133  -27.1277   13.8396 H         1 UNK         0.0825 
    125 H125      -45.3453  -27.3934   15.2106 H         1 UNK         0.0825 
    126 H126      -47.0487  -24.7274   13.5282 H         1 UNK         0.3029 
    127 H127      -48.9073  -21.7706   14.3937 H         1 UNK         0.0897 
    128 H128      -46.3862  -22.2699   12.7180 H         1 UNK         0.0792 
    129 H129      -46.5426  -21.0790   14.0022 H         1 UNK         0.0792 
    130 H130      -47.4957  -20.9138   12.5351 H         1 UNK         0.0792 
    131 H131      -48.5810  -23.1513   11.9141 H         1 UNK         0.3086 
    132 H132      -51.4104  -25.2955   12.2582 H         1 UNK         0.0583 
    133 H133      -52.4070  -23.2222   11.4455 H         1 UNK         0.1020 
    134 H134      -50.9450  -22.7476   10.6303 H         1 UNK         0.1020 
    135 H135      -53.4644  -25.4618   11.0713 H         1 UNK         0.0694 
    136 H136      -54.3059  -25.3476    9.5418 H         1 UNK         0.0694 
    137 H137      -49.4707  -24.9986   10.1935 H         1 UNK         0.2989 
    138 H138      -47.0954  -27.3232   11.4783 H         1 UNK         0.1055 
    139 H139      -47.5211  -28.2990    9.2067 H         1 UNK         0.0806 
    140 H140      -49.1381  -27.5921    9.2070 H         1 UNK         0.0806 
    141 H141      -48.7055  -28.8122   10.3983 H         1 UNK         0.0806 
    142 H142      -47.3956  -25.7343    9.0637 H         1 UNK         0.3061 
    143 H143      -45.5654  -22.9272   10.3014 H         1 UNK         0.0734 
    144 H144      -44.6952  -25.1007    8.3154 H         1 UNK         0.0832 
    145 H145      -44.0756  -23.4496    8.3839 H         1 UNK         0.0832 
    146 H146      -43.7660  -24.5610    9.7067 H         1 UNK         0.0832 
    147 H147      -46.5593  -23.5457    7.7066 H         1 UNK         0.3156 
    148 H148      -49.9445  -22.7965    8.1474 H         1 UNK         0.0589 
    149 H149      -49.6533  -20.8827    6.6099 H         1 UNK         0.0808 
    150 H150      -47.9224  -20.8298    6.9513 H         1 UNK         0.0808 
    151 H151      -49.0866  -20.4490    8.2123 H         1 UNK         0.0808 
    152 H152      -48.5698  -22.9419    5.7351 H         1 UNK         0.3098 
    153 H153      -49.2519  -24.8523    4.5122 H         1 UNK         0.0720 
    154 H154      -46.9006  -24.1518    4.5344 H         1 UNK         0.0791 
    155 H155      -47.0141  -25.6773    3.6788 H         1 UNK         0.0791 
    156 H156      -46.4016  -25.6321    5.3309 H         1 UNK         0.0791 
    157 H157      -49.9192  -26.9254    4.6493 H         1 UNK         0.3028 
@<TRIPOS>BOND
     1    1    2 1    
     2    1   82 1    
     3    1   83 1    
     4    1   84 1    
     5    2    3 2    
     6    2    4 am   BACKBONE|DICT|INTERRES
     7    4    5 1    
     8    4   85 1    
     9    5    6 1    
    10    5   80 1    
    11    5   86 1    
    12    6    7 1    
    13    6   87 1    
    14    6   88 1    
    15    7    8 1    
    16    8    9 1    
    17    8   89 1    
    18    8   90 1    
    19    9   10 ar   
    20    9   14 ar   
    21   10   11 ar   
    22   10   91 1    
    23   11   12 ar   
    24   11   58 1    
    25   12   13 ar   
    26   12   92 1    
    27   13   14 ar   
    28   13   15 1    
    29   14   93 1    
    30   15   16 1    
    31   15   94 1    
    32   15   95 1    
    33   16   17 1    
    34   17   18 1    
    35   17   96 1    
    36   17   97 1    
    37   18   19 1    
    38   18   22 1    
    39   18   98 1    
    40   19   20 am   BACKBONE|DICT|INTERRES
    41   19   21 2    
    42   20   99 1    
    43   20  100 1    
    44   22   23 am   BACKBONE|DICT|INTERRES
    45   22  101 1    
    46   23   24 2    
    47   23   25 1    
    48   25   26 1    
    49   25   27 1    
    50   25  102 1    
    51   26  103 1    
    52   26  104 1    
    53   26  105 1    
    54   27   28 am   BACKBONE|DICT|INTERRES
    55   27  106 1    
    56   28   29 2    
    57   28   30 1    
    58   30   31 1    
    59   30   32 1    
    60   30  107 1    
    61   31  108 1    
    62   31  109 1    
    63   31  110 1    
    64   32   33 am   BACKBONE|DICT|INTERRES
    65   32  111 1    
    66   33   34 2    
    67   33   35 1    
    68   35   36 1    
    69   35   37 1    
    70   35  112 1    
    71   36  113 1    
    72   36  114 1    
    73   36  115 1    
    74   37   38 am   BACKBONE|DICT|INTERRES
    75   37  116 1    
    76   38   39 2    
    77   38   40 1    
    78   40   41 1    
    79   40   42 1    
    80   40  117 1    
    81   41  118 1    
    82   41  119 1    
    83   41  120 1    
    84   42   43 am   BACKBONE|DICT|INTERRES
    85   42  121 1    
    86   43   44 2    
    87   43   45 1    
    88   45   46 1    
    89   45   47 1    
    90   45  122 1    
    91   46  123 1    
    92   46  124 1    
    93   46  125 1    
    94   47   48 am   BACKBONE|DICT|INTERRES
    95   47  126 1    
    96   48   49 2    
    97   48   50 1    
    98   50   51 1    
    99   50   52 1    
   100   50  127 1    
   101   51  128 1    
   102   51  129 1    
   103   51  130 1    
   104   52   53 am   BACKBONE|DICT|INTERRES
   105   52  131 1    
   106   53   54 2    
   107   53   55 1    
   108   55   56 1    
   109   55   59 1    
   110   55  132 1    
   111   56   57 1    
   112   56  133 1    
   113   56  134 1    
   114   57   58 1    
   115   58  135 1    
   116   58  136 1    
   117   59   60 am   BACKBONE|DICT|INTERRES
   118   59  137 1    
   119   60   61 2    
   120   60   62 1    
   121   62   63 1    
   122   62   64 1    
   123   62  138 1    
   124   63  139 1    
   125   63  140 1    
   126   63  141 1    
   127   64   65 am   BACKBONE|DICT|INTERRES
   128   64  142 1    
   129   65   66 2    
   130   65   67 1    
   131   67   68 1    
   132   67   69 1    
   133   67  143 1    
   134   68  144 1    
   135   68  145 1    
   136   68  146 1    
   137   69   70 am   BACKBONE|DICT|INTERRES
   138   69  147 1    
   139   70   71 2    
   140   70   72 1    
   141   72   73 1    
   142   72   74 1    
   143   72  148 1    
   144   73  149 1    
   145   73  150 1    
   146   73  151 1    
   147   74   75 am   BACKBONE|DICT|INTERRES
   148   74  152 1    
   149   75   76 2    
   150   75   77 1    
   151   77   78 1    
   152   77   79 1    
   153   77  153 1    
   154   78  154 1    
   155   78  155 1    
   156   78  156 1    
   157   79   80 am   BACKBONE|DICT|INTERRES
   158   79  157 1    
   159   80   81 2    
@<TRIPOS>SUBSTRUCTURE
     1 UNK         1 GROUP             0       ****    0 ROOT    
