@<TRIPOS>MOLECULE
3R207
157   159    1
SMALL
USER_CHARGES


@<TRIPOS>ATOM
      1 CA        -50.0143  -29.7189    0.6067 C.3       0 UNK        -0.1975 
      2 C         -49.9045  -29.1128    1.9983 C.2       0 UNK         0.4852 
      3 O         -50.6123  -28.1516    2.3036 O.2       0 UNK        -0.5216 
      4 N         -49.0299  -29.6721    2.8448 N.am      1 UNK        -0.4461 
      5 CA        -48.7412  -29.1775    4.1945 C.3       1 UNK         0.0864 
      6 C6        -48.1329  -30.2990    5.0770 C.3       14 UNK        -0.0898 
      7 S7        -48.4286  -30.0165    6.8532 S.3       14 UNK        -0.2598 
      8 C8        -50.1078  -30.6910    7.0418 C.3       14 UNK         0.0286 
      9 C9        -50.9141  -29.8952    8.0572 C.ar      14 UNK        -0.0844 
     10 C10       -51.4507  -28.6526    7.7026 C.ar      14 UNK        -0.0881 
     11 C11       -52.2316  -27.9294    8.6093 C.ar      14 UNK        -0.0643 
     12 C12       -52.4809  -28.4624    9.8743 C.ar      14 UNK        -0.0930 
     13 C13       -51.9437  -29.6975   10.2451 C.ar      14 UNK        -0.0827 
     14 C14       -51.1548  -30.4090    9.3357 C.ar      14 UNK        -0.1249 
     15 C15       -52.2418  -30.2621   11.6227 C.3       14 UNK         0.0141 
     16 S16       -53.7803  -31.2295   11.5983 S.3       14 UNK        -0.2313 
     17 C17       -54.2289  -31.2375   13.3643 C.3       14 UNK        -0.0915 
     18 CA        -55.3782  -30.2445   13.6914 C.3       13 UNK         0.0968 
     19 C         -55.9328  -30.4985   15.1150 C.2       13 UNK         0.5732 
     20 N         -56.8782  -31.4165   15.2589 N.am      13 UNK        -0.7310 
     21 O         -55.4936  -29.8944   16.0924 O.2       13 UNK        -0.5035 
     22 N         -54.9469  -28.8463   13.5850 N.am      13 UNK        -0.4233 
     23 C         -55.2431  -27.9980   12.5948 C.2       13 UNK         0.4989 
     24 O         -55.8728  -28.3080   11.5825 O.2       13 UNK        -0.4996 
     25 CA        -54.7376  -26.5520   12.7798 C.3       12 UNK         0.0216 
     26 CB        -55.3172  -25.5643   11.7452 C.3       12 UNK        -0.1964 
     27 N         -54.9316  -26.0522   14.1474 N.am      12 UNK        -0.4276 
     28 C         -56.0924  -25.9254   14.8123 C.2       12 UNK         0.5020 
     29 O         -57.1935  -26.1818   14.3235 O.2       12 UNK        -0.5489 
     30 CA        -56.0243  -25.4584   16.2794 C.3       11 UNK         0.0294 
     31 CB        -56.7277  -26.4637   17.2081 C.3       11 UNK        -0.2019 
     32 N         -54.6510  -25.2761   16.7522 N.am      11 UNK        -0.4493 
     33 C         -53.9368  -24.1497   16.6707 C.2       11 UNK         0.4932 
     34 O         -54.3715  -23.0958   16.2072 O.2       11 UNK        -0.5029 
     35 CA        -52.4845  -24.2164   17.1726 C.3       10 UNK         0.0280 
     36 CB        -52.4222  -24.2612   18.7117 C.3       10 UNK        -0.1976 
     37 N         -51.6821  -25.2898   16.5664 N.am      10 UNK        -0.4242 
     38 C         -51.8146  -26.6221   16.6767 C.2       10 UNK         0.5072 
     39 O         -52.7052  -27.1662   17.3308 O.2       10 UNK        -0.5224 
     40 CA        -50.8144  -27.5138   15.9143 C.3       9 UNK         0.0343 
     41 CB        -51.5042  -28.2104   14.7320 C.3       9 UNK        -0.2003 
     42 N         -49.6377  -26.7961   15.4208 N.am      9 UNK        -0.4272 
     43 C         -48.6366  -26.3579   16.1968 C.2       9 UNK         0.4988 
     44 O         -48.5548  -26.5848   17.4044 O.2       9 UNK        -0.5108 
     45 CA        -47.5632  -25.4893   15.5204 C.3       8 UNK         0.0248 
     46 CB        -46.4553  -26.3747   14.9290 C.3       8 UNK        -0.2001 
     47 N         -48.1000  -24.5938   14.4869 N.am      8 UNK        -0.4140 
     48 C         -48.9974  -23.6217   14.7153 C.2       8 UNK         0.5028 
     49 O         -49.4605  -23.3706   15.8272 O.2       8 UNK        -0.5428 
     50 CA        -49.4957  -22.8117   13.5081 C.3       7 UNK         0.0264 
     51 CB        -48.4498  -21.7711   13.0778 C.3       7 UNK        -0.1988 
     52 N         -49.8572  -23.6498   12.3654 N.am      7 UNK        -0.4454 
     53 C         -50.8575  -24.5451   12.3444 C.2       7 UNK         0.5027 
     54 O         -51.6277  -24.7471   13.2850 O.2       7 UNK        -0.5083 
     55 CA        -50.9813  -25.3893   11.0586 C.3       6 UNK         0.0844 
     56 C56       -51.7219  -24.5935    9.9489 C.3       14 UNK        -0.0967 
     57 S57       -51.5773  -25.2684    8.2563 S.3       14 UNK        -0.2604 
     58 C58       -52.8257  -26.5879    8.2091 C.3       14 UNK         0.0134 
     59 N         -49.6758  -25.9078   10.6435 N.am      6 UNK        -0.4116 
     60 C         -48.9087  -26.7266   11.3788 C.2       5 UNK         0.5034 
     61 O         -49.2289  -27.1744   12.4805 O.2       5 UNK        -0.5045 
     62 CA        -47.5203  -27.0492   10.8127 C.3       5 UNK         0.0224 
     63 CB        -47.6089  -28.1834    9.7826 C.3       5 UNK        -0.1978 
     64 N         -46.8952  -25.8672   10.2122 N.am      5 UNK        -0.4737 
     65 C         -46.4322  -24.8296   10.9259 C.2       4 UNK         0.5027 
     66 O         -46.4528  -24.7873   12.1539 O.2       4 UNK        -0.5211 
     67 CA        -45.8911  -23.6161   10.1522 C.3       4 UNK         0.0297 
     68 CB        -44.4038  -23.8116    9.8191 C.3       4 UNK        -0.1993 
     69 N         -46.6344  -23.3369    8.9241 N.am      4 UNK        -0.4486 
     70 C         -47.9351  -23.0178    8.8665 C.2       3 UNK         0.4961 
     71 O         -48.6502  -22.8630    9.8568 O.2       3 UNK        -0.5105 
     72 CA        -48.5496  -22.8970    7.4608 C.3       3 UNK         0.0299 
     73 CB        -48.4834  -21.4420    6.9714 C.3       3 UNK        -0.1972 
     74 N         -47.9341  -23.7812    6.4606 N.am      3 UNK        -0.4305 
     75 C         -47.8781  -25.1177    6.5494 C.2       2 UNK         0.5006 
     76 O         -48.2930  -25.7643    7.5138 O.2       2 UNK        -0.5106 
     77 CA        -47.1957  -25.8590    5.3988 C.3       2 UNK         0.0296 
     78 CB        -45.7026  -26.0798    5.7069 C.3       2 UNK        -0.2002 
     79 N         -47.8776  -27.1374    5.2372 N.am      2 UNK        -0.4032 
     80 C         -47.8542  -27.9120    4.1485 C.2       1 UNK         0.5000 
     81 O         -47.1714  -27.6664    3.1487 O.2       1 UNK        -0.5238 
     82 H82       -49.3456  -30.5699    0.4782 H         1 UNK         0.0889 
     83 H83       -49.7629  -28.9735   -0.1474 H         1 UNK         0.0889 
     84 H84       -51.0336  -30.0584    0.4245 H         1 UNK         0.0889 
     85 H85       -48.4493  -30.4336    2.5236 H         1 UNK         0.3028 
     86 H86       -49.6987  -28.8811    4.6291 H         1 UNK         0.0864 
     87 H87       -48.5664  -31.2677    4.8215 H         1 UNK         0.0720 
     88 H88       -47.0596  -30.4021    4.9045 H         1 UNK         0.0720 
     89 H89       -50.6330  -30.6755    6.0857 H         1 UNK         0.0814 
     90 H90       -50.0399  -31.7401    7.3337 H         1 UNK         0.0814 
     91 H91       -51.2647  -28.2471    6.7177 H         1 UNK         0.1469 
     92 H92       -53.1050  -27.9199   10.5680 H         1 UNK         0.1381 
     93 H93       -50.7474  -31.3706    9.6166 H         1 UNK         0.1206 
     94 H94       -52.3357  -29.4431   12.3350 H         1 UNK         0.0813 
     95 H95       -51.4185  -30.8870   11.9719 H         1 UNK         0.0813 
     96 H96       -53.3481  -31.0326   13.9758 H         1 UNK         0.0638 
     97 H97       -54.5295  -32.2592   13.6039 H         1 UNK         0.0638 
     98 H98       -56.2014  -30.4195   12.9955 H         1 UNK         0.0568 
     99 H99       -57.2369  -31.9272   14.4671 H         1 UNK         0.3450 
    100 H100      -57.2409  -31.6025   16.1807 H         1 UNK         0.3450 
    101 H101      -54.5103  -28.4864   14.4215 H         1 UNK         0.2987 
    102 H102      -53.6600  -26.5892   12.6210 H         1 UNK         0.0766 
    103 H103      -54.8994  -24.5660   11.8750 H         1 UNK         0.0798 
    104 H104      -56.4021  -25.4870   11.8225 H         1 UNK         0.0798 
    105 H105      -55.0887  -25.8819   10.7280 H         1 UNK         0.0798 
    106 H106      -54.0916  -25.7778   14.6375 H         1 UNK         0.3198 
    107 H107      -56.5578  -24.5074   16.3399 H         1 UNK         0.0843 
    108 H108      -56.2488  -27.4433   17.1777 H         1 UNK         0.0831 
    109 H109      -57.7712  -26.6021   16.9220 H         1 UNK         0.0831 
    110 H110      -56.7213  -26.1196   18.2424 H         1 UNK         0.0831 
    111 H111      -54.1720  -26.0984   17.1190 H         1 UNK         0.3133 
    112 H112      -52.0064  -23.2873   16.8588 H         1 UNK         0.0566 
    113 H113      -51.3917  -24.2191   19.0648 H         1 UNK         0.0814 
    114 H114      -52.9486  -23.4106   19.1466 H         1 UNK         0.0814 
    115 H115      -52.8777  -25.1648   19.1176 H         1 UNK         0.0814 
    116 H116      -50.9178  -24.9496   15.9935 H         1 UNK         0.3091 
    117 H117      -50.4771  -28.2849   16.6101 H         1 UNK         0.0702 
    118 H118      -52.3665  -28.7883   15.0659 H         1 UNK         0.0785 
    119 H119      -51.8475  -27.4918   13.9878 H         1 UNK         0.0785 
    120 H120      -50.8238  -28.9032   14.2363 H         1 UNK         0.0785 
    121 H121      -49.5898  -26.6298   14.4199 H         1 UNK         0.2998 
    122 H122      -47.1171  -24.8614   16.2943 H         1 UNK         0.0697 
    123 H123      -46.8274  -26.9913   14.1103 H         1 UNK         0.0825 
    124 H124      -46.0449  -27.0464   15.6842 H         1 UNK         0.0825 
    125 H125      -45.6286  -25.7746   14.5488 H         1 UNK         0.0825 
    126 H126      -47.7137  -24.7021   13.5513 H         1 UNK         0.3029 
    127 H127      -50.3963  -22.2782   13.8198 H         1 UNK         0.0897 
    128 H128      -48.8255  -21.1426   12.2700 H         1 UNK         0.0792 
    129 H129      -47.5289  -22.2416   12.7324 H         1 UNK         0.0792 
    130 H130      -48.1895  -21.1127   13.9077 H         1 UNK         0.0792 
    131 H131      -49.3093  -23.5191   11.5172 H         1 UNK         0.3086 
    132 H132      -51.5904  -26.2576   11.3086 H         1 UNK         0.0583 
    133 H133      -52.7781  -24.4894   10.2025 H         1 UNK         0.1020 
    134 H134      -51.3360  -23.5734    9.8926 H         1 UNK         0.1020 
    135 H135      -53.6751  -26.3269    8.8407 H         1 UNK         0.0694 
    136 H136      -53.2159  -26.6603    7.1929 H         1 UNK         0.0694 
    137 H137      -49.3433  -25.6131    9.7341 H         1 UNK         0.2989 
    138 H138      -46.8909  -27.3878   11.6385 H         1 UNK         0.1055 
    139 H139      -47.9945  -29.0955   10.2404 H         1 UNK         0.0806 
    140 H140      -46.6336  -28.4190    9.3571 H         1 UNK         0.0806 
    141 H141      -48.2823  -27.9311    8.9635 H         1 UNK         0.0806 
    142 H142      -46.9333  -25.7960    9.2025 H         1 UNK         0.3061 
    143 H143      -45.9847  -22.7426   10.8006 H         1 UNK         0.0734 
    144 H144      -43.9813  -22.9239    9.3481 H         1 UNK         0.0832 
    145 H145      -43.8249  -24.0019   10.7241 H         1 UNK         0.0832 
    146 H146      -44.2461  -24.6572    9.1483 H         1 UNK         0.0832 
    147 H147      -46.1336  -23.4374    8.0538 H         1 UNK         0.3156 
    148 H148      -49.6008  -23.1776    7.5420 H         1 UNK         0.0589 
    149 H149      -47.4545  -21.1061    6.8358 H         1 UNK         0.0808 
    150 H150      -49.0069  -21.3169    6.0234 H         1 UNK         0.0808 
    151 H151      -48.9539  -20.7681    7.6891 H         1 UNK         0.0808 
    152 H152      -47.5544  -23.3341    5.6379 H         1 UNK         0.3098 
    153 H153      -47.3049  -25.2765    4.4815 H         1 UNK         0.0720 
    154 H154      -45.1991  -26.5965    4.8897 H         1 UNK         0.0791 
    155 H155      -45.5633  -26.6730    6.6119 H         1 UNK         0.0791 
    156 H156      -45.1865  -25.1304    5.8535 H         1 UNK         0.0791 
    157 H157      -48.4386  -27.4057    6.0381 H         1 UNK         0.3028 
@<TRIPOS>BOND
     1    1    2 1    
     2    1   82 1    
     3    1   83 1    
     4    1   84 1    
     5    2    3 2    
     6    2    4 am   BACKBONE|DICT|INTERRES
     7    4    5 1    
     8    4   85 1    
     9    5    6 1    
    10    5   80 1    
    11    5   86 1    
    12    6    7 1    
    13    6   87 1    
    14    6   88 1    
    15    7    8 1    
    16    8    9 1    
    17    8   89 1    
    18    8   90 1    
    19    9   10 ar   
    20    9   14 ar   
    21   10   11 ar   
    22   10   91 1    
    23   11   12 ar   
    24   11   58 1    
    25   12   13 ar   
    26   12   92 1    
    27   13   14 ar   
    28   13   15 1    
    29   14   93 1    
    30   15   16 1    
    31   15   94 1    
    32   15   95 1    
    33   16   17 1    
    34   17   18 1    
    35   17   96 1    
    36   17   97 1    
    37   18   19 1    
    38   18   22 1    
    39   18   98 1    
    40   19   20 am   BACKBONE|DICT|INTERRES
    41   19   21 2    
    42   20   99 1    
    43   20  100 1    
    44   22   23 am   BACKBONE|DICT|INTERRES
    45   22  101 1    
    46   23   24 2    
    47   23   25 1    
    48   25   26 1    
    49   25   27 1    
    50   25  102 1    
    51   26  103 1    
    52   26  104 1    
    53   26  105 1    
    54   27   28 am   BACKBONE|DICT|INTERRES
    55   27  106 1    
    56   28   29 2    
    57   28   30 1    
    58   30   31 1    
    59   30   32 1    
    60   30  107 1    
    61   31  108 1    
    62   31  109 1    
    63   31  110 1    
    64   32   33 am   BACKBONE|DICT|INTERRES
    65   32  111 1    
    66   33   34 2    
    67   33   35 1    
    68   35   36 1    
    69   35   37 1    
    70   35  112 1    
    71   36  113 1    
    72   36  114 1    
    73   36  115 1    
    74   37   38 am   BACKBONE|DICT|INTERRES
    75   37  116 1    
    76   38   39 2    
    77   38   40 1    
    78   40   41 1    
    79   40   42 1    
    80   40  117 1    
    81   41  118 1    
    82   41  119 1    
    83   41  120 1    
    84   42   43 am   BACKBONE|DICT|INTERRES
    85   42  121 1    
    86   43   44 2    
    87   43   45 1    
    88   45   46 1    
    89   45   47 1    
    90   45  122 1    
    91   46  123 1    
    92   46  124 1    
    93   46  125 1    
    94   47   48 am   BACKBONE|DICT|INTERRES
    95   47  126 1    
    96   48   49 2    
    97   48   50 1    
    98   50   51 1    
    99   50   52 1    
   100   50  127 1    
   101   51  128 1    
   102   51  129 1    
   103   51  130 1    
   104   52   53 am   BACKBONE|DICT|INTERRES
   105   52  131 1    
   106   53   54 2    
   107   53   55 1    
   108   55   56 1    
   109   55   59 1    
   110   55  132 1    
   111   56   57 1    
   112   56  133 1    
   113   56  134 1    
   114   57   58 1    
   115   58  135 1    
   116   58  136 1    
   117   59   60 am   BACKBONE|DICT|INTERRES
   118   59  137 1    
   119   60   61 2    
   120   60   62 1    
   121   62   63 1    
   122   62   64 1    
   123   62  138 1    
   124   63  139 1    
   125   63  140 1    
   126   63  141 1    
   127   64   65 am   BACKBONE|DICT|INTERRES
   128   64  142 1    
   129   65   66 2    
   130   65   67 1    
   131   67   68 1    
   132   67   69 1    
   133   67  143 1    
   134   68  144 1    
   135   68  145 1    
   136   68  146 1    
   137   69   70 am   BACKBONE|DICT|INTERRES
   138   69  147 1    
   139   70   71 2    
   140   70   72 1    
   141   72   73 1    
   142   72   74 1    
   143   72  148 1    
   144   73  149 1    
   145   73  150 1    
   146   73  151 1    
   147   74   75 am   BACKBONE|DICT|INTERRES
   148   74  152 1    
   149   75   76 2    
   150   75   77 1    
   151   77   78 1    
   152   77   79 1    
   153   77  153 1    
   154   78  154 1    
   155   78  155 1    
   156   78  156 1    
   157   79   80 am   BACKBONE|DICT|INTERRES
   158   79  157 1    
   159   80   81 2    
@<TRIPOS>SUBSTRUCTURE
     1 UNK         1 GROUP             0       ****    0 ROOT    
