@<TRIPOS>MOLECULE
3R207
157   159    1
SMALL
USER_CHARGES


@<TRIPOS>ATOM
      1 CA        -49.6505  -21.5531    5.5387 C.3       0 UNK        -0.1975 
      2 C         -49.4394  -23.0088    5.9270 C.2       0 UNK         0.4852 
      3 O         -48.4102  -23.3390    6.5165 O.2       0 UNK        -0.5216 
      4 N         -50.4111  -23.8759    5.6106 N.am      1 UNK        -0.4461 
      5 CA        -50.3775  -25.3175    5.8842 C.3       1 UNK         0.0864 
      6 C6        -51.7660  -25.9811    5.6931 C.3       14 UNK        -0.0898 
      7 S7        -53.1026  -25.2077    6.6700 S.3       14 UNK        -0.2598 
      8 C8        -52.6143  -25.5648    8.3898 C.3       14 UNK         0.0286 
      9 C9        -52.5722  -27.0561    8.6905 C.ar      14 UNK        -0.0844 
     10 C10       -51.3505  -27.7344    8.7441 C.ar      14 UNK        -0.0881 
     11 C11       -51.3145  -29.1093    8.9912 C.ar      14 UNK        -0.0643 
     12 C12       -52.5108  -29.7945    9.2306 C.ar      14 UNK        -0.0930 
     13 C13       -53.7415  -29.1295    9.1950 C.ar      14 UNK        -0.0827 
     14 C14       -53.7610  -27.7580    8.9123 C.ar      14 UNK        -0.1249 
     15 C15       -55.0281  -29.9367    9.3852 C.3       14 UNK         0.0141 
     16 S16       -56.4213  -29.0220   10.1352 S.3       14 UNK        -0.2313 
     17 C17       -55.9229  -28.9409   11.8859 C.3       14 UNK        -0.0915 
     18 CA        -56.7860  -29.8407   12.8080 C.3       13 UNK         0.0968 
     19 C         -56.3614  -31.3332   12.7157 C.2       13 UNK         0.5732 
     20 N         -57.0108  -32.1165   11.8657 N.am      13 UNK        -0.7310 
     21 O         -55.4274  -31.7736   13.3836 O.2       13 UNK        -0.5035 
     22 N         -56.7555  -29.3389   14.1891 N.am      13 UNK        -0.4233 
     23 C         -57.5488  -29.7641   15.1816 C.2       13 UNK         0.4989 
     24 O         -58.4826  -30.5508   15.0192 O.2       13 UNK        -0.4996 
     25 CA        -57.2550  -29.2427   16.6009 C.3       12 UNK         0.0216 
     26 CB        -56.6216  -30.3552   17.4537 C.3       12 UNK        -0.1964 
     27 N         -56.3693  -28.0742   16.6176 N.am      12 UNK        -0.4276 
     28 C         -56.7780  -26.8008   16.5194 C.2       12 UNK         0.5020 
     29 O         -57.9580  -26.4619   16.4242 O.2       12 UNK        -0.5489 
     30 CA        -55.6756  -25.7277   16.5083 C.3       11 UNK         0.0294 
     31 CB        -55.2364  -25.3798   17.9397 C.3       11 UNK        -0.2019 
     32 N         -54.5137  -26.1656   15.7327 N.am      11 UNK        -0.4493 
     33 C         -54.4570  -26.1938   14.3973 C.2       11 UNK         0.4932 
     34 O         -55.3408  -25.7175   13.6842 O.2       11 UNK        -0.5029 
     35 CA        -53.2534  -26.9172   13.7507 C.3       10 UNK         0.0280 
     36 CB        -53.1390  -26.6189   12.2424 C.3       10 UNK        -0.1976 
     37 N         -51.9448  -26.6746   14.3721 N.am      10 UNK        -0.4242 
     38 C         -51.5252  -27.0232   15.5964 C.2       10 UNK         0.5072 
     39 O         -52.2470  -27.5602   16.4387 O.2       10 UNK        -0.5224 
     40 CA        -50.0532  -26.7373   15.9480 C.3       9 UNK         0.0343 
     41 CB        -49.1920  -27.9855   15.6968 C.3       9 UNK        -0.2003 
     42 N         -49.4841  -25.6048   15.2117 N.am      9 UNK        -0.4272 
     43 C         -49.7265  -24.3160   15.4912 C.2       9 UNK         0.4988 
     44 O         -50.4385  -23.9409   16.4234 O.2       9 UNK        -0.5108 
     45 CA        -49.0635  -23.2640   14.5816 C.3       8 UNK         0.0248 
     46 CB        -47.6269  -22.9750   15.0458 C.3       8 UNK        -0.2001 
     47 N         -49.0530  -23.6521   13.1693 N.am      8 UNK        -0.4140 
     48 C         -50.1500  -23.7713   12.4085 C.2       8 UNK         0.5028 
     49 O         -51.2804  -23.4646   12.7868 O.2       8 UNK        -0.5428 
     50 CA        -49.9702  -24.3758   11.0036 C.3       7 UNK         0.0264 
     51 CB        -49.6472  -23.2860    9.9715 C.3       7 UNK        -0.1988 
     52 N         -48.9608  -25.4388   10.9371 N.am      7 UNK        -0.4454 
     53 C         -49.0212  -26.5794   11.6419 C.2       7 UNK         0.5027 
     54 O         -49.9328  -26.8482   12.4177 O.2       7 UNK        -0.5083 
     55 CA        -47.8369  -27.5523   11.5223 C.3       6 UNK         0.0844 
     56 C56       -47.9311  -28.4370   10.2557 C.3       14 UNK        -0.0967 
     57 S57       -49.0784  -29.8390   10.4963 S.3       14 UNK        -0.2604 
     58 C58       -49.9988  -29.8748    8.9279 C.3       14 UNK         0.0134 
     59 N         -46.5693  -26.8293   11.6193 N.am      6 UNK        -0.4116 
     60 C         -46.1046  -26.2777   12.7506 C.2       5 UNK         0.5034 
     61 O         -46.6566  -26.3858   13.8459 O.2       5 UNK        -0.5045 
     62 CA        -44.8320  -25.4225   12.6300 C.3       5 UNK         0.0224 
     63 CB        -43.5759  -26.3011   12.7399 C.3       5 UNK        -0.1978 
     64 N         -44.7851  -24.6520   11.3838 N.am      5 UNK        -0.4737 
     65 C         -45.6425  -23.6699   11.0714 C.2       4 UNK         0.5027 
     66 O         -46.5256  -23.2703   11.8284 O.2       4 UNK        -0.5211 
     67 CA        -45.5290  -23.0720    9.6588 C.3       4 UNK         0.0297 
     68 CB        -44.5386  -21.8973    9.6511 C.3       4 UNK        -0.1993 
     69 N         -45.1436  -24.0504    8.6349 N.am      4 UNK        -0.4486 
     70 C         -45.8525  -25.1409    8.3158 C.2       3 UNK         0.4961 
     71 O         -46.8962  -25.4828    8.8836 O.2       3 UNK        -0.5105 
     72 CA        -45.2704  -26.0347    7.2176 C.3       3 UNK         0.0299 
     73 CB        -44.2692  -27.0432    7.8119 C.3       3 UNK        -0.1972 
     74 N         -46.3875  -26.7314    6.5970 N.am      3 UNK        -0.4305 
     75 C         -46.3939  -27.3611    5.4164 C.2       2 UNK         0.5006 
     76 O         -45.4053  -27.4772    4.6914 O.2       2 UNK        -0.5106 
     77 CA        -47.7386  -27.9629    4.9659 C.3       2 UNK         0.0296 
     78 CB        -47.8290  -29.4394    5.3857 C.3       2 UNK        -0.2002 
     79 N         -48.8834  -27.2256    5.5130 N.am      2 UNK        -0.4032 
     80 C         -49.3007  -26.0400    5.0447 C.2       1 UNK         0.5000 
     81 O         -48.8745  -25.5301    4.0040 O.2       1 UNK        -0.5238 
     82 H82       -50.6079  -21.3979    5.0417 H         1 UNK         0.0889 
     83 H83       -48.8600  -21.2278    4.8630 H         1 UNK         0.0889 
     84 H84       -49.6224  -20.9215    6.4262 H         1 UNK         0.0889 
     85 H85       -51.2296  -23.5486    5.1182 H         1 UNK         0.3028 
     86 H86       -50.0796  -25.4296    6.9276 H         1 UNK         0.0864 
     87 H87       -52.0614  -25.9355    4.6430 H         1 UNK         0.0720 
     88 H88       -51.7328  -27.0426    5.9444 H         1 UNK         0.0720 
     89 H89       -53.3236  -25.0824    9.0642 H         1 UNK         0.0814 
     90 H90       -51.6503  -25.0997    8.5880 H         1 UNK         0.0814 
     91 H91       -50.4296  -27.1970    8.5744 H         1 UNK         0.1469 
     92 H92       -52.4842  -30.8598    9.4152 H         1 UNK         0.1381 
     93 H93       -54.7020  -27.2294    8.8517 H         1 UNK         0.1206 
     94 H94       -55.3467  -30.2947    8.4056 H         1 UNK         0.0813 
     95 H95       -54.8331  -30.8264    9.9860 H         1 UNK         0.0813 
     96 H96       -56.0515  -27.8980   12.1765 H         1 UNK         0.0638 
     97 H97       -54.8581  -29.1572   11.9926 H         1 UNK         0.0638 
     98 H98       -57.8255  -29.7640   12.4821 H         1 UNK         0.0568 
     99 H99       -56.7416  -33.0844   11.7869 H         1 UNK         0.3450 
    100 H100      -57.7640  -31.7571   11.3004 H         1 UNK         0.3450 
    101 H101      -56.0124  -28.6987   14.4147 H         1 UNK         0.2987 
    102 H102      -58.2122  -28.9740   17.0534 H         1 UNK         0.0766 
    103 H103      -56.4573  -30.0245   18.4795 H         1 UNK         0.0798 
    104 H104      -55.6635  -30.6820   17.0473 H         1 UNK         0.0798 
    105 H105      -57.2709  -31.2309   17.4988 H         1 UNK         0.0798 
    106 H106      -55.3798  -28.2536   16.7150 H         1 UNK         0.3198 
    107 H107      -56.0870  -24.8260   16.0487 H         1 UNK         0.0843 
    108 H108      -56.0848  -25.0401   18.5355 H         1 UNK         0.0831 
    109 H109      -54.4979  -24.5778   17.9422 H         1 UNK         0.0831 
    110 H110      -54.7997  -26.2379   18.4522 H         1 UNK         0.0831 
    111 H111      -53.7387  -26.5949   16.2369 H         1 UNK         0.3133 
    112 H112      -53.4583  -27.9841   13.8539 H         1 UNK         0.0566 
    113 H113      -52.4121  -27.2733   11.7615 H         1 UNK         0.0814 
    114 H114      -54.0811  -26.7696   11.7174 H         1 UNK         0.0814 
    115 H115      -52.8386  -25.5874   12.0625 H         1 UNK         0.0814 
    116 H116      -51.2293  -26.3334   13.7363 H         1 UNK         0.3091 
    117 H117      -50.0105  -26.5085   17.0150 H         1 UNK         0.0702 
    118 H118      -48.1562  -27.8190   15.9936 H         1 UNK         0.0785 
    119 H119      -49.1953  -28.2738   14.6450 H         1 UNK         0.0785 
    120 H120      -49.5616  -28.8369   16.2698 H         1 UNK         0.0785 
    121 H121      -48.8719  -25.8297   14.4373 H         1 UNK         0.2998 
    122 H122      -49.6399  -22.3405   14.6689 H         1 UNK         0.0697 
    123 H123      -46.9903  -23.8566   14.9638 H         1 UNK         0.0825 
    124 H124      -47.6100  -22.6551   16.0885 H         1 UNK         0.0825 
    125 H125      -47.1721  -22.1797   14.4548 H         1 UNK         0.0825 
    126 H126      -48.1455  -23.8180   12.7417 H         1 UNK         0.3029 
    127 H127      -50.9244  -24.8304   10.7360 H         1 UNK         0.0897 
    128 H128      -49.5256  -23.7066    8.9739 H         1 UNK         0.0792 
    129 H129      -50.4496  -22.5490    9.9196 H         1 UNK         0.0792 
    130 H130      -48.7316  -22.7519   10.2235 H         1 UNK         0.0792 
    131 H131      -48.1780  -25.2970   10.3031 H         1 UNK         0.3086 
    132 H132      -47.8762  -28.2146   12.3906 H         1 UNK         0.0583 
    133 H133      -48.2038  -27.8507    9.3774 H         1 UNK         0.1020 
    134 H134      -46.9545  -28.8683   10.0297 H         1 UNK         0.1020 
    135 H135      -49.3789  -29.4898    8.1191 H         1 UNK         0.0694 
    136 H136      -50.1944  -30.9179    8.6743 H         1 UNK         0.0694 
    137 H137      -46.0956  -26.6249   10.7514 H         1 UNK         0.2989 
    138 H138      -44.8330  -24.7162   13.4635 H         1 UNK         0.1055 
    139 H139      -43.5809  -26.8725   13.6694 H         1 UNK         0.0806 
    140 H140      -42.6682  -25.6973   12.7390 H         1 UNK         0.0806 
    141 H141      -43.5056  -27.0156   11.9187 H         1 UNK         0.0806 
    142 H142      -44.0817  -24.9081   10.7062 H         1 UNK         0.3061 
    143 H143      -46.5132  -22.6875    9.3848 H         1 UNK         0.0734 
    144 H144      -44.8196  -21.1470   10.3918 H         1 UNK         0.0832 
    145 H145      -43.5233  -22.2205    9.8847 H         1 UNK         0.0832 
    146 H146      -44.5197  -21.3995    8.6815 H         1 UNK         0.0832 
    147 H147      -44.2945  -23.8578    8.1225 H         1 UNK         0.3156 
    148 H148      -44.7779  -25.4102    6.4695 H         1 UNK         0.0589 
    149 H149      -44.7413  -27.6926    8.5503 H         1 UNK         0.0808 
    150 H150      -43.8376  -27.6788    7.0386 H         1 UNK         0.0808 
    151 H151      -43.4412  -26.5327    8.3050 H         1 UNK         0.0808 
    152 H152      -47.2478  -26.6358    7.1199 H         1 UNK         0.3098 
    153 H153      -47.7797  -27.9165    3.8753 H         1 UNK         0.0720 
    154 H154      -48.7832  -29.8806    5.0967 H         1 UNK         0.0791 
    155 H155      -47.7077  -29.5653    6.4618 H         1 UNK         0.0791 
    156 H156      -47.0444  -30.0249    4.9044 H         1 UNK         0.0791 
    157 H157      -49.3265  -27.6192    6.3287 H         1 UNK         0.3028 
@<TRIPOS>BOND
     1    1    2 1    
     2    1   82 1    
     3    1   83 1    
     4    1   84 1    
     5    2    3 2    
     6    2    4 am   BACKBONE|DICT|INTERRES
     7    4    5 1    
     8    4   85 1    
     9    5    6 1    
    10    5   80 1    
    11    5   86 1    
    12    6    7 1    
    13    6   87 1    
    14    6   88 1    
    15    7    8 1    
    16    8    9 1    
    17    8   89 1    
    18    8   90 1    
    19    9   10 ar   
    20    9   14 ar   
    21   10   11 ar   
    22   10   91 1    
    23   11   12 ar   
    24   11   58 1    
    25   12   13 ar   
    26   12   92 1    
    27   13   14 ar   
    28   13   15 1    
    29   14   93 1    
    30   15   16 1    
    31   15   94 1    
    32   15   95 1    
    33   16   17 1    
    34   17   18 1    
    35   17   96 1    
    36   17   97 1    
    37   18   19 1    
    38   18   22 1    
    39   18   98 1    
    40   19   20 am   BACKBONE|DICT|INTERRES
    41   19   21 2    
    42   20   99 1    
    43   20  100 1    
    44   22   23 am   BACKBONE|DICT|INTERRES
    45   22  101 1    
    46   23   24 2    
    47   23   25 1    
    48   25   26 1    
    49   25   27 1    
    50   25  102 1    
    51   26  103 1    
    52   26  104 1    
    53   26  105 1    
    54   27   28 am   BACKBONE|DICT|INTERRES
    55   27  106 1    
    56   28   29 2    
    57   28   30 1    
    58   30   31 1    
    59   30   32 1    
    60   30  107 1    
    61   31  108 1    
    62   31  109 1    
    63   31  110 1    
    64   32   33 am   BACKBONE|DICT|INTERRES
    65   32  111 1    
    66   33   34 2    
    67   33   35 1    
    68   35   36 1    
    69   35   37 1    
    70   35  112 1    
    71   36  113 1    
    72   36  114 1    
    73   36  115 1    
    74   37   38 am   BACKBONE|DICT|INTERRES
    75   37  116 1    
    76   38   39 2    
    77   38   40 1    
    78   40   41 1    
    79   40   42 1    
    80   40  117 1    
    81   41  118 1    
    82   41  119 1    
    83   41  120 1    
    84   42   43 am   BACKBONE|DICT|INTERRES
    85   42  121 1    
    86   43   44 2    
    87   43   45 1    
    88   45   46 1    
    89   45   47 1    
    90   45  122 1    
    91   46  123 1    
    92   46  124 1    
    93   46  125 1    
    94   47   48 am   BACKBONE|DICT|INTERRES
    95   47  126 1    
    96   48   49 2    
    97   48   50 1    
    98   50   51 1    
    99   50   52 1    
   100   50  127 1    
   101   51  128 1    
   102   51  129 1    
   103   51  130 1    
   104   52   53 am   BACKBONE|DICT|INTERRES
   105   52  131 1    
   106   53   54 2    
   107   53   55 1    
   108   55   56 1    
   109   55   59 1    
   110   55  132 1    
   111   56   57 1    
   112   56  133 1    
   113   56  134 1    
   114   57   58 1    
   115   58  135 1    
   116   58  136 1    
   117   59   60 am   BACKBONE|DICT|INTERRES
   118   59  137 1    
   119   60   61 2    
   120   60   62 1    
   121   62   63 1    
   122   62   64 1    
   123   62  138 1    
   124   63  139 1    
   125   63  140 1    
   126   63  141 1    
   127   64   65 am   BACKBONE|DICT|INTERRES
   128   64  142 1    
   129   65   66 2    
   130   65   67 1    
   131   67   68 1    
   132   67   69 1    
   133   67  143 1    
   134   68  144 1    
   135   68  145 1    
   136   68  146 1    
   137   69   70 am   BACKBONE|DICT|INTERRES
   138   69  147 1    
   139   70   71 2    
   140   70   72 1    
   141   72   73 1    
   142   72   74 1    
   143   72  148 1    
   144   73  149 1    
   145   73  150 1    
   146   73  151 1    
   147   74   75 am   BACKBONE|DICT|INTERRES
   148   74  152 1    
   149   75   76 2    
   150   75   77 1    
   151   77   78 1    
   152   77   79 1    
   153   77  153 1    
   154   78  154 1    
   155   78  155 1    
   156   78  156 1    
   157   79   80 am   BACKBONE|DICT|INTERRES
   158   79  157 1    
   159   80   81 2    
@<TRIPOS>SUBSTRUCTURE
     1 UNK         1 GROUP             0       ****    0 ROOT    
