@<TRIPOS>MOLECULE
3R207
157   159    1
SMALL
USER_CHARGES


@<TRIPOS>ATOM
      1 CA        -48.8294  -24.0788    4.0489 C.3       0 UNK        -0.1975 
      2 C         -49.5974  -25.0569    4.9246 C.2       0 UNK         0.4852 
      3 O         -49.4157  -25.0603    6.1422 O.2       0 UNK        -0.5216 
      4 N         -50.4540  -25.8890    4.3186 N.am      1 UNK        -0.4461 
      5 CA        -51.2564  -26.9123    4.9972 C.3       1 UNK         0.0864 
      6 C6        -52.2941  -27.5551    4.0442 C.3       14 UNK        -0.0898 
      7 S7        -53.5464  -26.3315    3.5221 S.3       14 UNK        -0.2598 
      8 C8        -55.0737  -26.9373    4.3217 C.3       14 UNK         0.0286 
      9 C9        -54.9031  -27.2624    5.8024 C.ar      14 UNK        -0.0844 
     10 C10       -54.3898  -26.3128    6.6926 C.ar      14 UNK        -0.0881 
     11 C11       -54.1899  -26.6362    8.0383 C.ar      14 UNK        -0.0643 
     12 C12       -54.5523  -27.9032    8.5029 C.ar      14 UNK        -0.0930 
     13 C13       -55.0859  -28.8538    7.6272 C.ar      14 UNK        -0.0827 
     14 C14       -55.2533  -28.5297    6.2786 C.ar      14 UNK        -0.1249 
     15 C15       -55.4725  -30.2314    8.1391 C.3       14 UNK         0.0141 
     16 S16       -53.9999  -31.2763    8.3610 S.3       14 UNK        -0.2313 
     17 C17       -54.6413  -32.5700    9.4802 C.3       14 UNK        -0.0915 
     18 CA        -54.2982  -32.3337   10.9778 C.3       13 UNK         0.0968 
     19 C         -52.7877  -32.5470   11.2887 C.2       13 UNK         0.5732 
     20 N         -52.3304  -33.7920   11.2942 N.am      13 UNK        -0.7310 
     21 O         -52.0263  -31.6055   11.5034 O.2       13 UNK        -0.5035 
     22 N         -54.8138  -31.0369   11.4339 N.am      13 UNK        -0.4233 
     23 C         -54.9413  -30.6557   12.7070 C.2       13 UNK         0.4989 
     24 O         -54.7296  -31.3867   13.6784 O.2       13 UNK        -0.4996 
     25 CA        -55.4298  -29.2192   12.9264 C.3       12 UNK         0.0216 
     26 CB        -56.9627  -29.1810   13.0454 C.3       12 UNK        -0.1964 
     27 N         -54.8367  -28.7093   14.1595 N.am      12 UNK        -0.4276 
     28 C         -54.0064  -27.6655   14.2364 C.2       12 UNK         0.5020 
     29 O         -53.7335  -26.9309   13.2830 O.2       12 UNK        -0.5489 
     30 CA        -53.3592  -27.4328   15.6104 C.3       11 UNK         0.0294 
     31 CB        -52.3349  -28.5399   15.9210 C.3       11 UNK        -0.2019 
     32 N         -52.6566  -26.1548   15.6277 N.am      11 UNK        -0.4493 
     33 C         -53.0924  -25.0194   16.1817 C.2       11 UNK         0.4932 
     34 O         -54.1637  -24.9145   16.7826 O.2       11 UNK        -0.5029 
     35 CA        -52.1498  -23.8048   16.0469 C.3       10 UNK         0.0280 
     36 CB        -52.5486  -22.6194   16.9514 C.3       10 UNK        -0.1976 
     37 N         -50.7379  -24.1647   16.2418 N.am      10 UNK        -0.4242 
     38 C         -50.1829  -24.7105   17.3363 C.2       10 UNK         0.5072 
     39 O         -50.7850  -24.9134   18.3917 O.2       10 UNK        -0.5224 
     40 CA        -48.7024  -25.1209   17.2414 C.3       9 UNK         0.0343 
     41 CB        -48.5797  -26.6258   16.9563 C.3       9 UNK        -0.2003 
     42 N         -47.9418  -24.3590   16.2433 N.am      9 UNK        -0.4272 
     43 C         -47.5231  -23.1013   16.4497 C.2       9 UNK         0.4988 
     44 O         -47.7851  -22.4497   17.4615 O.2       9 UNK        -0.5108 
     45 CA        -46.6575  -22.4620   15.3601 C.3       8 UNK         0.0248 
     46 CB        -45.2430  -23.0692   15.3534 C.3       8 UNK        -0.2001 
     47 N         -47.2673  -22.6045   14.0369 N.am      8 UNK        -0.4140 
     48 C         -47.8659  -21.6017   13.3811 C.2       8 UNK         0.5028 
     49 O         -48.0419  -20.4781   13.8554 O.2       8 UNK        -0.5428 
     50 CA        -48.3076  -21.8661   11.9349 C.3       7 UNK         0.0264 
     51 CB        -47.1111  -21.7475   10.9764 C.3       7 UNK        -0.1988 
     52 N         -48.9662  -23.1543   11.7248 N.am      7 UNK        -0.4454 
     53 C         -50.2242  -23.4332   12.0947 C.2       7 UNK         0.5027 
     54 O         -50.9086  -22.7054   12.8136 O.2       7 UNK        -0.5083 
     55 CA        -50.8281  -24.7260   11.5142 C.3       6 UNK         0.0844 
     56 C56       -51.1522  -24.5188   10.0105 C.3       14 UNK        -0.0967 
     57 S57       -51.7790  -26.0131    9.1798 S.3       14 UNK        -0.2604 
     58 C58       -53.5455  -25.6335    8.9818 C.3       14 UNK         0.0134 
     59 N         -49.9307  -25.8555   11.7558 N.am      6 UNK        -0.4116 
     60 C         -49.7989  -26.4757   12.9349 C.2       5 UNK         0.5034 
     61 O         -50.4489  -26.1893   13.9378 O.2       5 UNK        -0.5045 
     62 CA        -48.7104  -27.5579   13.0338 C.3       5 UNK         0.0224 
     63 CB        -49.2259  -28.9085   12.5205 C.3       5 UNK        -0.1978 
     64 N         -47.4859  -27.1835   12.3245 N.am      5 UNK        -0.4737 
     65 C         -46.7321  -26.1267   12.6597 C.2       4 UNK         0.5027 
     66 O         -46.9557  -25.4161   13.6408 O.2       4 UNK        -0.5211 
     67 CA        -45.5698  -25.7609   11.7220 C.3       4 UNK         0.0297 
     68 CB        -44.2641  -26.3996   12.2183 C.3       4 UNK        -0.1993 
     69 N         -45.7910  -26.1222   10.3167 N.am      4 UNK        -0.4486 
     70 C         -46.8107  -25.7027    9.5535 C.2       3 UNK         0.4961 
     71 O         -47.7123  -24.9707    9.9635 O.2       3 UNK        -0.5105 
     72 CA        -46.8481  -26.1731    8.0903 C.3       3 UNK         0.0299 
     73 CB        -45.5581  -26.8760    7.6080 C.3       3 UNK        -0.1972 
     74 N         -48.0271  -26.9996    7.8131 N.am      3 UNK        -0.4305 
     75 C         -48.3389  -28.1875    8.3587 C.2       2 UNK         0.5006 
     76 O         -47.6778  -28.7109    9.2578 O.2       2 UNK        -0.5106 
     77 CA        -49.5737  -28.9357    7.8075 C.3       2 UNK         0.0296 
     78 CB        -50.4291  -29.5563    8.9252 C.3       2 UNK        -0.2002 
     79 N         -50.4297  -28.0884    6.9759 N.am      2 UNK        -0.4032 
     80 C         -50.3459  -27.9730    5.6449 C.2       1 UNK         0.5000 
     81 O         -49.5741  -28.6269    4.9388 O.2       1 UNK        -0.5238 
     82 H82       -49.0898  -24.1830    2.9957 H         1 UNK         0.0889 
     83 H83       -47.7577  -24.2461    4.1525 H         1 UNK         0.0889 
     84 H84       -49.0459  -23.0552    4.3529 H         1 UNK         0.0889 
     85 H85       -50.5617  -25.8495    3.3154 H         1 UNK         0.3028 
     86 H86       -51.7986  -26.4072    5.7984 H         1 UNK         0.0864 
     87 H87       -51.8047  -27.9554    3.1544 H         1 UNK         0.0720 
     88 H88       -52.7889  -28.4040    4.5195 H         1 UNK         0.0720 
     89 H89       -55.4211  -27.8142    3.7730 H         1 UNK         0.0814 
     90 H90       -55.8524  -26.1815    4.2129 H         1 UNK         0.0814 
     91 H91       -54.1102  -25.3341    6.3268 H         1 UNK         0.1469 
     92 H92       -54.3929  -28.1543    9.5423 H         1 UNK         0.1381 
     93 H93       -55.6524  -29.2695    5.5979 H         1 UNK         0.1206 
     94 H94       -56.0149  -30.1255    9.0787 H         1 UNK         0.0813 
     95 H95       -56.1578  -30.7240    7.4474 H         1 UNK         0.0813 
     96 H96       -54.2519  -33.5330    9.1454 H         1 UNK         0.0638 
     97 H97       -55.7232  -32.6402    9.3580 H         1 UNK         0.0638 
     98 H98       -54.8330  -33.0930   11.5519 H         1 UNK         0.0568 
     99 H99       -51.3537  -33.9505   11.4847 H         1 UNK         0.3450 
    100 H100      -52.9393  -34.5746   11.1139 H         1 UNK         0.3450 
    101 H101      -54.9680  -30.3603   10.7041 H         1 UNK         0.2987 
    102 H102      -55.1280  -28.6109   12.0708 H         1 UNK         0.0766 
    103 H103      -57.3203  -28.1638   13.2062 H         1 UNK         0.0798 
    104 H104      -57.3207  -29.7960   13.8722 H         1 UNK         0.0798 
    105 H105      -57.4360  -29.5502   12.1345 H         1 UNK         0.0798 
    106 H106      -54.9466  -29.3082   14.9671 H         1 UNK         0.3198 
    107 H107      -54.1419  -27.4447   16.3720 H         1 UNK         0.0843 
    108 H108      -52.8084  -29.5211   15.9700 H         1 UNK         0.0831 
    109 H109      -51.8489  -28.3690   16.8819 H         1 UNK         0.0831 
    110 H110      -51.5555  -28.5912   15.1594 H         1 UNK         0.0831 
    111 H111      -51.8105  -26.1193   15.0578 H         1 UNK         0.3133 
    112 H112      -52.2389  -23.4715   15.0128 H         1 UNK         0.0566 
    113 H113      -51.8738  -21.7742   16.8162 H         1 UNK         0.0814 
    114 H114      -53.5549  -22.2709   16.7163 H         1 UNK         0.0814 
    115 H115      -52.5382  -22.8924   18.0070 H         1 UNK         0.0814 
    116 H116      -50.1555  -24.0918   15.4193 H         1 UNK         0.3091 
    117 H117      -48.2502  -24.9368   18.2187 H         1 UNK         0.0702 
    118 H118      -47.5436  -26.9250   16.7970 H         1 UNK         0.0785 
    119 H119      -49.1588  -26.9175   16.0831 H         1 UNK         0.0785 
    120 H120      -48.9614  -27.2072   17.7965 H         1 UNK         0.0785 
    121 H121      -47.6695  -24.8368   15.3883 H         1 UNK         0.2998 
    122 H122      -46.5472  -21.4049   15.6120 H         1 UNK         0.0697 
    123 H123      -45.2509  -24.1390   15.1454 H         1 UNK         0.0825 
    124 H124      -44.7583  -22.9323   16.3209 H         1 UNK         0.0825 
    125 H125      -44.6117  -22.5896   14.6054 H         1 UNK         0.0825 
    126 H126      -47.2050  -23.5240   13.6091 H         1 UNK         0.3029 
    127 H127      -49.0218  -21.0833   11.6687 H         1 UNK         0.0897 
    128 H128      -47.4264  -21.8362    9.9365 H         1 UNK         0.0792 
    129 H129      -46.6178  -20.7804   11.0839 H         1 UNK         0.0792 
    130 H130      -46.3633  -22.5181   11.1639 H         1 UNK         0.0792 
    131 H131      -48.4835  -23.8186   11.1200 H         1 UNK         0.3086 
    132 H132      -51.7691  -24.9215   12.0344 H         1 UNK         0.0583 
    133 H133      -51.8731  -23.7080    9.8893 H         1 UNK         0.1020 
    134 H134      -50.2629  -24.2056    9.4595 H         1 UNK         0.1020 
    135 H135      -54.0352  -25.6602    9.9567 H         1 UNK         0.0694 
    136 H136      -53.6663  -24.6207    8.5945 H         1 UNK         0.0694 
    137 H137      -49.3024  -26.0945   11.0007 H         1 UNK         0.2989 
    138 H138      -48.4543  -27.6778   14.0868 H         1 UNK         0.1055 
    139 H139      -50.1484  -29.1979   13.0263 H         1 UNK         0.0806 
    140 H140      -48.4989  -29.7027   12.6898 H         1 UNK         0.0806 
    141 H141      -49.4371  -28.8718   11.4544 H         1 UNK         0.0806 
    142 H142      -47.2532  -27.7044   11.4880 H         1 UNK         0.3061 
    143 H143      -45.4530  -24.6767   11.7643 H         1 UNK         0.0734 
    144 H144      -44.0660  -26.1249   13.2556 H         1 UNK         0.0832 
    145 H145      -44.3034  -27.4887   12.1718 H         1 UNK         0.0832 
    146 H146      -43.4089  -26.0671   11.6296 H         1 UNK         0.0832 
    147 H147      -45.1133  -26.7418    9.8965 H         1 UNK         0.3156 
    148 H148      -46.9666  -25.2687    7.4920 H         1 UNK         0.0589 
    149 H149      -45.3709  -27.8135    8.1328 H         1 UNK         0.0808 
    150 H150      -45.6182  -27.1059    6.5441 H         1 UNK         0.0808 
    151 H151      -44.6849  -26.2361    7.7431 H         1 UNK         0.0808 
    152 H152      -48.6747  -26.5839    7.1494 H         1 UNK         0.3098 
    153 H153      -49.1862  -29.7582    7.2031 H         1 UNK         0.0720 
    154 H154      -49.8462  -30.2485    9.5339 H         1 UNK         0.0791 
    155 H155      -51.2605  -30.1253    8.5111 H         1 UNK         0.0791 
    156 H156      -50.8464  -28.7999    9.5892 H         1 UNK         0.0791 
    157 H157      -51.0661  -27.4820    7.4801 H         1 UNK         0.3028 
@<TRIPOS>BOND
     1    1    2 1    
     2    1   82 1    
     3    1   83 1    
     4    1   84 1    
     5    2    3 2    
     6    2    4 am   BACKBONE|DICT|INTERRES
     7    4    5 1    
     8    4   85 1    
     9    5    6 1    
    10    5   80 1    
    11    5   86 1    
    12    6    7 1    
    13    6   87 1    
    14    6   88 1    
    15    7    8 1    
    16    8    9 1    
    17    8   89 1    
    18    8   90 1    
    19    9   10 ar   
    20    9   14 ar   
    21   10   11 ar   
    22   10   91 1    
    23   11   12 ar   
    24   11   58 1    
    25   12   13 ar   
    26   12   92 1    
    27   13   14 ar   
    28   13   15 1    
    29   14   93 1    
    30   15   16 1    
    31   15   94 1    
    32   15   95 1    
    33   16   17 1    
    34   17   18 1    
    35   17   96 1    
    36   17   97 1    
    37   18   19 1    
    38   18   22 1    
    39   18   98 1    
    40   19   20 am   BACKBONE|DICT|INTERRES
    41   19   21 2    
    42   20   99 1    
    43   20  100 1    
    44   22   23 am   BACKBONE|DICT|INTERRES
    45   22  101 1    
    46   23   24 2    
    47   23   25 1    
    48   25   26 1    
    49   25   27 1    
    50   25  102 1    
    51   26  103 1    
    52   26  104 1    
    53   26  105 1    
    54   27   28 am   BACKBONE|DICT|INTERRES
    55   27  106 1    
    56   28   29 2    
    57   28   30 1    
    58   30   31 1    
    59   30   32 1    
    60   30  107 1    
    61   31  108 1    
    62   31  109 1    
    63   31  110 1    
    64   32   33 am   BACKBONE|DICT|INTERRES
    65   32  111 1    
    66   33   34 2    
    67   33   35 1    
    68   35   36 1    
    69   35   37 1    
    70   35  112 1    
    71   36  113 1    
    72   36  114 1    
    73   36  115 1    
    74   37   38 am   BACKBONE|DICT|INTERRES
    75   37  116 1    
    76   38   39 2    
    77   38   40 1    
    78   40   41 1    
    79   40   42 1    
    80   40  117 1    
    81   41  118 1    
    82   41  119 1    
    83   41  120 1    
    84   42   43 am   BACKBONE|DICT|INTERRES
    85   42  121 1    
    86   43   44 2    
    87   43   45 1    
    88   45   46 1    
    89   45   47 1    
    90   45  122 1    
    91   46  123 1    
    92   46  124 1    
    93   46  125 1    
    94   47   48 am   BACKBONE|DICT|INTERRES
    95   47  126 1    
    96   48   49 2    
    97   48   50 1    
    98   50   51 1    
    99   50   52 1    
   100   50  127 1    
   101   51  128 1    
   102   51  129 1    
   103   51  130 1    
   104   52   53 am   BACKBONE|DICT|INTERRES
   105   52  131 1    
   106   53   54 2    
   107   53   55 1    
   108   55   56 1    
   109   55   59 1    
   110   55  132 1    
   111   56   57 1    
   112   56  133 1    
   113   56  134 1    
   114   57   58 1    
   115   58  135 1    
   116   58  136 1    
   117   59   60 am   BACKBONE|DICT|INTERRES
   118   59  137 1    
   119   60   61 2    
   120   60   62 1    
   121   62   63 1    
   122   62   64 1    
   123   62  138 1    
   124   63  139 1    
   125   63  140 1    
   126   63  141 1    
   127   64   65 am   BACKBONE|DICT|INTERRES
   128   64  142 1    
   129   65   66 2    
   130   65   67 1    
   131   67   68 1    
   132   67   69 1    
   133   67  143 1    
   134   68  144 1    
   135   68  145 1    
   136   68  146 1    
   137   69   70 am   BACKBONE|DICT|INTERRES
   138   69  147 1    
   139   70   71 2    
   140   70   72 1    
   141   72   73 1    
   142   72   74 1    
   143   72  148 1    
   144   73  149 1    
   145   73  150 1    
   146   73  151 1    
   147   74   75 am   BACKBONE|DICT|INTERRES
   148   74  152 1    
   149   75   76 2    
   150   75   77 1    
   151   77   78 1    
   152   77   79 1    
   153   77  153 1    
   154   78  154 1    
   155   78  155 1    
   156   78  156 1    
   157   79   80 am   BACKBONE|DICT|INTERRES
   158   79  157 1    
   159   80   81 2    
@<TRIPOS>SUBSTRUCTURE
     1 UNK         1 GROUP             0       ****    0 ROOT    
