@<TRIPOS>MOLECULE
3R207
157   159    1
SMALL
USER_CHARGES


@<TRIPOS>ATOM
      1 CA        -51.2587  -23.5927    4.4601 C.3       0 UNK        -0.1975 
      2 C         -50.9285  -25.0432    4.1398 C.2       0 UNK         0.4852 
      3 O         -50.3629  -25.3210    3.0822 O.2       0 UNK        -0.5216 
      4 N         -51.2815  -25.9588    5.0519 N.am      1 UNK        -0.4461 
      5 CA        -51.0056  -27.4002    5.0111 C.3       1 UNK         0.0864 
      6 C6        -51.6840  -28.1140    3.8055 C.3       14 UNK        -0.0898 
      7 S7        -52.4106  -29.7291    4.2507 S.3       14 UNK        -0.2598 
      8 C8        -54.1003  -29.2697    4.7788 C.3       14 UNK         0.0286 
      9 C9        -54.1326  -28.8594    6.2454 C.ar      14 UNK        -0.0844 
     10 C10       -53.9679  -27.5203    6.6128 C.ar      14 UNK        -0.0881 
     11 C11       -53.8617  -27.1632    7.9607 C.ar      14 UNK        -0.0643 
     12 C12       -54.0163  -28.1423    8.9460 C.ar      14 UNK        -0.0930 
     13 C13       -54.2386  -29.4760    8.5920 C.ar      14 UNK        -0.0827 
     14 C14       -54.2843  -29.8304    7.2402 C.ar      14 UNK        -0.1249 
     15 C15       -54.3969  -30.5362    9.6703 C.3       14 UNK         0.0141 
     16 S16       -52.7880  -30.9671   10.3996 S.3       14 UNK        -0.2313 
     17 C17       -53.2559  -32.3032   11.5527 C.3       14 UNK        -0.0915 
     18 CA        -53.2285  -31.8945   13.0501 C.3       13 UNK         0.0968 
     19 C         -51.7869  -31.6253   13.5797 C.2       13 UNK         0.5732 
     20 N         -51.4738  -30.4596   14.1352 N.am      13 UNK        -0.7310 
     21 O         -50.9353  -32.5079   13.5025 O.2       13 UNK        -0.5035 
     22 N         -54.2004  -30.8304   13.3369 N.am      13 UNK        -0.4233 
     23 C         -54.7903  -30.6332   14.5224 C.2       13 UNK         0.4989 
     24 O         -54.6665  -31.3992   15.4801 O.2       13 UNK        -0.4996 
     25 CA        -55.6670  -29.3680   14.6583 C.3       12 UNK         0.0216 
     26 CB        -55.8209  -28.9175   16.1272 C.3       12 UNK        -0.1964 
     27 N         -55.2326  -28.2322   13.8277 N.am      12 UNK        -0.4276 
     28 C         -54.0246  -27.6479   13.8315 C.2       12 UNK         0.5020 
     29 O         -53.0657  -28.0649   14.4829 O.2       12 UNK        -0.5489 
     30 CA        -53.8174  -26.4270   12.9201 C.3       11 UNK         0.0294 
     31 CB        -55.0792  -25.9365   12.1710 C.3       11 UNK        -0.2019 
     32 N         -53.1632  -25.3462   13.6621 N.am      11 UNK        -0.4493 
     33 C         -53.6803  -24.5800   14.6339 C.2       11 UNK         0.4932 
     34 O         -54.8561  -24.6214   15.0008 O.2       11 UNK        -0.5029 
     35 CA        -52.6945  -23.6000   15.3024 C.3       10 UNK         0.0280 
     36 CB        -53.2973  -22.8459   16.5071 C.3       10 UNK        -0.1976 
     37 N         -51.4301  -24.2535   15.6582 N.am      10 UNK        -0.4242 
     38 C         -51.2463  -25.2680   16.5186 C.2       10 UNK         0.5072 
     39 O         -52.1264  -25.7181   17.2536 O.2       10 UNK        -0.5224 
     40 CA        -49.8434  -25.9006   16.5717 C.3       9 UNK         0.0343 
     41 CB        -49.8961  -27.3671   16.1085 C.3       9 UNK        -0.2003 
     42 N         -48.8656  -25.1723   15.7525 N.am      9 UNK        -0.4272 
     43 C         -47.9721  -24.3038   16.2467 C.2       9 UNK         0.4988 
     44 O         -47.8712  -24.0322   17.4439 O.2       9 UNK        -0.5108 
     45 CA        -47.0247  -23.6139   15.2509 C.3       8 UNK         0.0248 
     46 CB        -45.8050  -24.4978   14.9544 C.3       8 UNK        -0.2001 
     47 N         -47.6606  -23.2078   13.9944 N.am      8 UNK        -0.4140 
     48 C         -48.5339  -22.1952   13.8958 C.2       8 UNK         0.5028 
     49 O         -49.0060  -21.5996   14.8642 O.2       8 UNK        -0.5428 
     50 CA        -48.9433  -21.7642   12.4829 C.3       7 UNK         0.0264 
     51 CB        -47.7696  -21.1066   11.7347 C.3       7 UNK        -0.1988 
     52 N         -49.4483  -22.9041   11.7196 N.am      7 UNK        -0.4454 
     53 C         -50.7506  -23.1362   11.5056 C.2       7 UNK         0.5027 
     54 O         -51.6536  -22.4012   11.9068 O.2       7 UNK        -0.5083 
     55 CA        -51.1282  -24.4032   10.7165 C.3       6 UNK         0.0844 
     56 C56       -51.3377  -24.0732    9.2175 C.3       14 UNK        -0.0967 
     57 S57       -51.6824  -25.5550    8.2156 S.3       14 UNK        -0.2604 
     58 C58       -53.4853  -25.7431    8.3513 C.3       14 UNK         0.0134 
     59 N         -50.2225  -25.5373   10.9300 N.am      6 UNK        -0.4116 
     60 C         -50.0454  -26.1724   12.0945 C.2       5 UNK         0.5034 
     61 O         -50.3989  -25.7161   13.1804 O.2       5 UNK        -0.5045 
     62 CA        -49.3821  -27.5518   12.0318 C.3       5 UNK         0.0224 
     63 CB        -50.1423  -28.5005   11.0879 C.3       5 UNK        -0.1978 
     64 N         -48.0032  -27.4032   11.5867 N.am      5 UNK        -0.4737 
     65 C         -46.9429  -27.4109   12.4042 C.2       4 UNK         0.5027 
     66 O         -46.9992  -27.7157   13.5950 O.2       4 UNK        -0.5211 
     67 CA        -45.5875  -26.9861   11.8057 C.3       4 UNK         0.0297 
     68 CB        -44.7440  -28.2249   11.4646 C.3       4 UNK        -0.1993 
     69 N         -45.6989  -26.1395   10.6140 N.am      4 UNK        -0.4486 
     70 C         -46.3071  -24.9459   10.5525 C.2       3 UNK         0.4961 
     71 O         -46.8176  -24.3777   11.5195 O.2       3 UNK        -0.5105 
     72 CA        -46.4367  -24.3174    9.1539 C.3       3 UNK         0.0299 
     73 CB        -45.2404  -23.3980    8.8657 C.3       3 UNK        -0.1972 
     74 N         -46.5819  -25.3023    8.0703 N.am      3 UNK        -0.4305 
     75 C         -47.5874  -26.1841    7.9818 C.2       2 UNK         0.5006 
     76 O         -48.4725  -26.2978    8.8338 O.2       2 UNK        -0.5106 
     77 CA        -47.6121  -27.1169    6.7691 C.3       2 UNK         0.0296 
     78 CB        -47.0621  -28.5065    7.1396 C.3       2 UNK        -0.2002 
     79 N         -49.0068  -27.2019    6.3591 N.am      2 UNK        -0.4032 
     80 C         -49.4944  -27.6494    5.1961 C.2       1 UNK         0.5000 
     81 O         -48.8105  -28.1632    4.3079 O.2       1 UNK        -0.5238 
     82 H82       -51.7451  -23.4886    5.4301 H         1 UNK         0.0889 
     83 H83       -51.9247  -23.1833    3.7010 H         1 UNK         0.0889 
     84 H84       -50.3476  -22.9950    4.4730 H         1 UNK         0.0889 
     85 H85       -51.7010  -25.6387    5.9161 H         1 UNK         0.3028 
     86 H86       -51.4496  -27.7975    5.9230 H         1 UNK         0.0864 
     87 H87       -52.4867  -27.4965    3.4002 H         1 UNK         0.0720 
     88 H88       -50.9918  -28.2507    2.9734 H         1 UNK         0.0720 
     89 H89       -54.7574  -30.1274    4.6271 H         1 UNK         0.0814 
     90 H90       -54.4957  -28.4745    4.1451 H         1 UNK         0.0814 
     91 H91       -53.8463  -26.7670    5.8471 H         1 UNK         0.1469 
     92 H92       -53.9253  -27.8757    9.9888 H         1 UNK         0.1381 
     93 H93       -54.4153  -30.8670    6.9606 H         1 UNK         0.1206 
     94 H94       -54.8577  -31.4337    9.2546 H         1 UNK         0.0813 
     95 H95       -55.0706  -30.1734   10.4475 H         1 UNK         0.0813 
     96 H96       -54.2500  -32.6708   11.2942 H         1 UNK         0.0638 
     97 H97       -52.5853  -33.1466   11.3790 H         1 UNK         0.0638 
     98 H98       -53.5567  -32.7775   13.6016 H         1 UNK         0.0568 
     99 H99       -50.5385  -30.3273   14.4809 H         1 UNK         0.3450 
    100 H100      -52.1553  -29.7116   14.2344 H         1 UNK         0.3450 
    101 H101      -54.3239  -30.1405   12.6134 H         1 UNK         0.2987 
    102 H102      -56.6561  -29.6517   14.2957 H         1 UNK         0.0766 
    103 H103      -56.4641  -28.0413   16.2083 H         1 UNK         0.0798 
    104 H104      -54.8574  -28.6662   16.5728 H         1 UNK         0.0798 
    105 H105      -56.2685  -29.7028   16.7376 H         1 UNK         0.0798 
    106 H106      -55.9477  -27.8222   13.2427 H         1 UNK         0.3198 
    107 H107      -53.0986  -26.7465   12.1649 H         1 UNK         0.0843 
    108 H108      -55.8901  -25.6706   12.8496 H         1 UNK         0.0831 
    109 H109      -55.4580  -26.6961   11.4866 H         1 UNK         0.0831 
    110 H110      -54.8568  -25.0536   11.5719 H         1 UNK         0.0831 
    111 H111      -52.1533  -25.3092   13.5378 H         1 UNK         0.3133 
    112 H112      -52.4456  -22.8550   14.5455 H         1 UNK         0.0566 
    113 H113      -52.5758  -22.1554   16.9437 H         1 UNK         0.0814 
    114 H114      -54.1645  -22.2589   16.2026 H         1 UNK         0.0814 
    115 H115      -53.6282  -23.5272   17.2913 H         1 UNK         0.0814 
    116 H116      -50.6281  -23.9743   15.1113 H         1 UNK         0.3091 
    117 H117      -49.5299  -25.8989   17.6175 H         1 UNK         0.0702 
    118 H118      -50.4906  -27.9690   16.7969 H         1 UNK         0.0785 
    119 H119      -50.3577  -27.4650   15.1268 H         1 UNK         0.0785 
    120 H120      -48.9013  -27.8107   16.0614 H         1 UNK         0.0785 
    121 H121      -48.9028  -25.3419   14.7545 H         1 UNK         0.2998 
    122 H122      -46.6569  -22.7059   15.7342 H         1 UNK         0.0697 
    123 H123      -46.0994  -25.4419   14.5016 H         1 UNK         0.0825 
    124 H124      -45.2624  -24.7335   15.8708 H         1 UNK         0.0825 
    125 H125      -45.1059  -24.0034   14.2795 H         1 UNK         0.0825 
    126 H126      -47.3219  -23.6486   13.1411 H         1 UNK         0.3029 
    127 H127      -49.7206  -21.0037   12.5877 H         1 UNK         0.0897 
    128 H128      -48.0755  -20.7647   10.7460 H         1 UNK         0.0792 
    129 H129      -46.9250  -21.7826   11.6053 H         1 UNK         0.0792 
    130 H130      -47.4042  -20.2347   12.2789 H         1 UNK         0.0792 
    131 H131      -48.7637  -23.5841   11.4086 H         1 UNK         0.3086 
    132 H132      -52.0983  -24.7193   11.1026 H         1 UNK         0.0583 
    133 H133      -52.1493  -23.3542    9.0871 H         1 UNK         0.1020 
    134 H134      -50.4434  -23.6022    8.8041 H         1 UNK         0.1020 
    135 H135      -53.8043  -25.5318    9.3723 H         1 UNK         0.0694 
    136 H136      -53.9853  -25.0197    7.7056 H         1 UNK         0.0694 
    137 H137      -49.8166  -25.9378   10.0877 H         1 UNK         0.2989 
    138 H138      -49.4197  -27.9852   13.0330 H         1 UNK         0.1055 
    139 H139      -51.1922  -28.5705   11.3751 H         1 UNK         0.0806 
    140 H140      -49.7314  -29.5092   11.1321 H         1 UNK         0.0806 
    141 H141      -50.1088  -28.1751   10.0475 H         1 UNK         0.0806 
    142 H142      -47.8742  -27.1043   10.6263 H         1 UNK         0.3061 
    143 H143      -45.0583  -26.4105   12.5672 H         1 UNK         0.0734 
    144 H144      -43.7467  -27.9469   11.1234 H         1 UNK         0.0832 
    145 H145      -44.6175  -28.8629   12.3406 H         1 UNK         0.0832 
    146 H146      -45.2114  -28.8301   10.6866 H         1 UNK         0.0832 
    147 H147      -45.3207  -26.5162    9.7574 H         1 UNK         0.3156 
    148 H148      -47.3404  -23.7041    9.1597 H         1 UNK         0.0589 
    149 H149      -44.3040  -23.9549    8.8136 H         1 UNK         0.0808 
    150 H150      -45.3676  -22.8638    7.9240 H         1 UNK         0.0808 
    151 H151      -45.1292  -22.6461    9.6486 H         1 UNK         0.0808 
    152 H152      -45.8892  -25.2748    7.3351 H         1 UNK         0.3098 
    153 H153      -47.0255  -26.6834    5.9567 H         1 UNK         0.0720 
    154 H154      -47.0815  -29.1841    6.2860 H         1 UNK         0.0791 
    155 H155      -47.6395  -28.9660    7.9433 H         1 UNK         0.0791 
    156 H156      -46.0266  -28.4411    7.4757 H         1 UNK         0.0791 
    157 H157      -49.6420  -26.7895    7.0334 H         1 UNK         0.3028 
@<TRIPOS>BOND
     1    1    2 1    
     2    1   82 1    
     3    1   83 1    
     4    1   84 1    
     5    2    3 2    
     6    2    4 am   BACKBONE|DICT|INTERRES
     7    4    5 1    
     8    4   85 1    
     9    5    6 1    
    10    5   80 1    
    11    5   86 1    
    12    6    7 1    
    13    6   87 1    
    14    6   88 1    
    15    7    8 1    
    16    8    9 1    
    17    8   89 1    
    18    8   90 1    
    19    9   10 ar   
    20    9   14 ar   
    21   10   11 ar   
    22   10   91 1    
    23   11   12 ar   
    24   11   58 1    
    25   12   13 ar   
    26   12   92 1    
    27   13   14 ar   
    28   13   15 1    
    29   14   93 1    
    30   15   16 1    
    31   15   94 1    
    32   15   95 1    
    33   16   17 1    
    34   17   18 1    
    35   17   96 1    
    36   17   97 1    
    37   18   19 1    
    38   18   22 1    
    39   18   98 1    
    40   19   20 am   BACKBONE|DICT|INTERRES
    41   19   21 2    
    42   20   99 1    
    43   20  100 1    
    44   22   23 am   BACKBONE|DICT|INTERRES
    45   22  101 1    
    46   23   24 2    
    47   23   25 1    
    48   25   26 1    
    49   25   27 1    
    50   25  102 1    
    51   26  103 1    
    52   26  104 1    
    53   26  105 1    
    54   27   28 am   BACKBONE|DICT|INTERRES
    55   27  106 1    
    56   28   29 2    
    57   28   30 1    
    58   30   31 1    
    59   30   32 1    
    60   30  107 1    
    61   31  108 1    
    62   31  109 1    
    63   31  110 1    
    64   32   33 am   BACKBONE|DICT|INTERRES
    65   32  111 1    
    66   33   34 2    
    67   33   35 1    
    68   35   36 1    
    69   35   37 1    
    70   35  112 1    
    71   36  113 1    
    72   36  114 1    
    73   36  115 1    
    74   37   38 am   BACKBONE|DICT|INTERRES
    75   37  116 1    
    76   38   39 2    
    77   38   40 1    
    78   40   41 1    
    79   40   42 1    
    80   40  117 1    
    81   41  118 1    
    82   41  119 1    
    83   41  120 1    
    84   42   43 am   BACKBONE|DICT|INTERRES
    85   42  121 1    
    86   43   44 2    
    87   43   45 1    
    88   45   46 1    
    89   45   47 1    
    90   45  122 1    
    91   46  123 1    
    92   46  124 1    
    93   46  125 1    
    94   47   48 am   BACKBONE|DICT|INTERRES
    95   47  126 1    
    96   48   49 2    
    97   48   50 1    
    98   50   51 1    
    99   50   52 1    
   100   50  127 1    
   101   51  128 1    
   102   51  129 1    
   103   51  130 1    
   104   52   53 am   BACKBONE|DICT|INTERRES
   105   52  131 1    
   106   53   54 2    
   107   53   55 1    
   108   55   56 1    
   109   55   59 1    
   110   55  132 1    
   111   56   57 1    
   112   56  133 1    
   113   56  134 1    
   114   57   58 1    
   115   58  135 1    
   116   58  136 1    
   117   59   60 am   BACKBONE|DICT|INTERRES
   118   59  137 1    
   119   60   61 2    
   120   60   62 1    
   121   62   63 1    
   122   62   64 1    
   123   62  138 1    
   124   63  139 1    
   125   63  140 1    
   126   63  141 1    
   127   64   65 am   BACKBONE|DICT|INTERRES
   128   64  142 1    
   129   65   66 2    
   130   65   67 1    
   131   67   68 1    
   132   67   69 1    
   133   67  143 1    
   134   68  144 1    
   135   68  145 1    
   136   68  146 1    
   137   69   70 am   BACKBONE|DICT|INTERRES
   138   69  147 1    
   139   70   71 2    
   140   70   72 1    
   141   72   73 1    
   142   72   74 1    
   143   72  148 1    
   144   73  149 1    
   145   73  150 1    
   146   73  151 1    
   147   74   75 am   BACKBONE|DICT|INTERRES
   148   74  152 1    
   149   75   76 2    
   150   75   77 1    
   151   77   78 1    
   152   77   79 1    
   153   77  153 1    
   154   78  154 1    
   155   78  155 1    
   156   78  156 1    
   157   79   80 am   BACKBONE|DICT|INTERRES
   158   79  157 1    
   159   80   81 2    
@<TRIPOS>SUBSTRUCTURE
     1 UNK         1 GROUP             0       ****    0 ROOT    
