@<TRIPOS>MOLECULE
3R207
157   159    1
SMALL
USER_CHARGES


@<TRIPOS>ATOM
      1 CA        -51.9329  -25.0390    7.9461 C.3       0 UNK        -0.1975 
      2 C         -53.0139  -25.3498    6.9146 C.2       0 UNK         0.4852 
      3 O         -53.8968  -24.5201    6.7020 O.2       0 UNK        -0.5216 
      4 N         -53.0047  -26.5194    6.2603 N.am      1 UNK        -0.4461 
      5 CA        -51.9755  -27.5647    6.3093 C.3       1 UNK         0.0864 
      6 C6        -52.5165  -28.9050    5.7463 C.3       14 UNK        -0.0898 
      7 S7        -53.8030  -29.6657    6.7914 S.3       14 UNK        -0.2598 
      8 C8        -53.0266  -31.2531    7.2451 C.3       14 UNK         0.0286 
      9 C9        -52.2147  -31.1366    8.5267 C.ar      14 UNK        -0.0844 
     10 C10       -50.9336  -30.5746    8.5174 C.ar      14 UNK        -0.0881 
     11 C11       -50.2112  -30.4312    9.7073 C.ar      14 UNK        -0.0643 
     12 C12       -50.7701  -30.8814   10.9070 C.ar      14 UNK        -0.0930 
     13 C13       -52.0359  -31.4735   10.9224 C.ar      14 UNK        -0.0827 
     14 C14       -52.7518  -31.5998    9.7304 C.ar      14 UNK        -0.1249 
     15 C15       -52.6259  -31.9796   12.2281 C.3       14 UNK         0.0141 
     16 S16       -53.4379  -30.6409   13.1495 S.3       14 UNK        -0.2313 
     17 C17       -55.0314  -30.4707   12.2756 C.3       14 UNK        -0.0915 
     18 CA        -55.0731  -29.3318   11.2194 C.3       13 UNK         0.0968 
     19 C         -56.5147  -29.1950   10.6471 C.2       13 UNK         0.5732 
     20 N         -57.2765  -28.1659   11.0057 N.am      13 UNK        -0.7310 
     21 O         -56.9503  -30.0430    9.8723 O.2       13 UNK        -0.5035 
     22 N         -54.5119  -28.0782   11.7369 N.am      13 UNK        -0.4233 
     23 C         -54.2348  -26.9969   10.9991 C.2       13 UNK         0.4989 
     24 O         -54.2738  -26.9852    9.7691 O.2       13 UNK        -0.4996 
     25 CA        -53.8529  -25.7083   11.7565 C.3       12 UNK         0.0216 
     26 CB        -54.4121  -24.4445   11.0710 C.3       12 UNK        -0.1964 
     27 N         -54.2026  -25.7041   13.1860 N.am      12 UNK        -0.4276 
     28 C         -55.4052  -25.8746   13.7552 C.2       12 UNK         0.5020 
     29 O         -56.4323  -26.1128   13.1150 O.2       12 UNK        -0.5489 
     30 CA        -55.4510  -25.8141   15.3000 C.3       11 UNK         0.0294 
     31 CB        -56.8374  -26.1837   15.8607 C.3       11 UNK        -0.2019 
     32 N         -54.4376  -26.6579   15.9521 N.am      11 UNK        -0.4493 
     33 C         -53.1235  -26.4004   16.0024 C.2       11 UNK         0.4932 
     34 O         -52.6232  -25.4060   15.4789 O.2       11 UNK        -0.5029 
     35 CA        -52.2261  -27.4121   16.7299 C.3       10 UNK         0.0280 
     36 CB        -52.5431  -28.8708   16.3438 C.3       10 UNK        -0.1976 
     37 N         -50.8233  -27.1251   16.4285 N.am      10 UNK        -0.4242 
     38 C         -49.7829  -27.4758   17.1927 C.2       10 UNK         0.5072 
     39 O         -49.8935  -28.0425   18.2815 O.2       10 UNK        -0.5224 
     40 CA        -48.3758  -27.1742   16.6501 C.3       9 UNK         0.0343 
     41 CB        -47.9389  -28.2712   15.6650 C.3       9 UNK        -0.2003 
     42 N         -48.2513  -25.8654   16.0060 N.am      9 UNK        -0.4272 
     43 C         -48.2954  -24.6882   16.6478 C.2       9 UNK         0.4988 
     44 O         -48.4719  -24.5728   17.8611 O.2       9 UNK        -0.5108 
     45 CA        -48.0948  -23.4243   15.7940 C.3       8 UNK         0.0248 
     46 CB        -46.6035  -23.1859   15.5055 C.3       8 UNK        -0.2001 
     47 N         -48.8350  -23.5046   14.5357 N.am      8 UNK        -0.4140 
     48 C         -50.1575  -23.3250   14.4278 C.2       8 UNK         0.5028 
     49 O         -50.8593  -22.8958   15.3438 O.2       8 UNK        -0.5428 
     50 CA        -50.8128  -23.6786   13.0796 C.3       7 UNK         0.0264 
     51 CB        -51.0514  -22.4182   12.2325 C.3       7 UNK        -0.1988 
     52 N         -50.0466  -24.6522   12.2946 N.am      7 UNK        -0.4454 
     53 C         -49.9484  -25.9636   12.5664 C.2       7 UNK         0.5027 
     54 O         -50.5207  -26.5155   13.5054 O.2       7 UNK        -0.5083 
     55 CA        -49.0328  -26.7899   11.6380 C.3       6 UNK         0.0844 
     56 C56       -49.8141  -27.2293   10.3741 C.3       14 UNK        -0.0967 
     57 S57       -48.8028  -28.0880    9.1193 S.3       14 UNK        -0.2604 
     58 C58       -48.8186  -29.8134    9.7022 C.3       14 UNK         0.0134 
     59 N         -47.8022  -26.0562   11.3253 N.am      6 UNK        -0.4116 
     60 C         -46.8533  -25.7543   12.2252 C.2       5 UNK         0.5034 
     61 O         -46.9021  -26.0947   13.4064 O.2       5 UNK        -0.5045 
     62 CA        -45.6837  -24.8715   11.7522 C.3       5 UNK         0.0224 
     63 CB        -44.5562  -25.7411   11.1745 C.3       5 UNK        -0.1978 
     64 N         -46.0812  -23.8688   10.7608 N.am      5 UNK        -0.4737 
     65 C         -47.0152  -22.9253   10.9497 C.2       4 UNK         0.5027 
     66 O         -47.5573  -22.7215   12.0336 O.2       4 UNK        -0.5211 
     67 CA        -47.4704  -22.1165    9.7195 C.3       4 UNK         0.0297 
     68 CB        -46.8591  -20.7073    9.7508 C.3       4 UNK        -0.1993 
     69 N         -47.1603  -22.7544    8.4334 N.am      4 UNK        -0.4486 
     70 C         -47.6027  -23.9554    8.0359 C.2       3 UNK         0.4961 
     71 O         -48.3721  -24.6601    8.6961 O.2       3 UNK        -0.5105 
     72 CA        -47.0171  -24.4814    6.7221 C.3       3 UNK         0.0299 
     73 CB        -45.4995  -24.7323    6.8653 C.3       3 UNK        -0.1972 
     74 N         -47.6946  -25.7233    6.3646 N.am      3 UNK        -0.4305 
     75 C         -47.6382  -26.3214    5.1695 C.2       2 UNK         0.5006 
     76 O         -47.0389  -25.8596    4.1973 O.2       2 UNK        -0.5106 
     77 CA        -48.3525  -27.6740    5.0310 C.3       2 UNK         0.0296 
     78 CB        -47.4107  -28.8202    5.4366 C.3       2 UNK        -0.2002 
     79 N         -49.5902  -27.7723    5.8066 N.am      2 UNK        -0.4032 
     80 C         -50.7343  -27.1517    5.4901 C.2       1 UNK         0.5000 
     81 O         -50.8438  -26.3476    4.5604 O.2       1 UNK        -0.5238 
     82 H82       -50.9299  -25.2134    7.5601 H         1 UNK         0.0889 
     83 H83       -52.0886  -25.6530    8.8305 H         1 UNK         0.0889 
     84 H84       -51.9865  -23.9950    8.2539 H         1 UNK         0.0889 
     85 H85       -53.7403  -26.6894    5.5906 H         1 UNK         0.3028 
     86 H86       -51.6746  -27.7150    7.3487 H         1 UNK         0.0864 
     87 H87       -51.7082  -29.6249    5.6092 H         1 UNK         0.0720 
     88 H88       -52.9398  -28.7563    4.7508 H         1 UNK         0.0720 
     89 H89       -52.4038  -31.6298    6.4328 H         1 UNK         0.0814 
     90 H90       -53.8186  -31.9927    7.3733 H         1 UNK         0.0814 
     91 H91       -50.5005  -30.2387    7.5875 H         1 UNK         0.1469 
     92 H92       -50.2194  -30.7777   11.8320 H         1 UNK         0.1381 
     93 H93       -53.7372  -32.0455    9.7436 H         1 UNK         0.1206 
     94 H94       -53.3298  -32.7938   12.0497 H         1 UNK         0.0813 
     95 H95       -51.8320  -32.3985   12.8483 H         1 UNK         0.0813 
     96 H96       -55.2900  -31.4251   11.8139 H         1 UNK         0.0638 
     97 H97       -55.7896  -30.2957   13.0414 H         1 UNK         0.0638 
     98 H98       -54.4441  -29.6242   10.3790 H         1 UNK         0.0568 
     99 H99       -56.9357  -27.4711   11.6623 H         1 UNK         0.3450 
    100 H100      -58.2077  -28.0877   10.6304 H         1 UNK         0.3450 
    101 H101      -54.4451  -28.0072   12.7400 H         1 UNK         0.2987 
    102 H102      -52.7662  -25.6562   11.7067 H         1 UNK         0.0766 
    103 H103      -54.0645  -24.3639   10.0405 H         1 UNK         0.0798 
    104 H104      -55.5023  -24.4517   11.0454 H         1 UNK         0.0798 
    105 H105      -54.0946  -23.5394   11.5886 H         1 UNK         0.0798 
    106 H106      -53.4303  -25.5508   13.8338 H         1 UNK         0.3198 
    107 H107      -55.2534  -24.7753   15.5738 H         1 UNK         0.0843 
    108 H108      -56.8714  -26.0736   16.9447 H         1 UNK         0.0831 
    109 H109      -57.1105  -27.2111   15.6167 H         1 UNK         0.0831 
    110 H110      -57.6119  -25.5348   15.4492 H         1 UNK         0.0831 
    111 H111      -54.7758  -27.5049   16.3857 H         1 UNK         0.3133 
    112 H112      -52.3977  -27.2766   17.7995 H         1 UNK         0.0566 
    113 H113      -52.3765  -29.0345   15.2798 H         1 UNK         0.0814 
    114 H114      -51.9097  -29.5723   16.8868 H         1 UNK         0.0814 
    115 H115      -53.5746  -29.1434   16.5672 H         1 UNK         0.0814 
    116 H116      -50.6656  -26.6432   15.5462 H         1 UNK         0.3091 
    117 H117      -47.6874  -27.1920   17.4978 H         1 UNK         0.0702 
    118 H118      -46.9037  -28.1334   15.3521 H         1 UNK         0.0785 
    119 H119      -48.5607  -28.2785   14.7687 H         1 UNK         0.0785 
    120 H120      -48.0106  -29.2594   16.1214 H         1 UNK         0.0785 
    121 H121      -48.0308  -25.8720   15.0150 H         1 UNK         0.2998 
    122 H122      -48.4666  -22.5691   16.3626 H         1 UNK         0.0697 
    123 H123      -46.1511  -24.0240   14.9757 H         1 UNK         0.0825 
    124 H124      -46.0464  -23.0503   16.4333 H         1 UNK         0.0825 
    125 H125      -46.4546  -22.2898   14.9025 H         1 UNK         0.0825 
    126 H126      -48.3092  -23.7173   13.6960 H         1 UNK         0.3029 
    127 H127      -51.7850  -24.1157   13.3076 H         1 UNK         0.0897 
    128 H128      -50.1182  -21.9113   11.9863 H         1 UNK         0.0792 
    129 H129      -51.6761  -21.7035   12.7700 H         1 UNK         0.0792 
    130 H130      -51.5626  -22.6563   11.2995 H         1 UNK         0.0792 
    131 H131      -49.5056  -24.2803   11.5265 H         1 UNK         0.3086 
    132 H132      -48.7454  -27.6924   12.1817 H         1 UNK         0.0583 
    133 H133      -50.6677  -27.8542   10.6446 H         1 UNK         0.1020 
    134 H134      -50.2297  -26.3517    9.8811 H         1 UNK         0.1020 
    135 H135      -48.1730  -30.4067    9.0533 H         1 UNK         0.0694 
    136 H136      -48.3696  -29.8514   10.6960 H         1 UNK         0.0694 
    137 H137      -47.7187  -25.7128   10.3749 H         1 UNK         0.2989 
    138 H138      -45.2993  -24.3401   12.6253 H         1 UNK         0.1055 
    139 H139      -44.2244  -26.4824   11.9031 H         1 UNK         0.0806 
    140 H140      -43.6864  -25.1398   10.9091 H         1 UNK         0.0806 
    141 H141      -44.8771  -26.2818   10.2830 H         1 UNK         0.0806 
    142 H142      -45.6786  -23.9540    9.8396 H         1 UNK         0.3061 
    143 H143      -48.5563  -22.0210    9.7842 H         1 UNK         0.0734 
    144 H144      -45.7720  -20.7357    9.6665 H         1 UNK         0.0832 
    145 H145      -47.2449  -20.0875    8.9412 H         1 UNK         0.0832 
    146 H146      -47.0994  -20.1992   10.6861 H         1 UNK         0.0832 
    147 H147      -46.5305  -22.2497    7.8255 H         1 UNK         0.3156 
    148 H148      -47.2013  -23.7376    5.9443 H         1 UNK         0.0589 
    149 H149      -45.2870  -25.4763    7.6343 H         1 UNK         0.0808 
    150 H150      -45.0618  -25.0885    5.9328 H         1 UNK         0.0808 
    151 H151      -44.9628  -23.8215    7.1321 H         1 UNK         0.0808 
    152 H152      -48.2330  -26.1342    7.1183 H         1 UNK         0.3098 
    153 H153      -48.6051  -27.8037    3.9761 H         1 UNK         0.0720 
    154 H154      -47.8713  -29.7933    5.2654 H         1 UNK         0.0791 
    155 H155      -47.1295  -28.7614    6.4890 H         1 UNK         0.0791 
    156 H156      -46.4897  -28.7927    4.8525 H         1 UNK         0.0791 
    157 H157      -49.5647  -28.3855    6.6084 H         1 UNK         0.3028 
@<TRIPOS>BOND
     1    1    2 1    
     2    1   82 1    
     3    1   83 1    
     4    1   84 1    
     5    2    3 2    
     6    2    4 am   BACKBONE|DICT|INTERRES
     7    4    5 1    
     8    4   85 1    
     9    5    6 1    
    10    5   80 1    
    11    5   86 1    
    12    6    7 1    
    13    6   87 1    
    14    6   88 1    
    15    7    8 1    
    16    8    9 1    
    17    8   89 1    
    18    8   90 1    
    19    9   10 ar   
    20    9   14 ar   
    21   10   11 ar   
    22   10   91 1    
    23   11   12 ar   
    24   11   58 1    
    25   12   13 ar   
    26   12   92 1    
    27   13   14 ar   
    28   13   15 1    
    29   14   93 1    
    30   15   16 1    
    31   15   94 1    
    32   15   95 1    
    33   16   17 1    
    34   17   18 1    
    35   17   96 1    
    36   17   97 1    
    37   18   19 1    
    38   18   22 1    
    39   18   98 1    
    40   19   20 am   BACKBONE|DICT|INTERRES
    41   19   21 2    
    42   20   99 1    
    43   20  100 1    
    44   22   23 am   BACKBONE|DICT|INTERRES
    45   22  101 1    
    46   23   24 2    
    47   23   25 1    
    48   25   26 1    
    49   25   27 1    
    50   25  102 1    
    51   26  103 1    
    52   26  104 1    
    53   26  105 1    
    54   27   28 am   BACKBONE|DICT|INTERRES
    55   27  106 1    
    56   28   29 2    
    57   28   30 1    
    58   30   31 1    
    59   30   32 1    
    60   30  107 1    
    61   31  108 1    
    62   31  109 1    
    63   31  110 1    
    64   32   33 am   BACKBONE|DICT|INTERRES
    65   32  111 1    
    66   33   34 2    
    67   33   35 1    
    68   35   36 1    
    69   35   37 1    
    70   35  112 1    
    71   36  113 1    
    72   36  114 1    
    73   36  115 1    
    74   37   38 am   BACKBONE|DICT|INTERRES
    75   37  116 1    
    76   38   39 2    
    77   38   40 1    
    78   40   41 1    
    79   40   42 1    
    80   40  117 1    
    81   41  118 1    
    82   41  119 1    
    83   41  120 1    
    84   42   43 am   BACKBONE|DICT|INTERRES
    85   42  121 1    
    86   43   44 2    
    87   43   45 1    
    88   45   46 1    
    89   45   47 1    
    90   45  122 1    
    91   46  123 1    
    92   46  124 1    
    93   46  125 1    
    94   47   48 am   BACKBONE|DICT|INTERRES
    95   47  126 1    
    96   48   49 2    
    97   48   50 1    
    98   50   51 1    
    99   50   52 1    
   100   50  127 1    
   101   51  128 1    
   102   51  129 1    
   103   51  130 1    
   104   52   53 am   BACKBONE|DICT|INTERRES
   105   52  131 1    
   106   53   54 2    
   107   53   55 1    
   108   55   56 1    
   109   55   59 1    
   110   55  132 1    
   111   56   57 1    
   112   56  133 1    
   113   56  134 1    
   114   57   58 1    
   115   58  135 1    
   116   58  136 1    
   117   59   60 am   BACKBONE|DICT|INTERRES
   118   59  137 1    
   119   60   61 2    
   120   60   62 1    
   121   62   63 1    
   122   62   64 1    
   123   62  138 1    
   124   63  139 1    
   125   63  140 1    
   126   63  141 1    
   127   64   65 am   BACKBONE|DICT|INTERRES
   128   64  142 1    
   129   65   66 2    
   130   65   67 1    
   131   67   68 1    
   132   67   69 1    
   133   67  143 1    
   134   68  144 1    
   135   68  145 1    
   136   68  146 1    
   137   69   70 am   BACKBONE|DICT|INTERRES
   138   69  147 1    
   139   70   71 2    
   140   70   72 1    
   141   72   73 1    
   142   72   74 1    
   143   72  148 1    
   144   73  149 1    
   145   73  150 1    
   146   73  151 1    
   147   74   75 am   BACKBONE|DICT|INTERRES
   148   74  152 1    
   149   75   76 2    
   150   75   77 1    
   151   77   78 1    
   152   77   79 1    
   153   77  153 1    
   154   78  154 1    
   155   78  155 1    
   156   78  156 1    
   157   79   80 am   BACKBONE|DICT|INTERRES
   158   79  157 1    
   159   80   81 2    
@<TRIPOS>SUBSTRUCTURE
     1 UNK         1 GROUP             0       ****    0 ROOT    
