@<TRIPOS>MOLECULE
3R207
157   159    1
SMALL
USER_CHARGES


@<TRIPOS>ATOM
      1 CA        -44.9723  -29.1044    4.8930 C.3       0 UNK        -0.1975 
      2 C         -46.3592  -28.5246    4.6594 C.2       0 UNK         0.4852 
      3 O         -46.5171  -27.6348    3.8217 O.2       0 UNK        -0.5216 
      4 N         -47.3664  -29.0204    5.3921 N.am      1 UNK        -0.4461 
      5 CA        -48.7437  -28.5172    5.3600 C.3       1 UNK         0.0864 
      6 C6        -49.7114  -29.4691    6.1069 C.3       14 UNK        -0.0898 
      7 S7        -51.4364  -29.2508    5.5570 S.3       14 UNK        -0.2598 
      8 C8        -52.3486  -30.1937    6.8206 C.3       14 UNK         0.0286 
      9 C9        -52.3000  -29.5425    8.1973 C.ar      14 UNK        -0.0844 
     10 C10       -52.8281  -28.2624    8.3951 C.ar      14 UNK        -0.0881 
     11 C11       -52.8125  -27.6731    9.6631 C.ar      14 UNK        -0.0643 
     12 C12       -52.2740  -28.3802   10.7414 C.ar      14 UNK        -0.0930 
     13 C13       -51.7537  -29.6650   10.5593 C.ar      14 UNK        -0.0827 
     14 C14       -51.7595  -30.2366    9.2839 C.ar      14 UNK        -0.1249 
     15 C15       -51.1947  -30.4412   11.7430 C.3       14 UNK         0.0141 
     16 S16       -52.3655  -31.7017   12.3466 S.3       14 UNK        -0.2313 
     17 C17       -53.7926  -30.6784   12.8406 C.3       14 UNK        -0.0915 
     18 CA        -54.8786  -30.5907   11.7205 C.3       13 UNK         0.0968 
     19 C         -55.9477  -31.7242   11.7658 C.2       13 UNK         0.5732 
     20 N         -55.5665  -32.9370   12.1433 N.am      13 UNK        -0.7310 
     21 O         -57.1101  -31.5319   11.4118 O.2       13 UNK        -0.5035 
     22 N         -55.4468  -29.2392   11.6139 N.am      13 UNK        -0.4233 
     23 C         -56.1571  -28.6156   12.5597 C.2       13 UNK         0.4989 
     24 O         -56.4661  -29.1169   13.6441 O.2       13 UNK        -0.4996 
     25 CA        -56.6074  -27.1806   12.2315 C.3       12 UNK         0.0216 
     26 CB        -58.0335  -27.1785   11.6574 C.3       12 UNK        -0.1964 
     27 N         -56.5621  -26.3305   13.4229 N.am      12 UNK        -0.4276 
     28 C         -55.4346  -25.9781   14.0532 C.2       12 UNK         0.5020 
     29 O         -54.3016  -26.1934   13.6096 O.2       12 UNK        -0.5489 
     30 CA        -55.6034  -25.2983   15.4197 C.3       11 UNK         0.0294 
     31 CB        -56.2671  -26.2641   16.4271 C.3       11 UNK        -0.2019 
     32 N         -54.2769  -24.9111   15.8866 N.am      11 UNK        -0.4493 
     33 C         -53.9660  -24.2066   16.9805 C.2       11 UNK         0.4932 
     34 O         -54.8031  -23.6847   17.7190 O.2       11 UNK        -0.5029 
     35 CA        -52.4630  -24.0661   17.2986 C.3       10 UNK         0.0280 
     36 CB        -52.1802  -23.7938   18.7912 C.3       10 UNK        -0.1976 
     37 N         -51.6717  -25.2001   16.8038 N.am      10 UNK        -0.4242 
     38 C         -51.7494  -26.4866   17.1797 C.2       10 UNK         0.5072 
     39 O         -52.4656  -26.9029   18.0910 O.2       10 UNK        -0.5224 
     40 CA        -50.8930  -27.4902   16.3864 C.3       9 UNK         0.0343 
     41 CB        -51.6870  -28.0492   15.1943 C.3       9 UNK        -0.2003 
     42 N         -49.6319  -26.9239   15.9017 N.am      9 UNK        -0.4272 
     43 C         -48.6048  -26.5691   16.6880 C.2       9 UNK         0.4988 
     44 O         -48.5827  -26.7331   17.9083 O.2       9 UNK        -0.5108 
     45 CA        -47.4063  -25.9017   15.9964 C.3       8 UNK         0.0248 
     46 CB        -46.4995  -26.9490   15.3284 C.3       8 UNK        -0.2001 
     47 N         -47.8389  -24.9121   15.0079 N.am      8 UNK        -0.4140 
     48 C         -48.2804  -23.6830   15.3128 C.2       8 UNK         0.5028 
     49 O         -48.3106  -23.2289   16.4567 O.2       8 UNK        -0.5428 
     50 CA        -48.7802  -22.8095   14.1481 C.3       7 UNK         0.0264 
     51 CB        -47.6293  -21.9675   13.5740 C.3       7 UNK        -0.1988 
     52 N         -49.3983  -23.5823   13.0681 N.am      7 UNK        -0.4454 
     53 C         -50.5641  -24.2381   13.1704 C.2       7 UNK         0.5027 
     54 O         -51.2608  -24.2377   14.1835 O.2       7 UNK        -0.5083 
     55 CA        -50.9986  -25.0692   11.9497 C.3       6 UNK         0.0844 
     56 C56       -51.8122  -24.1948   10.9616 C.3       14 UNK        -0.0967 
     57 S57       -52.2008  -25.0004    9.3684 S.3       14 UNK        -0.2604 
     58 C58       -53.3926  -26.2812    9.8625 C.3       14 UNK         0.0134 
     59 N         -49.8621  -25.7376   11.3135 N.am      6 UNK        -0.4116 
     60 C         -49.0623  -26.6509   11.8713 C.2       5 UNK         0.5034 
     61 O         -49.1654  -27.0218   13.0409 O.2       5 UNK        -0.5045 
     62 CA        -47.9479  -27.2392   10.9881 C.3       5 UNK         0.0224 
     63 CB        -48.5380  -28.1209    9.8710 C.3       5 UNK        -0.1978 
     64 N         -46.9925  -26.2688   10.4265 N.am      5 UNK        -0.4737 
     65 C         -47.2142  -25.2519    9.5795 C.2       4 UNK         0.5027 
     66 O         -48.3333  -24.8465    9.2618 O.2       4 UNK        -0.5211 
     67 CA        -45.9858  -24.5850    8.9402 C.3       4 UNK         0.0297 
     68 CB        -44.6500  -25.3233    9.1725 C.3       4 UNK        -0.1993 
     69 N         -46.2629  -24.4967    7.5116 N.am      4 UNK        -0.4486 
     70 C         -45.8665  -23.5223    6.6848 C.2       3 UNK         0.4961 
     71 O         -45.0921  -22.6214    7.0099 O.2       3 UNK        -0.5105 
     72 CA        -46.4396  -23.5412    5.2515 C.3       3 UNK         0.0299 
     73 CB        -45.4267  -24.1652    4.2783 C.3       3 UNK        -0.1972 
     74 N         -47.7096  -24.2673    5.1534 N.am      3 UNK        -0.4305 
     75 C         -48.8595  -23.8763    5.7241 C.2       2 UNK         0.5006 
     76 O         -49.0195  -22.7587    6.2172 O.2       2 UNK        -0.5106 
     77 CA        -50.0246  -24.8887    5.7830 C.3       2 UNK         0.0296 
     78 CB        -51.2308  -24.3828    4.9735 C.3       2 UNK        -0.2002 
     79 N         -49.7152  -26.2613    5.3594 N.am      2 UNK        -0.4032 
     80 C         -48.8156  -27.0812    5.9212 C.2       1 UNK         0.5000 
     81 O         -48.0510  -26.7439    6.8269 O.2       1 UNK        -0.5238 
     82 H82       -44.5821  -29.5281    3.9681 H         1 UNK         0.0889 
     83 H83       -44.9800  -29.8890    5.6493 H         1 UNK         0.0889 
     84 H84       -44.2910  -28.3209    5.2238 H         1 UNK         0.0889 
     85 H85       -47.1726  -29.7270    6.0866 H         1 UNK         0.3028 
     86 H86       -49.0331  -28.4863    4.3068 H         1 UNK         0.0864 
     87 H87       -49.6413  -29.3372    7.1888 H         1 UNK         0.0720 
     88 H88       -49.4452  -30.5090    5.9101 H         1 UNK         0.0720 
     89 H89       -51.9580  -31.2120    6.8544 H         1 UNK         0.0814 
     90 H90       -53.3909  -30.2774    6.5102 H         1 UNK         0.0814 
     91 H91       -53.2470  -27.7209    7.5578 H         1 UNK         0.1469 
     92 H92       -52.2757  -27.9395   11.7280 H         1 UNK         0.1381 
     93 H93       -51.3599  -31.2319    9.1452 H         1 UNK         0.1206 
     94 H94       -50.2682  -30.9358   11.4484 H         1 UNK         0.0813 
     95 H95       -50.9300  -29.7648   12.5561 H         1 UNK         0.0813 
     96 H96       -53.4170  -29.6871   13.0981 H         1 UNK         0.0638 
     97 H97       -54.2114  -31.0690   13.7697 H         1 UNK         0.0638 
     98 H98       -54.3897  -30.7300   10.7562 H         1 UNK         0.0568 
     99 H99       -56.2405  -33.6861   12.1593 H         1 UNK         0.3450 
    100 H100      -54.6081  -33.1093   12.4071 H         1 UNK         0.3450 
    101 H101      -55.2730  -28.7688   10.7385 H         1 UNK         0.2987 
    102 H102      -55.9330  -26.7559   11.4862 H         1 UNK         0.0766 
    103 H103      -58.3545  -26.1709   11.3923 H         1 UNK         0.0798 
    104 H104      -58.7550  -27.5868   12.3665 H         1 UNK         0.0798 
    105 H105      -58.0904  -27.7843   10.7519 H         1 UNK         0.0798 
    106 H106      -57.4462  -26.1398   13.8713 H         1 UNK         0.3198 
    107 H107      -56.2131  -24.4014   15.2954 H         1 UNK         0.0843 
    108 H108      -55.6652  -27.1624   16.5721 H         1 UNK         0.0831 
    109 H109      -57.2524  -26.5846   16.0878 H         1 UNK         0.0831 
    110 H110      -56.4091  -25.7991   17.4023 H         1 UNK         0.0831 
    111 H111      -53.5331  -25.2533   15.2860 H         1 UNK         0.3133 
    112 H112      -52.1177  -23.1970   16.7369 H         1 UNK         0.0566 
    113 H113      -51.1106  -23.7033   18.9808 H         1 UNK         0.0814 
    114 H114      -52.6459  -22.8617   19.1132 H         1 UNK         0.0814 
    115 H115      -52.5694  -24.5873   19.4297 H         1 UNK         0.0814 
    116 H116      -51.1213  -24.9886   15.9766 H         1 UNK         0.3091 
    117 H117      -50.6558  -28.3196   17.0560 H         1 UNK         0.0702 
    118 H118      -51.1450  -28.8608   14.7108 H         1 UNK         0.0785 
    119 H119      -51.8836  -27.2827   14.4437 H         1 UNK         0.0785 
    120 H120      -52.6513  -28.4480   15.5129 H         1 UNK         0.0785 
    121 H121      -49.5335  -26.8208   14.8948 H         1 UNK         0.2998 
    122 H122      -46.8187  -25.3919   16.7632 H         1 UNK         0.0697 
    123 H123      -47.0214  -27.5105   14.5534 H         1 UNK         0.0825 
    124 H124      -46.1370  -27.6707   16.0617 H         1 UNK         0.0825 
    125 H125      -45.6246  -26.4838   14.8741 H         1 UNK         0.0825 
    126 H126      -47.8822  -25.2177   14.0469 H         1 UNK         0.3029 
    127 H127      -49.5350  -22.1297   14.5503 H         1 UNK         0.0897 
    128 H128      -47.9843  -21.2823   12.8038 H         1 UNK         0.0792 
    129 H129      -47.1637  -21.3620   14.3531 H         1 UNK         0.0792 
    130 H130      -46.8487  -22.5911   13.1363 H         1 UNK         0.0792 
    131 H131      -48.8960  -23.6334   12.1932 H         1 UNK         0.3086 
    132 H132      -51.6579  -25.8514   12.3266 H         1 UNK         0.0583 
    133 H133      -52.7464  -23.8716   11.4259 H         1 UNK         0.1020 
    134 H134      -51.2650  -23.2804   10.7231 H         1 UNK         0.1020 
    135 H135      -53.6936  -26.1369   10.9007 H         1 UNK         0.0694 
    136 H136      -54.2981  -26.1704    9.2643 H         1 UNK         0.0694 
    137 H137      -49.6368  -25.4478   10.3629 H         1 UNK         0.2989 
    138 H138      -47.3575  -27.8915   11.6340 H         1 UNK         0.1055 
    139 H139      -47.7565  -28.5340    9.2333 H         1 UNK         0.0806 
    140 H140      -49.2280  -27.5681    9.2313 H         1 UNK         0.0806 
    141 H141      -49.0866  -28.9620   10.2911 H         1 UNK         0.0806 
    142 H142      -46.0242  -26.4733   10.6316 H         1 UNK         0.3061 
    143 H143      -45.9155  -23.5794    9.3598 H         1 UNK         0.0734 
    144 H144      -43.8302  -24.8150    8.6645 H         1 UNK         0.0832 
    145 H145      -44.3903  -25.3561   10.2311 H         1 UNK         0.0832 
    146 H146      -44.6817  -26.3475    8.7977 H         1 UNK         0.0832 
    147 H147      -46.9453  -25.1777    7.1799 H         1 UNK         0.3156 
    148 H148      -46.6153  -22.5066    4.9498 H         1 UNK         0.0589 
    149 H149      -45.2125  -25.2046    4.5308 H         1 UNK         0.0808 
    150 H150      -44.4803  -23.6230    4.2999 H         1 UNK         0.0808 
    151 H151      -45.7919  -24.1377    3.2515 H         1 UNK         0.0808 
    152 H152      -47.6644  -25.2013    4.7702 H         1 UNK         0.3098 
    153 H153      -50.3220  -24.9447    6.8325 H         1 UNK         0.0720 
    154 H154      -51.5276  -23.3830    5.2939 H         1 UNK         0.0791 
    155 H155      -52.0979  -25.0303    5.1072 H         1 UNK         0.0791 
    156 H156      -51.0072  -24.3312    3.9073 H         1 UNK         0.0791 
    157 H157      -50.2945  -26.6332    4.6203 H         1 UNK         0.3028 
@<TRIPOS>BOND
     1    1    2 1    
     2    1   82 1    
     3    1   83 1    
     4    1   84 1    
     5    2    3 2    
     6    2    4 am   BACKBONE|DICT|INTERRES
     7    4    5 1    
     8    4   85 1    
     9    5    6 1    
    10    5   80 1    
    11    5   86 1    
    12    6    7 1    
    13    6   87 1    
    14    6   88 1    
    15    7    8 1    
    16    8    9 1    
    17    8   89 1    
    18    8   90 1    
    19    9   10 ar   
    20    9   14 ar   
    21   10   11 ar   
    22   10   91 1    
    23   11   12 ar   
    24   11   58 1    
    25   12   13 ar   
    26   12   92 1    
    27   13   14 ar   
    28   13   15 1    
    29   14   93 1    
    30   15   16 1    
    31   15   94 1    
    32   15   95 1    
    33   16   17 1    
    34   17   18 1    
    35   17   96 1    
    36   17   97 1    
    37   18   19 1    
    38   18   22 1    
    39   18   98 1    
    40   19   20 am   BACKBONE|DICT|INTERRES
    41   19   21 2    
    42   20   99 1    
    43   20  100 1    
    44   22   23 am   BACKBONE|DICT|INTERRES
    45   22  101 1    
    46   23   24 2    
    47   23   25 1    
    48   25   26 1    
    49   25   27 1    
    50   25  102 1    
    51   26  103 1    
    52   26  104 1    
    53   26  105 1    
    54   27   28 am   BACKBONE|DICT|INTERRES
    55   27  106 1    
    56   28   29 2    
    57   28   30 1    
    58   30   31 1    
    59   30   32 1    
    60   30  107 1    
    61   31  108 1    
    62   31  109 1    
    63   31  110 1    
    64   32   33 am   BACKBONE|DICT|INTERRES
    65   32  111 1    
    66   33   34 2    
    67   33   35 1    
    68   35   36 1    
    69   35   37 1    
    70   35  112 1    
    71   36  113 1    
    72   36  114 1    
    73   36  115 1    
    74   37   38 am   BACKBONE|DICT|INTERRES
    75   37  116 1    
    76   38   39 2    
    77   38   40 1    
    78   40   41 1    
    79   40   42 1    
    80   40  117 1    
    81   41  118 1    
    82   41  119 1    
    83   41  120 1    
    84   42   43 am   BACKBONE|DICT|INTERRES
    85   42  121 1    
    86   43   44 2    
    87   43   45 1    
    88   45   46 1    
    89   45   47 1    
    90   45  122 1    
    91   46  123 1    
    92   46  124 1    
    93   46  125 1    
    94   47   48 am   BACKBONE|DICT|INTERRES
    95   47  126 1    
    96   48   49 2    
    97   48   50 1    
    98   50   51 1    
    99   50   52 1    
   100   50  127 1    
   101   51  128 1    
   102   51  129 1    
   103   51  130 1    
   104   52   53 am   BACKBONE|DICT|INTERRES
   105   52  131 1    
   106   53   54 2    
   107   53   55 1    
   108   55   56 1    
   109   55   59 1    
   110   55  132 1    
   111   56   57 1    
   112   56  133 1    
   113   56  134 1    
   114   57   58 1    
   115   58  135 1    
   116   58  136 1    
   117   59   60 am   BACKBONE|DICT|INTERRES
   118   59  137 1    
   119   60   61 2    
   120   60   62 1    
   121   62   63 1    
   122   62   64 1    
   123   62  138 1    
   124   63  139 1    
   125   63  140 1    
   126   63  141 1    
   127   64   65 am   BACKBONE|DICT|INTERRES
   128   64  142 1    
   129   65   66 2    
   130   65   67 1    
   131   67   68 1    
   132   67   69 1    
   133   67  143 1    
   134   68  144 1    
   135   68  145 1    
   136   68  146 1    
   137   69   70 am   BACKBONE|DICT|INTERRES
   138   69  147 1    
   139   70   71 2    
   140   70   72 1    
   141   72   73 1    
   142   72   74 1    
   143   72  148 1    
   144   73  149 1    
   145   73  150 1    
   146   73  151 1    
   147   74   75 am   BACKBONE|DICT|INTERRES
   148   74  152 1    
   149   75   76 2    
   150   75   77 1    
   151   77   78 1    
   152   77   79 1    
   153   77  153 1    
   154   78  154 1    
   155   78  155 1    
   156   78  156 1    
   157   79   80 am   BACKBONE|DICT|INTERRES
   158   79  157 1    
   159   80   81 2    
@<TRIPOS>SUBSTRUCTURE
     1 UNK         1 GROUP             0       ****    0 ROOT    
