@<TRIPOS>MOLECULE
3R207
157   159    1
SMALL
USER_CHARGES


@<TRIPOS>ATOM
      1 CA        -47.7208  -25.1703    1.0281 C.3       0 UNK        -0.1975 
      2 C         -48.3565  -25.2566    2.4075 C.2       0 UNK         0.4852 
      3 O         -48.1514  -24.3668    3.2357 O.2       0 UNK        -0.5216 
      4 N         -49.1236  -26.3233    2.6705 N.am      1 UNK        -0.4461 
      5 CA        -49.8050  -26.5855    3.9424 C.3       1 UNK         0.0864 
      6 C6        -51.0480  -27.4880    3.7273 C.3       14 UNK        -0.0898 
      7 S7        -52.1269  -27.5887    5.2015 S.3       14 UNK        -0.2598 
      8 C8        -52.1888  -29.3902    5.4632 C.3       14 UNK         0.0286 
      9 C9        -52.2994  -29.7440    6.9372 C.ar      14 UNK        -0.0844 
     10 C10       -51.1409  -29.9829    7.6801 C.ar      14 UNK        -0.0881 
     11 C11       -51.2174  -30.3536    9.0273 C.ar      14 UNK        -0.0643 
     12 C12       -52.4756  -30.4923    9.6247 C.ar      14 UNK        -0.0930 
     13 C13       -53.6434  -30.2565    8.8917 C.ar      14 UNK        -0.0827 
     14 C14       -53.5486  -29.8761    7.5490 C.ar      14 UNK        -0.1249 
     15 C15       -55.0108  -30.4513    9.5310 C.3       14 UNK         0.0141 
     16 S16       -55.6030  -28.9334   10.3384 S.3       14 UNK        -0.2313 
     17 C17       -55.1830  -29.2616   12.0829 C.3       14 UNK        -0.0915 
     18 CA        -55.6083  -28.0843   13.0067 C.3       13 UNK         0.0968 
     19 C         -57.1318  -28.0073   13.3157 C.2       13 UNK         0.5732 
     20 N         -57.5783  -26.9301   13.9492 N.am      13 UNK        -0.7310 
     21 O         -57.9075  -28.9080   13.0027 O.2       13 UNK        -0.5035 
     22 N         -54.7933  -27.9892   14.2255 N.am      13 UNK        -0.4233 
     23 C         -54.7726  -28.8500   15.2527 C.2       13 UNK         0.4989 
     24 O         -55.3665  -29.9282   15.2640 O.2       13 UNK        -0.4996 
     25 CA        -53.9537  -28.4325   16.4894 C.3       12 UNK         0.0216 
     26 CB        -52.6306  -29.2110   16.5592 C.3       12 UNK        -0.1964 
     27 N         -53.6735  -26.9924   16.4984 N.am      12 UNK        -0.4276 
     28 C         -54.4933  -26.0701   17.0234 C.2       12 UNK         0.5020 
     29 O         -55.4991  -26.3394   17.6811 O.2       12 UNK        -0.5489 
     30 CA        -54.1613  -24.5976   16.7282 C.3       11 UNK         0.0294 
     31 CB        -53.1202  -24.0642   17.7232 C.3       11 UNK        -0.2019 
     32 N         -53.6884  -24.3976   15.3552 N.am      11 UNK        -0.4493 
     33 C         -54.4559  -24.5290   14.2630 C.2       11 UNK         0.4932 
     34 O         -55.6587  -24.7888   14.3145 O.2       11 UNK        -0.5029 
     35 CA        -53.7756  -24.4379   12.8817 C.3       10 UNK         0.0280 
     36 CB        -54.6705  -23.7582   11.8249 C.3       10 UNK        -0.1976 
     37 N         -52.4306  -23.8554   12.8996 N.am      10 UNK        -0.4242 
     38 C         -52.0808  -22.5961   13.1992 C.2       10 UNK         0.5072 
     39 O         -52.8744  -21.7032   13.5001 O.2       10 UNK        -0.5224 
     40 CA        -50.5686  -22.3173   13.1570 C.3       9 UNK         0.0343 
     41 CB        -50.1725  -20.9430   13.7371 C.3       9 UNK        -0.2003 
     42 N         -49.7939  -23.4070   13.7679 N.am      9 UNK        -0.4272 
     43 C         -49.8178  -23.7928   15.0527 C.2       9 UNK         0.4988 
     44 O         -50.4747  -23.2280   15.9275 O.2       9 UNK        -0.5108 
     45 CA        -49.0001  -25.0541   15.3948 C.3       8 UNK         0.0248 
     46 CB        -49.1607  -25.5004   16.8637 C.3       8 UNK        -0.2001 
     47 N         -49.2824  -26.1734   14.4890 N.am      8 UNK        -0.4140 
     48 C         -50.4729  -26.7430   14.2416 C.2       8 UNK         0.5028 
     49 O         -51.5282  -26.3949   14.7751 O.2       8 UNK        -0.5428 
     50 CA        -50.5119  -27.8804   13.2083 C.3       7 UNK         0.0264 
     51 CB        -51.5897  -27.6242   12.1421 C.3       7 UNK        -0.1988 
     52 N         -49.2217  -28.0761   12.5434 N.am      7 UNK        -0.4454 
     53 C         -48.3949  -29.1032   12.7818 C.2       7 UNK         0.5027 
     54 O         -48.6035  -29.9676   13.6344 O.2       7 UNK        -0.5083 
     55 CA        -47.1237  -29.1988   11.9149 C.3       6 UNK         0.0844 
     56 C56       -47.3268  -30.1173   10.6831 C.3       14 UNK        -0.0967 
     57 S57       -48.5739  -29.5255    9.4886 S.3       14 UNK        -0.2604 
     58 C58       -49.9579  -30.6637    9.8317 C.3       14 UNK         0.0134 
     59 N         -46.5464  -27.8953   11.5638 N.am      6 UNK        -0.4116 
     60 C         -45.8926  -27.1179   12.4406 C.2       5 UNK         0.5034 
     61 O         -45.8699  -27.3241   13.6541 O.2       5 UNK        -0.5045 
     62 CA        -45.1163  -25.9232   11.8746 C.3       5 UNK         0.0224 
     63 CB        -44.0046  -26.3835   10.9144 C.3       5 UNK        -0.1978 
     64 N         -46.0139  -25.0090   11.1787 N.am      5 UNK        -0.4737 
     65 C         -46.5019  -23.8763   11.7006 C.2       4 UNK         0.5027 
     66 O         -46.2243  -23.4600   12.8249 O.2       4 UNK        -0.5211 
     67 CA        -47.4833  -23.0736   10.8267 C.3       4 UNK         0.0297 
     68 CB        -46.7249  -22.0279    9.9946 C.3       4 UNK        -0.1993 
     69 N         -48.2884  -23.9113    9.9329 N.am      4 UNK        -0.4486 
     70 C         -49.1188  -24.8866   10.3271 C.2       3 UNK         0.4961 
     71 O         -49.3924  -25.1122   11.5055 O.2       3 UNK        -0.5105 
     72 CA        -49.7029  -25.7996    9.2357 C.3       3 UNK         0.0299 
     73 CB        -51.1218  -25.3470    8.8567 C.3       3 UNK        -0.1972 
     74 N         -48.8839  -25.8967    8.0215 N.am      3 UNK        -0.4305 
     75 C         -47.6112  -26.3214    7.9491 C.2       2 UNK         0.5006 
     76 O         -46.9406  -26.6281    8.9379 O.2       2 UNK        -0.5106 
     77 CA        -46.9529  -26.3459    6.5548 C.3       2 UNK         0.0296 
     78 CB        -46.0121  -27.5560    6.3741 C.3       2 UNK        -0.2002 
     79 N         -47.9115  -26.2139    5.4461 N.am      2 UNK        -0.4032 
     80 C         -48.8078  -27.1104    5.0042 C.2       1 UNK         0.5000 
     81 O         -48.8656  -28.2787    5.3900 O.2       1 UNK        -0.5238 
     82 H82       -46.6351  -25.1447    1.1168 H         1 UNK         0.0889 
     83 H83       -48.0433  -24.2600    0.5235 H         1 UNK         0.0889 
     84 H84       -47.9904  -26.0197    0.4007 H         1 UNK         0.0889 
     85 H85       -49.2314  -27.0373    1.9636 H         1 UNK         0.3028 
     86 H86       -50.1809  -25.6297    4.3157 H         1 UNK         0.0864 
     87 H87       -50.7465  -28.4814    3.3919 H         1 UNK         0.0720 
     88 H88       -51.6584  -27.0803    2.9199 H         1 UNK         0.0720 
     89 H89       -51.2947  -29.8643    5.0559 H         1 UNK         0.0814 
     90 H90       -53.0315  -29.8049    4.9081 H         1 UNK         0.0814 
     91 H91       -50.1758  -29.8875    7.2005 H         1 UNK         0.1469 
     92 H92       -52.5490  -30.7973   10.6596 H         1 UNK         0.1381 
     93 H93       -54.4477  -29.6984    6.9747 H         1 UNK         0.1206 
     94 H94       -54.9835  -31.2756   10.2453 H         1 UNK         0.0813 
     95 H95       -55.7352  -30.7423    8.7688 H         1 UNK         0.0813 
     96 H96       -55.6359  -30.2008   12.4049 H         1 UNK         0.0638 
     97 H97       -54.1045  -29.4130   12.1348 H         1 UNK         0.0638 
     98 H98       -55.3859  -27.1653   12.4635 H         1 UNK         0.0568 
     99 H99       -58.5586  -26.8569   14.1683 H         1 UNK         0.3450 
    100 H100      -56.9476  -26.1679   14.1830 H         1 UNK         0.3450 
    101 H101      -54.2932  -27.1236   14.3484 H         1 UNK         0.2987 
    102 H102      -54.5408  -28.6936   17.3726 H         1 UNK         0.0766 
    103 H103      -52.0046  -29.0235   15.6891 H         1 UNK         0.0798 
    104 H104      -52.8124  -30.2857   16.6036 H         1 UNK         0.0798 
    105 H105      -52.0588  -28.9417   17.4474 H         1 UNK         0.0798 
    106 H106      -52.8574  -26.6822   15.9680 H         1 UNK         0.3198 
    107 H107      -55.0786  -24.0182   16.8546 H         1 UNK         0.0843 
    108 H108      -52.9103  -23.0084   17.5503 H         1 UNK         0.0831 
    109 H109      -52.1777  -24.6069   17.6517 H         1 UNK         0.0831 
    110 H110      -53.4758  -24.1615   18.7497 H         1 UNK         0.0831 
    111 H111      -52.6966  -24.2352   15.2337 H         1 UNK         0.3133 
    112 H112      -53.6340  -25.4687   12.5596 H         1 UNK         0.0566 
    113 H113      -55.6091  -24.2993   11.6986 H         1 UNK         0.0814 
    114 H114      -54.9231  -22.7352   12.1047 H         1 UNK         0.0814 
    115 H115      -54.1829  -23.7302   10.8504 H         1 UNK         0.0814 
    116 H116      -51.6771  -24.5003   12.7026 H         1 UNK         0.3091 
    117 H117      -50.3119  -22.3090   12.0978 H         1 UNK         0.0702 
    118 H118      -49.0963  -20.7822   13.6735 H         1 UNK         0.0785 
    119 H119      -50.4670  -20.8406   14.7819 H         1 UNK         0.0785 
    120 H120      -50.6544  -20.1349   13.1856 H         1 UNK         0.0785 
    121 H121      -49.3007  -24.0030   13.1087 H         1 UNK         0.2998 
    122 H122      -47.9529  -24.7878   15.2418 H         1 UNK         0.0697 
    123 H123      -48.5074  -26.3419   17.0937 H         1 UNK         0.0825 
    124 H124      -48.9021  -24.6932   17.5502 H         1 UNK         0.0825 
    125 H125      -50.1837  -25.8033   17.0863 H         1 UNK         0.0825 
    126 H126      -48.4865  -26.5367   13.9838 H         1 UNK         0.3029 
    127 H127      -50.7943  -28.7869   13.7453 H         1 UNK         0.0897 
    128 H128      -51.5859  -28.3984   11.3761 H         1 UNK         0.0792 
    129 H129      -52.5817  -27.6199   12.5886 H         1 UNK         0.0792 
    130 H130      -51.4562  -26.6659   11.6455 H         1 UNK         0.0792 
    131 H131      -48.9699  -27.3945   11.8394 H         1 UNK         0.3086 
    132 H132      -46.3805  -29.7006   12.5393 H         1 UNK         0.0583 
    133 H133      -46.3807  -30.2210   10.1497 H         1 UNK         0.1020 
    134 H134      -47.5821  -31.1281   11.0073 H         1 UNK         0.1020 
    135 H135      -49.6443  -31.6838    9.6068 H         1 UNK         0.0694 
    136 H136      -50.1794  -30.6308   10.8994 H         1 UNK         0.0694 
    137 H137      -46.5817  -27.6263   10.5838 H         1 UNK         0.2989 
    138 H138      -44.6366  -25.4146   12.7144 H         1 UNK         0.1055 
    139 H139      -44.4024  -26.8709   10.0235 H         1 UNK         0.0806 
    140 H140      -43.3346  -27.0921   11.4034 H         1 UNK         0.0806 
    141 H141      -43.3972  -25.5400   10.5857 H         1 UNK         0.0806 
    142 H142      -46.3485  -25.3168   10.2704 H         1 UNK         0.3061 
    143 H143      -48.1568  -22.5423   11.4977 H         1 UNK         0.0734 
    144 H144      -47.4102  -21.3917    9.4342 H         1 UNK         0.0832 
    145 H145      -46.1327  -21.3745   10.6371 H         1 UNK         0.0832 
    146 H146      -46.0397  -22.4939    9.2853 H         1 UNK         0.0832 
    147 H147      -48.1347  -23.7956    8.9422 H         1 UNK         0.3156 
    148 H148      -49.7717  -26.8019    9.6609 H         1 UNK         0.0589 
    149 H149      -51.1176  -24.3791    8.3540 H         1 UNK         0.0808 
    150 H150      -51.6019  -26.0690    8.1950 H         1 UNK         0.0808 
    151 H151      -51.7569  -25.2504    9.7382 H         1 UNK         0.0808 
    152 H152      -49.3444  -25.6588    7.1565 H         1 UNK         0.3098 
    153 H153      -46.3331  -25.4494    6.5097 H         1 UNK         0.0720 
    154 H154      -45.1897  -27.5191    7.0896 H         1 UNK         0.0791 
    155 H155      -46.5310  -28.5016    6.5343 H         1 UNK         0.0791 
    156 H156      -45.5733  -27.5751    5.3767 H         1 UNK         0.0791 
    157 H157      -47.9115  -25.3140    4.9719 H         1 UNK         0.3028 
@<TRIPOS>BOND
     1    1    2 1    
     2    1   82 1    
     3    1   83 1    
     4    1   84 1    
     5    2    3 2    
     6    2    4 am   BACKBONE|DICT|INTERRES
     7    4    5 1    
     8    4   85 1    
     9    5    6 1    
    10    5   80 1    
    11    5   86 1    
    12    6    7 1    
    13    6   87 1    
    14    6   88 1    
    15    7    8 1    
    16    8    9 1    
    17    8   89 1    
    18    8   90 1    
    19    9   10 ar   
    20    9   14 ar   
    21   10   11 ar   
    22   10   91 1    
    23   11   12 ar   
    24   11   58 1    
    25   12   13 ar   
    26   12   92 1    
    27   13   14 ar   
    28   13   15 1    
    29   14   93 1    
    30   15   16 1    
    31   15   94 1    
    32   15   95 1    
    33   16   17 1    
    34   17   18 1    
    35   17   96 1    
    36   17   97 1    
    37   18   19 1    
    38   18   22 1    
    39   18   98 1    
    40   19   20 am   BACKBONE|DICT|INTERRES
    41   19   21 2    
    42   20   99 1    
    43   20  100 1    
    44   22   23 am   BACKBONE|DICT|INTERRES
    45   22  101 1    
    46   23   24 2    
    47   23   25 1    
    48   25   26 1    
    49   25   27 1    
    50   25  102 1    
    51   26  103 1    
    52   26  104 1    
    53   26  105 1    
    54   27   28 am   BACKBONE|DICT|INTERRES
    55   27  106 1    
    56   28   29 2    
    57   28   30 1    
    58   30   31 1    
    59   30   32 1    
    60   30  107 1    
    61   31  108 1    
    62   31  109 1    
    63   31  110 1    
    64   32   33 am   BACKBONE|DICT|INTERRES
    65   32  111 1    
    66   33   34 2    
    67   33   35 1    
    68   35   36 1    
    69   35   37 1    
    70   35  112 1    
    71   36  113 1    
    72   36  114 1    
    73   36  115 1    
    74   37   38 am   BACKBONE|DICT|INTERRES
    75   37  116 1    
    76   38   39 2    
    77   38   40 1    
    78   40   41 1    
    79   40   42 1    
    80   40  117 1    
    81   41  118 1    
    82   41  119 1    
    83   41  120 1    
    84   42   43 am   BACKBONE|DICT|INTERRES
    85   42  121 1    
    86   43   44 2    
    87   43   45 1    
    88   45   46 1    
    89   45   47 1    
    90   45  122 1    
    91   46  123 1    
    92   46  124 1    
    93   46  125 1    
    94   47   48 am   BACKBONE|DICT|INTERRES
    95   47  126 1    
    96   48   49 2    
    97   48   50 1    
    98   50   51 1    
    99   50   52 1    
   100   50  127 1    
   101   51  128 1    
   102   51  129 1    
   103   51  130 1    
   104   52   53 am   BACKBONE|DICT|INTERRES
   105   52  131 1    
   106   53   54 2    
   107   53   55 1    
   108   55   56 1    
   109   55   59 1    
   110   55  132 1    
   111   56   57 1    
   112   56  133 1    
   113   56  134 1    
   114   57   58 1    
   115   58  135 1    
   116   58  136 1    
   117   59   60 am   BACKBONE|DICT|INTERRES
   118   59  137 1    
   119   60   61 2    
   120   60   62 1    
   121   62   63 1    
   122   62   64 1    
   123   62  138 1    
   124   63  139 1    
   125   63  140 1    
   126   63  141 1    
   127   64   65 am   BACKBONE|DICT|INTERRES
   128   64  142 1    
   129   65   66 2    
   130   65   67 1    
   131   67   68 1    
   132   67   69 1    
   133   67  143 1    
   134   68  144 1    
   135   68  145 1    
   136   68  146 1    
   137   69   70 am   BACKBONE|DICT|INTERRES
   138   69  147 1    
   139   70   71 2    
   140   70   72 1    
   141   72   73 1    
   142   72   74 1    
   143   72  148 1    
   144   73  149 1    
   145   73  150 1    
   146   73  151 1    
   147   74   75 am   BACKBONE|DICT|INTERRES
   148   74  152 1    
   149   75   76 2    
   150   75   77 1    
   151   77   78 1    
   152   77   79 1    
   153   77  153 1    
   154   78  154 1    
   155   78  155 1    
   156   78  156 1    
   157   79   80 am   BACKBONE|DICT|INTERRES
   158   79  157 1    
   159   80   81 2    
@<TRIPOS>SUBSTRUCTURE
     1 UNK         1 GROUP             0       ****    0 ROOT    
