@<TRIPOS>MOLECULE
3R207
157   159    1
SMALL
USER_CHARGES


@<TRIPOS>ATOM
      1 CA        -43.9837  -26.8717   10.1795 C.3       0 UNK        -0.1975 
      2 C         -44.9043  -27.4530    9.1165 C.2       0 UNK         0.4852 
      3 O         -44.4258  -27.8456    8.0518 O.2       0 UNK        -0.5216 
      4 N         -46.2146  -27.5111    9.4050 N.am      1 UNK        -0.4461 
      5 CA        -47.2772  -28.0969    8.5742 C.3       1 UNK         0.0864 
      6 C6        -48.6749  -27.9038    9.2205 C.3       14 UNK        -0.0898 
      7 S7        -49.8505  -29.2034    8.7235 S.3       14 UNK        -0.2598 
      8 C8        -50.8017  -28.3830    7.4013 C.3       14 UNK         0.0286 
      9 C9        -51.8827  -27.4570    7.9423 C.ar      14 UNK        -0.0844 
     10 C10       -51.8131  -26.0753    7.7321 C.ar      14 UNK        -0.0881 
     11 C11       -52.8378  -25.2336    8.1844 C.ar      14 UNK        -0.0643 
     12 C12       -53.9396  -25.7912    8.8429 C.ar      14 UNK        -0.0930 
     13 C13       -54.0277  -27.1715    9.0450 C.ar      14 UNK        -0.0827 
     14 C14       -52.9929  -27.9968    8.5976 C.ar      14 UNK        -0.1249 
     15 C15       -55.2722  -27.7805    9.6759 C.3       14 UNK         0.0141 
     16 S16       -55.4197  -27.4091   11.4510 S.3       14 UNK        -0.2313 
     17 C17       -56.9518  -28.3268   11.8427 C.3       14 UNK        -0.0915 
     18 CA        -56.8069  -29.4029   12.9585 C.3       13 UNK         0.0968 
     19 C         -55.7983  -30.5452   12.6568 C.2       13 UNK         0.5732 
     20 N         -55.8311  -31.1103   11.4569 N.am      13 UNK        -0.7310 
     21 O         -55.0111  -30.9581   13.5055 O.2       13 UNK        -0.5035 
     22 N         -56.5931  -28.7997   14.2798 N.am      13 UNK        -0.4233 
     23 C         -57.5772  -28.3749   15.0827 C.2       13 UNK         0.4989 
     24 O         -58.7705  -28.4348   14.7783 O.2       13 UNK        -0.4996 
     25 CA        -57.1819  -27.7563   16.4389 C.3       12 UNK         0.0216 
     26 CB        -58.3047  -27.8513   17.4949 C.3       12 UNK        -0.1964 
     27 N         -55.9136  -28.2559   16.9780 N.am      12 UNK        -0.4276 
     28 C         -55.6055  -29.5081   17.3529 C.2       12 UNK         0.5020 
     29 O         -56.4048  -30.4452   17.3317 O.2       12 UNK        -0.5489 
     30 CA        -54.1596  -29.7682   17.8242 C.3       11 UNK         0.0294 
     31 CB        -53.5257  -30.9313   17.0403 C.3       11 UNK        -0.2019 
     32 N         -53.3134  -28.5825   17.6667 N.am      11 UNK        -0.4493 
     33 C         -53.0264  -27.6987   18.6332 C.2       11 UNK         0.4932 
     34 O         -53.3560  -27.8411   19.8105 O.2       11 UNK        -0.5029 
     35 CA        -52.2735  -26.4203   18.2142 C.3       10 UNK         0.0280 
     36 CB        -50.7699  -26.5679   18.4933 C.3       10 UNK        -0.1976 
     37 N         -52.4835  -26.0622   16.8058 N.am      10 UNK        -0.4242 
     38 C         -53.6585  -25.6457   16.3025 C.2       10 UNK         0.5072 
     39 O         -54.6574  -25.4540   16.9952 O.2       10 UNK        -0.5224 
     40 CA        -53.7820  -25.4868   14.7744 C.3       9 UNK         0.0343 
     41 CB        -53.6000  -24.0171   14.3684 C.3       9 UNK        -0.2003 
     42 N         -52.8497  -26.3280   14.0200 N.am      9 UNK        -0.4272 
     43 C         -52.8286  -27.6700   14.0716 C.2       9 UNK         0.4988 
     44 O         -53.6579  -28.3271   14.7010 O.2       9 UNK        -0.5108 
     45 CA        -51.6645  -28.4067   13.3783 C.3       8 UNK         0.0248 
     46 CB        -52.1158  -28.9768   12.0265 C.3       8 UNK        -0.2001 
     47 N         -50.4703  -27.5854   13.1647 N.am      8 UNK        -0.4140 
     48 C         -49.7764  -26.9355   14.1107 C.2       8 UNK         0.5028 
     49 O         -50.0214  -27.0137   15.3144 O.2       8 UNK        -0.5428 
     50 CA        -48.6725  -25.9775   13.6248 C.3       7 UNK         0.0264 
     51 CB        -47.3026  -26.6742   13.6604 C.3       7 UNK        -0.1988 
     52 N         -48.8985  -25.4238   12.2822 N.am      7 UNK        -0.4454 
     53 C         -49.9764  -24.7254   11.8878 C.2       7 UNK         0.5027 
     54 O         -50.9353  -24.4868   12.6222 O.2       7 UNK        -0.5083 
     55 CA        -49.9935  -24.2686   10.4135 C.3       6 UNK         0.0844 
     56 C56       -51.0916  -23.2178   10.1047 C.3       14 UNK        -0.0967 
     57 S57       -51.2268  -22.9210    8.3083 S.3       14 UNK        -0.2604 
     58 C58       -52.8102  -23.7319    7.9062 C.3       14 UNK         0.0134 
     59 N         -48.6633  -23.8839    9.9205 N.am      6 UNK        -0.4116 
     60 C         -47.8904  -22.8867   10.3809 C.2       5 UNK         0.5034 
     61 O         -48.1760  -22.1734   11.3425 O.2       5 UNK        -0.5045 
     62 CA        -46.5594  -22.6549    9.6443 C.3       5 UNK         0.0224 
     63 CB        -45.4199  -23.4022   10.3545 C.3       5 UNK        -0.1978 
     64 N         -46.6175  -23.0834    8.2443 N.am      5 UNK        -0.4737 
     65 C         -47.2160  -22.3916    7.2646 C.2       4 UNK         0.5027 
     66 O         -47.6932  -21.2669    7.4195 O.2       4 UNK        -0.5211 
     67 CA        -47.3277  -23.0938    5.8999 C.3       4 UNK         0.0297 
     68 CB        -47.4141  -22.1129    4.7108 C.3       4 UNK        -0.1993 
     69 N         -46.3006  -24.1238    5.6997 N.am      4 UNK        -0.4486 
     70 C         -44.9904  -23.9582    5.4524 C.2       3 UNK         0.4961 
     71 O         -44.4500  -22.8579    5.3380 O.2       3 UNK        -0.5105 
     72 CA        -44.1148  -25.2270    5.3296 C.3       3 UNK         0.0299 
     73 CB        -43.0339  -25.2413    6.4237 C.3       3 UNK        -0.1972 
     74 N         -44.8704  -26.4837    5.3910 N.am      3 UNK        -0.4305 
     75 C         -45.6982  -26.9297    4.4329 C.2       2 UNK         0.5006 
     76 O         -45.8012  -26.3995    3.3263 O.2       2 UNK        -0.5106 
     77 CA        -46.6043  -28.1333    4.7642 C.3       2 UNK         0.0296 
     78 CB        -46.0877  -29.4010    4.0642 C.3       2 UNK        -0.2002 
     79 N         -46.7755  -28.4143    6.1948 N.am      2 UNK        -0.4032 
     80 C         -47.2505  -27.5702    7.1234 C.2       1 UNK         0.5000 
     81 O         -47.6094  -26.4126    6.8901 O.2       1 UNK        -0.5238 
     82 H82       -43.5254  -25.9509    9.8208 H         1 UNK         0.0889 
     83 H83       -43.1867  -27.5789   10.4073 H         1 UNK         0.0889 
     84 H84       -44.5124  -26.6531   11.1070 H         1 UNK         0.0889 
     85 H85       -46.5127  -27.1832   10.3097 H         1 UNK         0.3028 
     86 H86       -47.0636  -29.1678    8.5508 H         1 UNK         0.0864 
     87 H87       -48.5980  -27.9695   10.3066 H         1 UNK         0.0720 
     88 H88       -49.0904  -26.9186    9.0104 H         1 UNK         0.0720 
     89 H89       -51.2773  -29.1528    6.7919 H         1 UNK         0.0814 
     90 H90       -50.1277  -27.8478    6.7318 H         1 UNK         0.0814 
     91 H91       -50.9699  -25.6535    7.2019 H         1 UNK         0.1469 
     92 H92       -54.7487  -25.1554    9.1760 H         1 UNK         0.1381 
     93 H93       -53.0575  -29.0672    8.7396 H         1 UNK         0.1206 
     94 H94       -55.2732  -28.8629    9.5397 H         1 UNK         0.0813 
     95 H95       -56.1551  -27.4044    9.1569 H         1 UNK         0.0813 
     96 H96       -57.3465  -28.7867   10.9359 H         1 UNK         0.0638 
     97 H97       -57.7065  -27.5955   12.1352 H         1 UNK         0.0638 
     98 H98       -57.7596  -29.9334   13.0060 H         1 UNK         0.0568 
     99 H99       -56.4905  -30.8145   10.7559 H         1 UNK         0.3450 
    100 H100      -55.1927  -31.8640   11.2587 H         1 UNK         0.3450 
    101 H101      -55.6231  -28.7565   14.5812 H         1 UNK         0.2987 
    102 H102      -57.0191  -26.6969   16.2365 H         1 UNK         0.0766 
    103 H103      -59.2054  -27.3366   17.1581 H         1 UNK         0.0798 
    104 H104      -58.0043  -27.3897   18.4355 H         1 UNK         0.0798 
    105 H105      -58.5805  -28.8859   17.7010 H         1 UNK         0.0798 
    106 H106      -55.1867  -27.5552   17.0545 H         1 UNK         0.3198 
    107 H107      -54.2097  -30.0550   18.8766 H         1 UNK         0.0843 
    108 H108      -53.5008  -30.7301   15.9684 H         1 UNK         0.0831 
    109 H109      -54.0906  -31.8534   17.1825 H         1 UNK         0.0831 
    110 H110      -52.5050  -31.1241   17.3705 H         1 UNK         0.0831 
    111 H111      -53.0365  -28.3735   16.7138 H         1 UNK         0.3133 
    112 H112      -52.6514  -25.5991   18.8270 H         1 UNK         0.0566 
    113 H113      -50.2222  -25.6666   18.2175 H         1 UNK         0.0814 
    114 H114      -50.3373  -27.4049   17.9438 H         1 UNK         0.0814 
    115 H115      -50.5869  -26.7474   19.5536 H         1 UNK         0.0814 
    116 H116      -51.7046  -26.2335   16.1755 H         1 UNK         0.3091 
    117 H117      -54.7924  -25.7934   14.4949 H         1 UNK         0.0702 
    118 H118      -53.7387  -23.8823   13.2954 H         1 UNK         0.0785 
    119 H119      -52.6067  -23.6481   14.6269 H         1 UNK         0.0785 
    120 H120      -54.3273  -23.3795   14.8727 H         1 UNK         0.0785 
    121 H121      -52.1356  -25.8394   13.4884 H         1 UNK         0.2998 
    122 H122      -51.3798  -29.2382   14.0260 H         1 UNK         0.0697 
    123 H123      -52.3744  -28.1814   11.3278 H         1 UNK         0.0825 
    124 H124      -52.9967  -29.6082   12.1407 H         1 UNK         0.0825 
    125 H125      -51.3385  -29.5884   11.5683 H         1 UNK         0.0825 
    126 H126      -50.1932  -27.4481   12.2051 H         1 UNK         0.3029 
    127 H127      -48.6499  -25.1372   14.3220 H         1 UNK         0.0897 
    128 H128      -47.2556  -27.5136   12.9657 H         1 UNK         0.0792 
    129 H129      -47.0926  -27.0663   14.6569 H         1 UNK         0.0792 
    130 H130      -46.4967  -25.9828   13.4129 H         1 UNK         0.0792 
    131 H131      -48.1496  -25.5385   11.6182 H         1 UNK         0.3086 
    132 H132      -50.2628  -25.1685    9.8634 H         1 UNK         0.0583 
    133 H133      -52.0623  -23.5432   10.4843 H         1 UNK         0.1020 
    134 H134      -50.8733  -22.2728   10.6049 H         1 UNK         0.1020 
    135 H135      -53.6051  -23.2225    8.4534 H         1 UNK         0.0694 
    136 H136      -53.0196  -23.5744    6.8475 H         1 UNK         0.0694 
    137 H137      -48.3430  -24.3769    9.1001 H         1 UNK         0.2989 
    138 H138      -46.3440  -21.5841    9.6764 H         1 UNK         0.1055 
    139 H139      -45.6006  -24.4759   10.3839 H         1 UNK         0.0806 
    140 H140      -45.3150  -23.0620   11.3859 H         1 UNK         0.0806 
    141 H141      -44.4630  -23.2328    9.8602 H         1 UNK         0.0806 
    142 H142      -46.2335  -23.9886    8.0158 H         1 UNK         0.3061 
    143 H143      -48.2741  -23.6361    5.9331 H         1 UNK         0.0734 
    144 H144      -46.5521  -21.4470    4.6674 H         1 UNK         0.0832 
    145 H145      -47.4795  -22.6437    3.7612 H         1 UNK         0.0832 
    146 H146      -48.3012  -21.4834    4.7911 H         1 UNK         0.0832 
    147 H147      -46.6362  -25.0731    5.8415 H         1 UNK         0.3156 
    148 H148      -43.6148  -25.1815    4.3600 H         1 UNK         0.0589 
    149 H149      -42.4040  -26.1283    6.3520 H         1 UNK         0.0808 
    150 H150      -42.3792  -24.3729    6.3385 H         1 UNK         0.0808 
    151 H151      -43.4718  -25.2195    7.4214 H         1 UNK         0.0808 
    152 H152      -44.8141  -27.0023    6.2635 H         1 UNK         0.3098 
    153 H153      -47.5935  -27.9017    4.3642 H         1 UNK         0.0720 
    154 H154      -45.9808  -29.2399    2.9903 H         1 UNK         0.0791 
    155 H155      -46.7751  -30.2369    4.1957 H         1 UNK         0.0791 
    156 H156      -45.1118  -29.7029    4.4468 H         1 UNK         0.0791 
    157 H157      -46.4615  -29.3240    6.5016 H         1 UNK         0.3028 
@<TRIPOS>BOND
     1    1    2 1    
     2    1   82 1    
     3    1   83 1    
     4    1   84 1    
     5    2    3 2    
     6    2    4 am   BACKBONE|DICT|INTERRES
     7    4    5 1    
     8    4   85 1    
     9    5    6 1    
    10    5   80 1    
    11    5   86 1    
    12    6    7 1    
    13    6   87 1    
    14    6   88 1    
    15    7    8 1    
    16    8    9 1    
    17    8   89 1    
    18    8   90 1    
    19    9   10 ar   
    20    9   14 ar   
    21   10   11 ar   
    22   10   91 1    
    23   11   12 ar   
    24   11   58 1    
    25   12   13 ar   
    26   12   92 1    
    27   13   14 ar   
    28   13   15 1    
    29   14   93 1    
    30   15   16 1    
    31   15   94 1    
    32   15   95 1    
    33   16   17 1    
    34   17   18 1    
    35   17   96 1    
    36   17   97 1    
    37   18   19 1    
    38   18   22 1    
    39   18   98 1    
    40   19   20 am   BACKBONE|DICT|INTERRES
    41   19   21 2    
    42   20   99 1    
    43   20  100 1    
    44   22   23 am   BACKBONE|DICT|INTERRES
    45   22  101 1    
    46   23   24 2    
    47   23   25 1    
    48   25   26 1    
    49   25   27 1    
    50   25  102 1    
    51   26  103 1    
    52   26  104 1    
    53   26  105 1    
    54   27   28 am   BACKBONE|DICT|INTERRES
    55   27  106 1    
    56   28   29 2    
    57   28   30 1    
    58   30   31 1    
    59   30   32 1    
    60   30  107 1    
    61   31  108 1    
    62   31  109 1    
    63   31  110 1    
    64   32   33 am   BACKBONE|DICT|INTERRES
    65   32  111 1    
    66   33   34 2    
    67   33   35 1    
    68   35   36 1    
    69   35   37 1    
    70   35  112 1    
    71   36  113 1    
    72   36  114 1    
    73   36  115 1    
    74   37   38 am   BACKBONE|DICT|INTERRES
    75   37  116 1    
    76   38   39 2    
    77   38   40 1    
    78   40   41 1    
    79   40   42 1    
    80   40  117 1    
    81   41  118 1    
    82   41  119 1    
    83   41  120 1    
    84   42   43 am   BACKBONE|DICT|INTERRES
    85   42  121 1    
    86   43   44 2    
    87   43   45 1    
    88   45   46 1    
    89   45   47 1    
    90   45  122 1    
    91   46  123 1    
    92   46  124 1    
    93   46  125 1    
    94   47   48 am   BACKBONE|DICT|INTERRES
    95   47  126 1    
    96   48   49 2    
    97   48   50 1    
    98   50   51 1    
    99   50   52 1    
   100   50  127 1    
   101   51  128 1    
   102   51  129 1    
   103   51  130 1    
   104   52   53 am   BACKBONE|DICT|INTERRES
   105   52  131 1    
   106   53   54 2    
   107   53   55 1    
   108   55   56 1    
   109   55   59 1    
   110   55  132 1    
   111   56   57 1    
   112   56  133 1    
   113   56  134 1    
   114   57   58 1    
   115   58  135 1    
   116   58  136 1    
   117   59   60 am   BACKBONE|DICT|INTERRES
   118   59  137 1    
   119   60   61 2    
   120   60   62 1    
   121   62   63 1    
   122   62   64 1    
   123   62  138 1    
   124   63  139 1    
   125   63  140 1    
   126   63  141 1    
   127   64   65 am   BACKBONE|DICT|INTERRES
   128   64  142 1    
   129   65   66 2    
   130   65   67 1    
   131   67   68 1    
   132   67   69 1    
   133   67  143 1    
   134   68  144 1    
   135   68  145 1    
   136   68  146 1    
   137   69   70 am   BACKBONE|DICT|INTERRES
   138   69  147 1    
   139   70   71 2    
   140   70   72 1    
   141   72   73 1    
   142   72   74 1    
   143   72  148 1    
   144   73  149 1    
   145   73  150 1    
   146   73  151 1    
   147   74   75 am   BACKBONE|DICT|INTERRES
   148   74  152 1    
   149   75   76 2    
   150   75   77 1    
   151   77   78 1    
   152   77   79 1    
   153   77  153 1    
   154   78  154 1    
   155   78  155 1    
   156   78  156 1    
   157   79   80 am   BACKBONE|DICT|INTERRES
   158   79  157 1    
   159   80   81 2    
@<TRIPOS>SUBSTRUCTURE
     1 UNK         1 GROUP             0       ****    0 ROOT    
