@<TRIPOS>MOLECULE
3R207
157   159    1
SMALL
USER_CHARGES


@<TRIPOS>ATOM
      1 CA        -46.4268  -30.9238    8.0872 C.3       0 UNK        -0.1975 
      2 C         -46.8030  -30.5824    6.6534 C.2       0 UNK         0.4852 
      3 O         -45.9226  -30.3015    5.8396 O.2       0 UNK        -0.5216 
      4 N         -48.1047  -30.6069    6.3378 N.am      1 UNK        -0.4461 
      5 CA        -48.6562  -30.3022    5.0107 C.3       1 UNK         0.0864 
      6 C6        -50.0705  -30.9082    4.8147 C.3       14 UNK        -0.0898 
      7 S7        -51.2515  -30.4791    6.1383 S.3       14 UNK        -0.2598 
      8 C8        -52.3616  -29.3231    5.2785 C.3       14 UNK         0.0286 
      9 C9        -53.3002  -28.6703    6.2780 C.ar      14 UNK        -0.0844 
     10 C10       -52.8707  -27.5545    7.0014 C.ar      14 UNK        -0.0881 
     11 C11       -53.6896  -26.9938    7.9835 C.ar      14 UNK        -0.0643 
     12 C12       -54.9519  -27.5355    8.2245 C.ar      14 UNK        -0.0930 
     13 C13       -55.3840  -28.6629    7.5233 C.ar      14 UNK        -0.0827 
     14 C14       -54.5640  -29.2148    6.5324 C.ar      14 UNK        -0.1249 
     15 C15       -56.7126  -29.3073    7.8902 C.3       14 UNK         0.0141 
     16 S16       -56.5515  -30.9988    8.5663 S.3       14 UNK        -0.2313 
     17 C17       -55.0415  -30.9921    9.6012 C.3       14 UNK        -0.0915 
     18 CA        -55.2963  -30.5959   11.0797 C.3       13 UNK         0.0968 
     19 C         -54.1855  -31.1742   12.0003 C.2       13 UNK         0.5732 
     20 N         -54.4170  -32.3350   12.5984 N.am      13 UNK        -0.7310 
     21 O         -53.1045  -30.6056   12.1391 O.2       13 UNK        -0.5035 
     22 N         -55.4179  -29.1387   11.2256 N.am      13 UNK        -0.4233 
     23 C         -55.8428  -28.5207   12.3342 C.2       13 UNK         0.4989 
     24 O         -56.2922  -29.1091   13.3214 O.2       13 UNK        -0.4996 
     25 CA        -55.8128  -26.9829   12.3140 C.3       12 UNK         0.0216 
     26 CB        -57.0898  -26.4298   11.6578 C.3       12 UNK        -0.1964 
     27 N         -55.7075  -26.4401   13.6706 N.am      12 UNK        -0.4276 
     28 C         -54.5662  -26.3332   14.3604 C.2       12 UNK         0.5020 
     29 O         -53.4531  -26.6022   13.9055 O.2       12 UNK        -0.5489 
     30 CA        -54.6888  -25.8657   15.8146 C.3       11 UNK         0.0294 
     31 CB        -54.9634  -27.0639   16.7444 C.3       11 UNK        -0.2019 
     32 N         -53.4454  -25.2015   16.1969 N.am      11 UNK        -0.4493 
     33 C         -53.2706  -24.4090   17.2619 C.2       11 UNK         0.4932 
     34 O         -54.1707  -24.1282   18.0556 O.2       11 UNK        -0.5029 
     35 CA        -51.8562  -23.8287   17.4665 C.3       10 UNK         0.0280 
     36 CB        -51.6121  -23.2918   18.8930 C.3       10 UNK        -0.1976 
     37 N         -50.8037  -24.7640   17.0566 N.am      10 UNK        -0.4242 
     38 C         -50.5022  -25.9546   17.5951 C.2       10 UNK         0.5072 
     39 O         -51.0212  -26.4073   18.6163 O.2       10 UNK        -0.5224 
     40 CA        -49.4586  -26.8064   16.8500 C.3       9 UNK         0.0343 
     41 CB        -50.1662  -27.7922   15.9057 C.3       9 UNK        -0.2003 
     42 N         -48.4877  -26.0175   16.0842 N.am      9 UNK        -0.4272 
     43 C         -47.5216  -25.2619   16.6270 C.2       9 UNK         0.4988 
     44 O         -47.3233  -25.1704   17.8391 O.2       9 UNK        -0.5108 
     45 CA        -46.6279  -24.4676   15.6575 C.3       8 UNK         0.0248 
     46 CB        -45.5536  -25.3731   15.0336 C.3       8 UNK        -0.2001 
     47 N         -47.3903  -23.7990   14.5998 N.am      8 UNK        -0.4140 
     48 C         -48.2378  -22.7796   14.8073 C.2       8 UNK         0.5028 
     49 O         -48.4199  -22.2498   15.9037 O.2       8 UNK        -0.5428 
     50 CA        -49.0471  -22.2855   13.5957 C.3       7 UNK         0.0264 
     51 CB        -48.2167  -21.3168   12.7391 C.3       7 UNK        -0.1988 
     52 N         -49.5431  -23.3820   12.7617 N.am      7 UNK        -0.4454 
     53 C         -50.4104  -24.3184   13.1727 C.2       7 UNK         0.5027 
     54 O         -50.9428  -24.3125   14.2817 O.2       7 UNK        -0.5083 
     55 CA        -50.6965  -25.4835   12.2105 C.3       6 UNK         0.0844 
     56 C56       -51.8413  -25.1352   11.2338 C.3       14 UNK        -0.0967 
     57 S57       -52.3191  -26.6061   10.2809 S.3       14 UNK        -0.2604 
     58 C58       -53.1728  -25.8723    8.8601 C.3       14 UNK         0.0134 
     59 N         -49.4828  -25.9326   11.5234 N.am      6 UNK        -0.4116 
     60 C         -48.4458  -26.5309   12.1233 C.2       5 UNK         0.5034 
     61 O         -48.3990  -26.7865   13.3255 O.2       5 UNK        -0.5045 
     62 CA        -47.2316  -26.8467   11.2386 C.3       5 UNK         0.0224 
     63 CB        -47.4437  -28.1533   10.4584 C.3       5 UNK        -0.1978 
     64 N         -46.9397  -25.7532   10.3095 N.am      5 UNK        -0.4737 
     65 C         -46.4724  -24.5556   10.6932 C.2       4 UNK         0.5027 
     66 O         -46.1933  -24.2740   11.8586 O.2       4 UNK        -0.5211 
     67 CA        -46.3415  -23.4760    9.6041 C.3       4 UNK         0.0297 
     68 CB        -44.9722  -23.5725    8.9138 C.3       4 UNK        -0.1993 
     69 N         -47.4040  -23.5408    8.5963 N.am      4 UNK        -0.4486 
     70 C         -48.7117  -23.3980    8.8547 C.2       3 UNK         0.4961 
     71 O         -49.1619  -23.1430    9.9706 O.2       3 UNK        -0.5105 
     72 CA        -49.6936  -23.6114    7.6909 C.3       3 UNK         0.0299 
     73 CB        -50.1216  -22.2608    7.0969 C.3       3 UNK        -0.1972 
     74 N         -49.1955  -24.4815    6.6196 N.am      3 UNK        -0.4305 
     75 C         -48.8556  -25.7702    6.7598 C.2       2 UNK         0.5006 
     76 O         -48.8733  -26.3802    7.8321 O.2       2 UNK        -0.5106 
     77 CA        -48.3652  -26.4718    5.4906 C.3       2 UNK         0.0296 
     78 CB        -46.8977  -26.1041    5.1986 C.3       2 UNK        -0.2002 
     79 N         -48.4872  -27.9176    5.6525 N.am      2 UNK        -0.4032 
     80 C         -48.6099  -28.7995    4.6511 C.2       1 UNK         0.5000 
     81 O         -48.6727  -28.4712    3.4642 O.2       1 UNK        -0.5238 
     82 H82       -47.2914  -30.9028    8.7505 H         1 UNK         0.0889 
     83 H83       -45.6932  -30.2117    8.4637 H         1 UNK         0.0889 
     84 H84       -45.9859  -31.9193    8.1310 H         1 UNK         0.0889 
     85 H85       -48.7903  -30.8492    7.0403 H         1 UNK         0.3028 
     86 H86       -48.0073  -30.7905    4.2799 H         1 UNK         0.0864 
     87 H87       -50.4824  -30.6372    3.8404 H         1 UNK         0.0720 
     88 H88       -49.9902  -31.9961    4.7981 H         1 UNK         0.0720 
     89 H89       -52.9263  -29.8568    4.5123 H         1 UNK         0.0814 
     90 H90       -51.7762  -28.5598    4.7633 H         1 UNK         0.0814 
     91 H91       -51.8779  -27.1563    6.8395 H         1 UNK         0.1469 
     92 H92       -55.5752  -27.1028    8.9931 H         1 UNK         0.1381 
     93 H93       -54.8887  -30.0981    5.9994 H         1 UNK         0.1206 
     94 H94       -57.2474  -28.6991    8.6213 H         1 UNK         0.0813 
     95 H95       -57.3488  -29.3421    7.0049 H         1 UNK         0.0813 
     96 H96       -54.2550  -30.3797    9.1593 H         1 UNK         0.0638 
     97 H97       -54.6620  -32.0145    9.5476 H         1 UNK         0.0638 
     98 H98       -56.2451  -31.0357   11.3940 H         1 UNK         0.0568 
     99 H99       -53.7014  -32.7334   13.1857 H         1 UNK         0.3450 
    100 H100      -55.2944  -32.8174   12.4807 H         1 UNK         0.3450 
    101 H101      -55.0232  -28.5936   10.4746 H         1 UNK         0.2987 
    102 H102      -54.9489  -26.6557   11.7321 H         1 UNK         0.0766 
    103 H103      -57.0564  -25.3427   11.5820 H         1 UNK         0.0798 
    104 H104      -57.9829  -26.6993   12.2233 H         1 UNK         0.0798 
    105 H105      -57.2206  -26.8195   10.6483 H         1 UNK         0.0798 
    106 H106      -56.5793  -26.2531   14.1447 H         1 UNK         0.3198 
    107 H107      -55.5081  -25.1470   15.8855 H         1 UNK         0.0843 
    108 H108      -55.8664  -27.5967   16.4434 H         1 UNK         0.0831 
    109 H109      -55.1060  -26.7468   17.7774 H         1 UNK         0.0831 
    110 H110      -54.1406  -27.7799   16.7252 H         1 UNK         0.0831 
    111 H111      -52.6793  -25.3446   15.5453 H         1 UNK         0.3133 
    112 H112      -51.7785  -22.9820   16.7830 H         1 UNK         0.0566 
    113 H113      -50.6030  -22.8932   18.9982 H         1 UNK         0.0814 
    114 H114      -52.3055  -22.4839   19.1290 H         1 UNK         0.0814 
    115 H115      -51.7489  -24.0659   19.6485 H         1 UNK         0.0814 
    116 H116      -50.3786  -24.5426   16.1613 H         1 UNK         0.3091 
    117 H117      -48.9100  -27.3835   17.5972 H         1 UNK         0.0702 
    118 H118      -49.4530  -28.4579   15.4191 H         1 UNK         0.0785 
    119 H119      -50.7244  -27.2726   15.1255 H         1 UNK         0.0785 
    120 H120      -50.8748  -28.4175   16.4506 H         1 UNK         0.0785 
    121 H121      -48.5324  -26.1021   15.0710 H         1 UNK         0.2998 
    122 H122      -46.1183  -23.6949   16.2369 H         1 UNK         0.0697 
    123 H123      -45.9913  -26.1598   14.4188 H         1 UNK         0.0825 
    124 H124      -44.9549  -25.8576   15.8060 H         1 UNK         0.0825 
    125 H125      -44.8708  -24.8013   14.4047 H         1 UNK         0.0825 
    126 H126      -47.2494  -24.1328   13.6517 H         1 UNK         0.3029 
    127 H127      -49.9155  -21.7441   13.9775 H         1 UNK         0.0897 
    128 H128      -48.8006  -20.9226   11.9070 H         1 UNK         0.0792 
    129 H129      -47.8781  -20.4655   13.3312 H         1 UNK         0.0792 
    130 H130      -47.3310  -21.7997   12.3262 H         1 UNK         0.0792 
    131 H131      -49.2164  -23.4112   11.7974 H         1 UNK         0.3086 
    132 H132      -51.0332  -26.3181   12.8290 H         1 UNK         0.0583 
    133 H133      -52.7216  -24.7876   11.7789 H         1 UNK         0.1020 
    134 H134      -51.5508  -24.3300   10.5568 H         1 UNK         0.1020 
    135 H135      -53.9931  -25.2407    9.2050 H         1 UNK         0.0694 
    136 H136      -52.4938  -25.2343    8.2965 H         1 UNK         0.0694 
    137 H137      -49.4357  -25.7606   10.5295 H         1 UNK         0.2989 
    138 H138      -46.3678  -26.9765   11.8947 H         1 UNK         0.1055 
    139 H139      -47.6000  -28.9911   11.1393 H         1 UNK         0.0806 
    140 H140      -46.5742  -28.3899    9.8462 H         1 UNK         0.0806 
    141 H141      -48.3135  -28.1015    9.8026 H         1 UNK         0.0806 
    142 H142      -47.2038  -25.8904    9.3419 H         1 UNK         0.3061 
    143 H143      -46.4101  -22.5031   10.0949 H         1 UNK         0.0734 
    144 H144      -44.1637  -23.5080    9.6436 H         1 UNK         0.0832 
    145 H145      -44.8529  -24.5155    8.3788 H         1 UNK         0.0832 
    146 H146      -44.8275  -22.7600    8.2015 H         1 UNK         0.0832 
    147 H147      -47.1250  -23.7406    7.6473 H         1 UNK         0.3156 
    148 H148      -50.5768  -24.0896    8.1131 H         1 UNK         0.0589 
    149 H149      -49.2847  -21.7412    6.6285 H         1 UNK         0.0808 
    150 H150      -50.9036  -22.3854    6.3476 H         1 UNK         0.0808 
    151 H151      -50.5209  -21.6031    7.8706 H         1 UNK         0.0808 
    152 H152      -49.1307  -24.0648    5.7014 H         1 UNK         0.3098 
    153 H153      -48.9971  -26.1496    4.6600 H         1 UNK         0.0720 
    154 H154      -46.5452  -26.5777    4.2822 H         1 UNK         0.0791 
    155 H155      -46.2370  -26.4165    6.0086 H         1 UNK         0.0791 
    156 H156      -46.7746  -25.0281    5.0699 H         1 UNK         0.0791 
    157 H157      -48.5021  -28.2397    6.6118 H         1 UNK         0.3028 
@<TRIPOS>BOND
     1    1    2 1    
     2    1   82 1    
     3    1   83 1    
     4    1   84 1    
     5    2    3 2    
     6    2    4 am   BACKBONE|DICT|INTERRES
     7    4    5 1    
     8    4   85 1    
     9    5    6 1    
    10    5   80 1    
    11    5   86 1    
    12    6    7 1    
    13    6   87 1    
    14    6   88 1    
    15    7    8 1    
    16    8    9 1    
    17    8   89 1    
    18    8   90 1    
    19    9   10 ar   
    20    9   14 ar   
    21   10   11 ar   
    22   10   91 1    
    23   11   12 ar   
    24   11   58 1    
    25   12   13 ar   
    26   12   92 1    
    27   13   14 ar   
    28   13   15 1    
    29   14   93 1    
    30   15   16 1    
    31   15   94 1    
    32   15   95 1    
    33   16   17 1    
    34   17   18 1    
    35   17   96 1    
    36   17   97 1    
    37   18   19 1    
    38   18   22 1    
    39   18   98 1    
    40   19   20 am   BACKBONE|DICT|INTERRES
    41   19   21 2    
    42   20   99 1    
    43   20  100 1    
    44   22   23 am   BACKBONE|DICT|INTERRES
    45   22  101 1    
    46   23   24 2    
    47   23   25 1    
    48   25   26 1    
    49   25   27 1    
    50   25  102 1    
    51   26  103 1    
    52   26  104 1    
    53   26  105 1    
    54   27   28 am   BACKBONE|DICT|INTERRES
    55   27  106 1    
    56   28   29 2    
    57   28   30 1    
    58   30   31 1    
    59   30   32 1    
    60   30  107 1    
    61   31  108 1    
    62   31  109 1    
    63   31  110 1    
    64   32   33 am   BACKBONE|DICT|INTERRES
    65   32  111 1    
    66   33   34 2    
    67   33   35 1    
    68   35   36 1    
    69   35   37 1    
    70   35  112 1    
    71   36  113 1    
    72   36  114 1    
    73   36  115 1    
    74   37   38 am   BACKBONE|DICT|INTERRES
    75   37  116 1    
    76   38   39 2    
    77   38   40 1    
    78   40   41 1    
    79   40   42 1    
    80   40  117 1    
    81   41  118 1    
    82   41  119 1    
    83   41  120 1    
    84   42   43 am   BACKBONE|DICT|INTERRES
    85   42  121 1    
    86   43   44 2    
    87   43   45 1    
    88   45   46 1    
    89   45   47 1    
    90   45  122 1    
    91   46  123 1    
    92   46  124 1    
    93   46  125 1    
    94   47   48 am   BACKBONE|DICT|INTERRES
    95   47  126 1    
    96   48   49 2    
    97   48   50 1    
    98   50   51 1    
    99   50   52 1    
   100   50  127 1    
   101   51  128 1    
   102   51  129 1    
   103   51  130 1    
   104   52   53 am   BACKBONE|DICT|INTERRES
   105   52  131 1    
   106   53   54 2    
   107   53   55 1    
   108   55   56 1    
   109   55   59 1    
   110   55  132 1    
   111   56   57 1    
   112   56  133 1    
   113   56  134 1    
   114   57   58 1    
   115   58  135 1    
   116   58  136 1    
   117   59   60 am   BACKBONE|DICT|INTERRES
   118   59  137 1    
   119   60   61 2    
   120   60   62 1    
   121   62   63 1    
   122   62   64 1    
   123   62  138 1    
   124   63  139 1    
   125   63  140 1    
   126   63  141 1    
   127   64   65 am   BACKBONE|DICT|INTERRES
   128   64  142 1    
   129   65   66 2    
   130   65   67 1    
   131   67   68 1    
   132   67   69 1    
   133   67  143 1    
   134   68  144 1    
   135   68  145 1    
   136   68  146 1    
   137   69   70 am   BACKBONE|DICT|INTERRES
   138   69  147 1    
   139   70   71 2    
   140   70   72 1    
   141   72   73 1    
   142   72   74 1    
   143   72  148 1    
   144   73  149 1    
   145   73  150 1    
   146   73  151 1    
   147   74   75 am   BACKBONE|DICT|INTERRES
   148   74  152 1    
   149   75   76 2    
   150   75   77 1    
   151   77   78 1    
   152   77   79 1    
   153   77  153 1    
   154   78  154 1    
   155   78  155 1    
   156   78  156 1    
   157   79   80 am   BACKBONE|DICT|INTERRES
   158   79  157 1    
   159   80   81 2    
@<TRIPOS>SUBSTRUCTURE
     1 UNK         1 GROUP             0       ****    0 ROOT    
