@<TRIPOS>MOLECULE
3R207
157   159    1
SMALL
USER_CHARGES


@<TRIPOS>ATOM
      1 CA        -47.4162  -32.2225    2.7449 C.3       0 UNK        -0.1975 
      2 C         -48.1367  -31.1745    3.5797 C.2       0 UNK         0.4852 
      3 O         -48.0484  -31.2186    4.8074 O.2       0 UNK        -0.5216 
      4 N         -48.8385  -30.2439    2.9125 N.am      1 UNK        -0.4461 
      5 CA        -49.6317  -29.1040    3.4127 C.3       1 UNK         0.0864 
      6 C6        -51.0689  -29.4280    3.9334 C.3       14 UNK        -0.0898 
      7 S7        -51.3523  -31.0349    4.7585 S.3       14 UNK        -0.2598 
      8 C8        -51.1280  -30.6428    6.5263 C.3       14 UNK         0.0286 
      9 C9        -52.1151  -29.6131    7.0672 C.ar      14 UNK        -0.0844 
     10 C10       -51.6539  -28.6024    7.9154 C.ar      14 UNK        -0.0881 
     11 C11       -52.5353  -27.6456    8.4224 C.ar      14 UNK        -0.0643 
     12 C12       -53.8835  -27.6916    8.0637 C.ar      14 UNK        -0.0930 
     13 C13       -54.3717  -28.7199    7.2505 C.ar      14 UNK        -0.0827 
     14 C14       -53.4795  -29.6769    6.7561 C.ar      14 UNK        -0.1249 
     15 C15       -55.8485  -28.7892    6.8731 C.3       14 UNK         0.0141 
     16 S16       -56.9782  -28.3713    8.2458 S.3       14 UNK        -0.2313 
     17 C17       -57.0682  -29.9281    9.2006 C.3       14 UNK        -0.0915 
     18 CA        -56.1734  -30.0003   10.4755 C.3       13 UNK         0.0968 
     19 C         -54.8042  -30.6988   10.2235 C.2       13 UNK         0.5732 
     20 N         -53.6697  -30.0950   10.5495 N.am      13 UNK        -0.7310 
     21 O         -54.7752  -31.8345    9.7544 O.2       13 UNK        -0.5035 
     22 N         -56.1188  -28.7177   11.1989 N.am      13 UNK        -0.4233 
     23 C         -55.8654  -28.5776   12.5043 C.2       13 UNK         0.4989 
     24 O         -55.6676  -29.5205   13.2764 O.2       13 UNK        -0.4996 
     25 CA        -55.8591  -27.1420   13.0473 C.3       12 UNK         0.0216 
     26 CB        -57.2891  -26.5831   13.1701 C.3       12 UNK        -0.1964 
     27 N         -55.2132  -27.1529   14.3564 N.am      12 UNK        -0.4276 
     28 C         -54.5823  -26.1290   14.9388 C.2       12 UNK         0.5020 
     29 O         -54.5308  -24.9945   14.4581 O.2       12 UNK        -0.5489 
     30 CA        -53.9053  -26.4280   16.2872 C.3       11 UNK         0.0294 
     31 CB        -53.0938  -27.7400   16.2575 C.3       11 UNK        -0.2019 
     32 N         -53.0019  -25.3391   16.6539 N.am      11 UNK        -0.4493 
     33 C         -52.9476  -24.7236   17.8397 C.2       11 UNK         0.4932 
     34 O         -53.7248  -24.9426   18.7711 O.2       11 UNK        -0.5029 
     35 CA        -51.7754  -23.7367   18.0102 C.3       10 UNK         0.0280 
     36 CB        -51.7284  -23.0619   19.3978 C.3       10 UNK        -0.1976 
     37 N         -50.5021  -24.3919   17.6807 N.am      10 UNK        -0.4242 
     38 C         -49.9515  -25.4521   18.2944 C.2       10 UNK         0.5072 
     39 O         -50.3536  -25.9222   19.3597 O.2       10 UNK        -0.5224 
     40 CA        -48.7760  -26.1483   17.5858 C.3       9 UNK         0.0343 
     41 CB        -49.2678  -27.4333   16.8993 C.3       9 UNK        -0.2003 
     42 N         -48.0951  -25.3098   16.5957 N.am      9 UNK        -0.4272 
     43 C         -47.2269  -24.3362   16.9043 C.2       9 UNK         0.4988 
     44 O         -46.9126  -24.0386   18.0574 O.2       9 UNK        -0.5108 
     45 CA        -46.6019  -23.5624   15.7312 C.3       8 UNK         0.0248 
     46 CB        -45.4822  -24.3847   15.0727 C.3       8 UNK        -0.2001 
     47 N         -47.5816  -23.1646   14.7181 N.am      8 UNK        -0.4140 
     48 C         -48.5797  -22.2926   14.9225 C.2       8 UNK         0.5028 
     49 O         -48.7716  -21.7018   15.9854 O.2       8 UNK        -0.5428 
     50 CA        -49.5492  -22.0615   13.7517 C.3       7 UNK         0.0264 
     51 CB        -48.9532  -21.0855   12.7242 C.3       7 UNK        -0.1988 
     52 N         -49.9329  -23.3082   13.0871 N.am      7 UNK        -0.4454 
     53 C         -50.6540  -24.2808   13.6649 C.2       7 UNK         0.5027 
     54 O         -51.0982  -24.2201   14.8109 O.2       7 UNK        -0.5083 
     55 CA        -50.8926  -25.5541   12.8367 C.3       6 UNK         0.0844 
     56 C56       -52.0869  -25.3482   11.8796 C.3       14 UNK        -0.0967 
     57 S57       -52.5893  -26.8973   11.0697 S.3       14 UNK        -0.2604 
     58 C58       -52.0443  -26.5678    9.3703 C.3       14 UNK         0.0134 
     59 N         -49.6745  -25.9736   12.1390 N.am      6 UNK        -0.4116 
     60 C         -48.5492  -26.3779   12.7450 C.2       5 UNK         0.5034 
     61 O         -48.4196  -26.4790   13.9641 O.2       5 UNK        -0.5045 
     62 CA        -47.3417  -26.6533   11.8377 C.3       5 UNK         0.0224 
     63 CB        -47.3953  -28.0851   11.2824 C.3       5 UNK        -0.1978 
     64 N         -47.2391  -25.6854   10.7403 N.am      5 UNK        -0.4737 
     65 C         -46.9877  -24.3792   10.9247 C.2       4 UNK         0.5027 
     66 O         -46.8100  -23.8776   12.0343 O.2       4 UNK        -0.5211 
     67 CA        -46.9465  -23.4633    9.6889 C.3       4 UNK         0.0297 
     68 CB        -45.4923  -23.2212    9.2566 C.3       4 UNK        -0.1993 
     69 N         -47.7123  -23.9622    8.5461 N.am      4 UNK        -0.4486 
     70 C         -49.0420  -24.1258    8.5174 C.2       3 UNK         0.4961 
     71 O         -49.7884  -23.8595    9.4607 O.2       3 UNK        -0.5105 
     72 CA        -49.6258  -24.7334    7.2272 C.3       3 UNK         0.0299 
     73 CB        -49.9392  -23.6255    6.2102 C.3       3 UNK        -0.1972 
     74 N         -48.7749  -25.7494    6.5925 N.am      3 UNK        -0.4305 
     75 C         -48.2596  -26.8372    7.1822 C.2       2 UNK         0.5006 
     76 O         -48.4278  -27.1093    8.3711 O.2       2 UNK        -0.5106 
     77 CA        -47.4019  -27.7622    6.2967 C.3       2 UNK         0.0296 
     78 CB        -46.5383  -28.7243    7.1339 C.3       2 UNK        -0.2002 
     79 N         -48.2010  -28.5501    5.3558 N.am      2 UNK        -0.4032 
     80 C         -48.8773  -28.0864    4.2998 C.2       1 UNK         0.5000 
     81 O         -48.9032  -26.8927    3.9897 O.2       1 UNK        -0.5238 
     82 H82       -46.3463  -32.1914    2.9473 H         1 UNK         0.0889 
     83 H83       -47.5641  -32.0689    1.6763 H         1 UNK         0.0889 
     84 H84       -47.7821  -33.2170    2.9977 H         1 UNK         0.0889 
     85 H85       -48.8242  -30.3023    1.9037 H         1 UNK         0.3028 
     86 H86       -49.7989  -28.5349    2.4961 H         1 UNK         0.0864 
     87 H87       -51.7417  -29.4331    3.0745 H         1 UNK         0.0720 
     88 H88       -51.4536  -28.6254    4.5657 H         1 UNK         0.0720 
     89 H89       -50.1001  -30.3104    6.6774 H         1 UNK         0.0814 
     90 H90       -51.2392  -31.5622    7.1022 H         1 UNK         0.0814 
     91 H91       -50.6091  -28.5641    8.1907 H         1 UNK         0.1469 
     92 H92       -54.5565  -26.9379    8.4479 H         1 UNK         0.1381 
     93 H93       -53.8452  -30.4702    6.1188 H         1 UNK         0.1206 
     94 H94       -56.0220  -28.0840    6.0595 H         1 UNK         0.0813 
     95 H95       -56.1062  -29.7751    6.4831 H         1 UNK         0.0813 
     96 H96       -58.1096  -30.0239    9.5112 H         1 UNK         0.0638 
     97 H97       -56.8992  -30.7772    8.5359 H         1 UNK         0.0638 
     98 H98       -56.6824  -30.6959   11.1458 H         1 UNK         0.0568 
     99 H99       -52.7991  -30.5670   10.3724 H         1 UNK         0.3450 
    100 H100      -53.6673  -29.1471   10.8922 H         1 UNK         0.3450 
    101 H101      -56.2673  -27.8987   10.6276 H         1 UNK         0.2987 
    102 H102      -55.2795  -26.5173   12.3646 H         1 UNK         0.0766 
    103 H103      -57.2840  -25.5613   13.5500 H         1 UNK         0.0798 
    104 H104      -57.8999  -27.1865   13.8429 H         1 UNK         0.0798 
    105 H105      -57.7903  -26.5631   12.2016 H         1 UNK         0.0798 
    106 H106      -55.1758  -28.0741   14.7772 H         1 UNK         0.3198 
    107 H107      -54.7013  -26.5204   17.0293 H         1 UNK         0.0843 
    108 H108      -52.3721  -27.7484   15.4394 H         1 UNK         0.0831 
    109 H109      -53.7383  -28.6113   16.1377 H         1 UNK         0.0831 
    110 H110      -52.5425  -27.8834   17.1874 H         1 UNK         0.0831 
    111 H111      -52.3784  -25.0115   15.9176 H         1 UNK         0.3133 
    112 H112      -51.9172  -22.9505   17.2670 H         1 UNK         0.0566 
    113 H113      -50.8863  -22.3741   19.4743 H         1 UNK         0.0814 
    114 H114      -52.6366  -22.4857   19.5780 H         1 UNK         0.0814 
    115 H115      -51.6427  -23.7886   20.2060 H         1 UNK         0.0814 
    116 H116      -50.1154  -24.1293   16.7822 H         1 UNK         0.3091 
    117 H117      -48.0531  -26.4316   18.3538 H         1 UNK         0.0702 
    118 H118      -49.7511  -28.1013   17.6135 H         1 UNK         0.0785 
    119 H119      -49.9923  -27.2150   16.1139 H         1 UNK         0.0785 
    120 H120      -48.4417  -27.9834   16.4481 H         1 UNK         0.0785 
    121 H121      -48.2598  -25.5380   15.6178 H         1 UNK         0.2998 
    122 H122      -46.1575  -22.6505   16.1356 H         1 UNK         0.0697 
    123 H123      -45.8656  -25.2995   14.6195 H         1 UNK         0.0825 
    124 H124      -44.7265  -24.6734   15.8043 H         1 UNK         0.0825 
    125 H125      -44.9778  -23.8137   14.2929 H         1 UNK         0.0825 
    126 H126      -47.4571  -23.5538   13.7860 H         1 UNK         0.3029 
    127 H127      -50.4568  -21.6110   14.1600 H         1 UNK         0.0897 
    128 H128      -49.6577  -20.8774   11.9186 H         1 UNK         0.0792 
    129 H129      -48.0373  -21.4725   12.2773 H         1 UNK         0.0792 
    130 H130      -48.7071  -20.1318   13.1931 H         1 UNK         0.0792 
    131 H131      -49.5989  -23.4469   12.1431 H         1 UNK         0.3086 
    132 H132      -51.1550  -26.3478   13.5399 H         1 UNK         0.0583 
    133 H133      -52.9556  -24.9748   12.4231 H         1 UNK         0.1020 
    134 H134      -51.8599  -24.5854   11.1323 H         1 UNK         0.1020 
    135 H135      -52.4199  -25.5978    9.0410 H         1 UNK         0.0694 
    136 H136      -50.9557  -26.5122    9.3607 H         1 UNK         0.0694 
    137 H137      -49.6774  -25.8945   11.1324 H         1 UNK         0.2989 
    138 H138      -46.4414  -26.5597   12.4490 H         1 UNK         0.1055 
    139 H139      -47.3631  -28.8154   12.0919 H         1 UNK         0.0806 
    140 H140      -46.5501  -28.2907   10.6254 H         1 UNK         0.0806 
    141 H141      -48.3105  -28.2693   10.7187 H         1 UNK         0.0806 
    142 H142      -47.4377  -26.0310    9.8066 H         1 UNK         0.3061 
    143 H143      -47.3795  -22.5051    9.9828 H         1 UNK         0.0734 
    144 H144      -45.4336  -22.5001    8.4412 H         1 UNK         0.0832 
    145 H145      -44.9024  -22.8209   10.0825 H         1 UNK         0.0832 
    146 H146      -45.0091  -24.1424    8.9288 H         1 UNK         0.0832 
    147 H147      -47.1873  -24.2198    7.7231 H         1 UNK         0.3156 
    148 H148      -50.5661  -25.2201    7.4807 H         1 UNK         0.0589 
    149 H149      -49.0346  -23.1191    5.8712 H         1 UNK         0.0808 
    150 H150      -50.4489  -24.0250    5.3331 H         1 UNK         0.0808 
    151 H151      -50.5935  -22.8690    6.6461 H         1 UNK         0.0808 
    152 H152      -48.6576  -25.6813    5.5863 H         1 UNK         0.3098 
    153 H153      -46.7261  -27.1278    5.7196 H         1 UNK         0.0720 
    154 H154      -45.8736  -29.3130    6.5014 H         1 UNK         0.0791 
    155 H155      -47.1516  -29.4184    7.7105 H         1 UNK         0.0791 
    156 H156      -45.9130  -28.1767    7.8404 H         1 UNK         0.0791 
    157 H157      -48.1849  -29.5629    5.4688 H         1 UNK         0.3028 
@<TRIPOS>BOND
     1    1    2 1    
     2    1   82 1    
     3    1   83 1    
     4    1   84 1    
     5    2    3 2    
     6    2    4 am   BACKBONE|DICT|INTERRES
     7    4    5 1    
     8    4   85 1    
     9    5    6 1    
    10    5   80 1    
    11    5   86 1    
    12    6    7 1    
    13    6   87 1    
    14    6   88 1    
    15    7    8 1    
    16    8    9 1    
    17    8   89 1    
    18    8   90 1    
    19    9   10 ar   
    20    9   14 ar   
    21   10   11 ar   
    22   10   91 1    
    23   11   12 ar   
    24   11   58 1    
    25   12   13 ar   
    26   12   92 1    
    27   13   14 ar   
    28   13   15 1    
    29   14   93 1    
    30   15   16 1    
    31   15   94 1    
    32   15   95 1    
    33   16   17 1    
    34   17   18 1    
    35   17   96 1    
    36   17   97 1    
    37   18   19 1    
    38   18   22 1    
    39   18   98 1    
    40   19   20 am   BACKBONE|DICT|INTERRES
    41   19   21 2    
    42   20   99 1    
    43   20  100 1    
    44   22   23 am   BACKBONE|DICT|INTERRES
    45   22  101 1    
    46   23   24 2    
    47   23   25 1    
    48   25   26 1    
    49   25   27 1    
    50   25  102 1    
    51   26  103 1    
    52   26  104 1    
    53   26  105 1    
    54   27   28 am   BACKBONE|DICT|INTERRES
    55   27  106 1    
    56   28   29 2    
    57   28   30 1    
    58   30   31 1    
    59   30   32 1    
    60   30  107 1    
    61   31  108 1    
    62   31  109 1    
    63   31  110 1    
    64   32   33 am   BACKBONE|DICT|INTERRES
    65   32  111 1    
    66   33   34 2    
    67   33   35 1    
    68   35   36 1    
    69   35   37 1    
    70   35  112 1    
    71   36  113 1    
    72   36  114 1    
    73   36  115 1    
    74   37   38 am   BACKBONE|DICT|INTERRES
    75   37  116 1    
    76   38   39 2    
    77   38   40 1    
    78   40   41 1    
    79   40   42 1    
    80   40  117 1    
    81   41  118 1    
    82   41  119 1    
    83   41  120 1    
    84   42   43 am   BACKBONE|DICT|INTERRES
    85   42  121 1    
    86   43   44 2    
    87   43   45 1    
    88   45   46 1    
    89   45   47 1    
    90   45  122 1    
    91   46  123 1    
    92   46  124 1    
    93   46  125 1    
    94   47   48 am   BACKBONE|DICT|INTERRES
    95   47  126 1    
    96   48   49 2    
    97   48   50 1    
    98   50   51 1    
    99   50   52 1    
   100   50  127 1    
   101   51  128 1    
   102   51  129 1    
   103   51  130 1    
   104   52   53 am   BACKBONE|DICT|INTERRES
   105   52  131 1    
   106   53   54 2    
   107   53   55 1    
   108   55   56 1    
   109   55   59 1    
   110   55  132 1    
   111   56   57 1    
   112   56  133 1    
   113   56  134 1    
   114   57   58 1    
   115   58  135 1    
   116   58  136 1    
   117   59   60 am   BACKBONE|DICT|INTERRES
   118   59  137 1    
   119   60   61 2    
   120   60   62 1    
   121   62   63 1    
   122   62   64 1    
   123   62  138 1    
   124   63  139 1    
   125   63  140 1    
   126   63  141 1    
   127   64   65 am   BACKBONE|DICT|INTERRES
   128   64  142 1    
   129   65   66 2    
   130   65   67 1    
   131   67   68 1    
   132   67   69 1    
   133   67  143 1    
   134   68  144 1    
   135   68  145 1    
   136   68  146 1    
   137   69   70 am   BACKBONE|DICT|INTERRES
   138   69  147 1    
   139   70   71 2    
   140   70   72 1    
   141   72   73 1    
   142   72   74 1    
   143   72  148 1    
   144   73  149 1    
   145   73  150 1    
   146   73  151 1    
   147   74   75 am   BACKBONE|DICT|INTERRES
   148   74  152 1    
   149   75   76 2    
   150   75   77 1    
   151   77   78 1    
   152   77   79 1    
   153   77  153 1    
   154   78  154 1    
   155   78  155 1    
   156   78  156 1    
   157   79   80 am   BACKBONE|DICT|INTERRES
   158   79  157 1    
   159   80   81 2    
@<TRIPOS>SUBSTRUCTURE
     1 UNK         1 GROUP             0       ****    0 ROOT    
