@<TRIPOS>MOLECULE
3R207
157   159    1
SMALL
USER_CHARGES


@<TRIPOS>ATOM
      1 CA        -51.3064  -24.0859    3.2469 C.3       0 UNK        -0.1975 
      2 C         -51.2190  -24.1533    4.7640 C.2       0 UNK         0.4852 
      3 O         -51.4836  -23.1576    5.4394 O.2       0 UNK        -0.5216 
      4 N         -50.8312  -25.3135    5.3097 N.am      1 UNK        -0.4461 
      5 CA        -50.7191  -25.6067    6.7462 C.3       1 UNK         0.0864 
      6 C6        -50.7700  -27.1348    7.0093 C.3       14 UNK        -0.0898 
      7 S7        -52.3687  -27.8673    6.5271 S.3       14 UNK        -0.2598 
      8 C8        -53.2896  -27.7775    8.0953 C.3       14 UNK         0.0286 
      9 C9        -52.9049  -28.8956    9.0538 C.ar      14 UNK        -0.0844 
     10 C10       -51.9314  -28.6895   10.0359 C.ar      14 UNK        -0.0881 
     11 C11       -51.5980  -29.7066   10.9336 C.ar      14 UNK        -0.0643 
     12 C12       -52.2536  -30.9382   10.8508 C.ar      14 UNK        -0.0930 
     13 C13       -53.2401  -31.1524    9.8832 C.ar      14 UNK        -0.0827 
     14 C14       -53.5543  -30.1312    8.9818 C.ar      14 UNK        -0.1249 
     15 C15       -53.9604  -32.4905    9.8124 C.3       14 UNK         0.0141 
     16 S16       -55.2256  -32.6564   11.1131 S.3       14 UNK        -0.2313 
     17 C17       -56.5872  -31.6124   10.4772 C.3       14 UNK        -0.0915 
     18 CA        -57.1622  -30.6036   11.5128 C.3       13 UNK         0.0968 
     19 C         -57.8558  -31.2820   12.7244 C.2       13 UNK         0.5732 
     20 N         -58.9368  -32.0140   12.4914 N.am      13 UNK        -0.7310 
     21 O         -57.4283  -31.1534   13.8716 O.2       13 UNK        -0.5035 
     22 N         -56.1644  -29.6288   11.9595 N.am      13 UNK        -0.4233 
     23 C         -55.8562  -28.4855   11.3410 C.2       13 UNK         0.4989 
     24 O         -56.3601  -28.1239   10.2756 O.2       13 UNK        -0.4996 
     25 CA        -54.8072  -27.6006   12.0432 C.3       12 UNK         0.0216 
     26 CB        -54.7355  -26.1676   11.4718 C.3       12 UNK        -0.1964 
     27 N         -54.9532  -27.5763   13.5040 N.am      12 UNK        -0.4276 
     28 C         -55.9854  -27.1017   14.2189 C.2       12 UNK         0.5020 
     29 O         -57.0092  -26.6301   13.7225 O.2       12 UNK        -0.5489 
     30 CA        -55.8673  -27.1696   15.7567 C.3       11 UNK         0.0294 
     31 CB        -56.8609  -28.1980   16.3239 C.3       11 UNK        -0.2019 
     32 N         -54.5205  -27.4908   16.2484 N.am      11 UNK        -0.4493 
     33 C         -53.4541  -26.6828   16.1682 C.2       11 UNK         0.4932 
     34 O         -53.4904  -25.5480   15.6896 O.2       11 UNK        -0.5029 
     35 CA        -52.1262  -27.2881   16.6545 C.3       10 UNK         0.0280 
     36 CB        -51.6895  -28.4443   15.7365 C.3       10 UNK        -0.1976 
     37 N         -51.0498  -26.2987   16.6867 N.am      10 UNK        -0.4242 
     38 C         -50.8489  -25.4104   17.6676 C.2       10 UNK         0.5072 
     39 O         -51.5585  -25.3273   18.6717 O.2       10 UNK        -0.5224 
     40 CA        -49.6397  -24.4736   17.5275 C.3       9 UNK         0.0343 
     41 CB        -48.3460  -25.2069   17.9215 C.3       9 UNK        -0.2003 
     42 N         -49.4941  -23.9451   16.1678 N.am      9 UNK        -0.4272 
     43 C         -49.4967  -22.6410   15.8520 C.2       9 UNK         0.4988 
     44 O         -49.6767  -21.7396   16.6723 O.2       9 UNK        -0.5108 
     45 CA        -49.2232  -22.2505   14.3858 C.3       8 UNK         0.0248 
     46 CB        -47.7804  -21.7422   14.2302 C.3       8 UNK        -0.2001 
     47 N         -49.4480  -23.3422   13.4375 N.am      8 UNK        -0.4140 
     48 C         -50.6600  -23.7703   13.0540 C.2       8 UNK         0.5028 
     49 O         -51.7100  -23.2216   13.3875 O.2       8 UNK        -0.5428 
     50 CA        -50.7261  -25.0204   12.1535 C.3       7 UNK         0.0264 
     51 CB        -51.0172  -24.6091   10.7003 C.3       7 UNK        -0.1988 
     52 N         -49.5256  -25.8639   12.1796 N.am      7 UNK        -0.4454 
     53 C         -49.0033  -26.4536   13.2666 C.2       7 UNK         0.5027 
     54 O         -49.4761  -26.3386   14.3977 O.2       7 UNK        -0.5083 
     55 CA        -47.7080  -27.2685   13.0747 C.3       6 UNK         0.0844 
     56 C56       -47.9974  -28.7812   12.8970 C.3       14 UNK        -0.0967 
     57 S57       -48.8923  -29.2155   11.3605 S.3       14 UNK        -0.2604 
     58 C58       -50.5721  -29.4484   12.0250 C.3       14 UNK         0.0134 
     59 N         -46.8193  -26.7452   12.0317 N.am      6 UNK        -0.4116 
     60 C         -46.3276  -25.5012   11.9535 C.2       5 UNK         0.5034 
     61 O         -46.6380  -24.5971   12.7307 O.2       5 UNK        -0.5045 
     62 CA        -45.3385  -25.1898   10.8155 C.3       5 UNK         0.0224 
     63 CB        -43.8839  -25.3712   11.2892 C.3       5 UNK        -0.1978 
     64 N         -45.5806  -25.9020    9.5509 N.am      5 UNK        -0.4737 
     65 C         -45.4940  -27.2131    9.2743 C.2       4 UNK         0.5027 
     66 O         -45.2010  -28.0654   10.1126 O.2       4 UNK        -0.5211 
     67 CA        -45.8216  -27.6643    7.8388 C.3       4 UNK         0.0297 
     68 CB        -47.0418  -28.6029    7.8348 C.3       4 UNK        -0.1993 
     69 N         -46.0866  -26.5301    6.9493 N.am      4 UNK        -0.4486 
     70 C         -45.1584  -25.9078    6.2070 C.2       3 UNK         0.4961 
     71 O         -43.9867  -26.2781    6.1305 O.2       3 UNK        -0.5105 
     72 CA        -45.5933  -24.6526    5.4230 C.3       3 UNK         0.0299 
     73 CB        -45.8933  -25.0148    3.9594 C.3       3 UNK        -0.1972 
     74 N         -46.7562  -23.9664    5.9925 N.am      3 UNK        -0.4305 
     75 C         -46.7905  -23.3602    7.1886 C.2       2 UNK         0.5006 
     76 O         -45.8150  -23.2569    7.9314 O.2       2 UNK        -0.5106 
     77 CA        -48.1603  -22.8447    7.6691 C.3       2 UNK         0.0296 
     78 CB        -48.3567  -21.3751    7.2661 C.3       2 UNK        -0.2002 
     79 N         -49.2971  -23.6388    7.1863 N.am      2 UNK        -0.4032 
     80 C         -49.4697  -24.9535    7.3820 C.2       1 UNK         0.5000 
     81 O         -48.6648  -25.6426    8.0109 O.2       1 UNK        -0.5238 
     82 H82       -51.0345  -25.0324    2.7801 H         1 UNK         0.0889 
     83 H83       -50.6372  -23.3147    2.8662 H         1 UNK         0.0889 
     84 H84       -52.3223  -23.8368    2.9417 H         1 UNK         0.0889 
     85 H85       -50.6266  -26.0932    4.7006 H         1 UNK         0.3028 
     86 H86       -51.5768  -25.1559    7.2504 H         1 UNK         0.0864 
     87 H87       -49.9797  -27.6434    6.4540 H         1 UNK         0.0720 
     88 H88       -50.5803  -27.3614    8.0574 H         1 UNK         0.0720 
     89 H89       -54.3581  -27.8351    7.8807 H         1 UNK         0.0814 
     90 H90       -53.1288  -26.8027    8.5568 H         1 UNK         0.0814 
     91 H91       -51.4356  -27.7344   10.1190 H         1 UNK         0.1469 
     92 H92       -52.0120  -31.7268   11.5503 H         1 UNK         0.1381 
     93 H93       -54.3149  -30.2911    8.2299 H         1 UNK         0.1206 
     94 H94       -53.2332  -33.2954    9.9273 H         1 UNK         0.0813 
     95 H95       -54.4198  -32.6363    8.8334 H         1 UNK         0.0813 
     96 H96       -57.3751  -32.2728   10.1124 H         1 UNK         0.0638 
     97 H97       -56.2433  -31.0650    9.5994 H         1 UNK         0.0638 
     98 H98       -57.9574  -30.0425   11.0181 H         1 UNK         0.0568 
     99 H99       -59.3983  -32.4627   13.2670 H         1 UNK         0.3450 
    100 H100      -59.2993  -32.1297   11.5581 H         1 UNK         0.3450 
    101 H101      -55.7513  -29.8399   12.8568 H         1 UNK         0.2987 
    102 H102      -53.8460  -28.0753   11.8549 H         1 UNK         0.0766 
    103 H103      -53.9727  -25.5750   11.9763 H         1 UNK         0.0798 
    104 H104      -55.6864  -25.6441   11.5745 H         1 UNK         0.0798 
    105 H105      -54.4887  -26.1799   10.4108 H         1 UNK         0.0798 
    106 H106      -54.1759  -27.9495   14.0283 H         1 UNK         0.3198 
    107 H107      -56.1383  -26.1836   16.1407 H         1 UNK         0.0843 
    108 H108      -56.6406  -29.2084   15.9763 H         1 UNK         0.0831 
    109 H109      -57.8816  -27.9664   16.0156 H         1 UNK         0.0831 
    110 H110      -56.8496  -28.2051   17.4139 H         1 UNK         0.0831 
    111 H111      -54.4030  -28.4037   16.6658 H         1 UNK         0.3133 
    112 H112      -52.2754  -27.6800   17.6629 H         1 UNK         0.0566 
    113 H113      -51.6039  -28.1161   14.7013 H         1 UNK         0.0814 
    114 H114      -50.7221  -28.8469   16.0381 H         1 UNK         0.0814 
    115 H115      -52.4002  -29.2708   15.7623 H         1 UNK         0.0814 
    116 H116      -50.4378  -26.2867   15.8731 H         1 UNK         0.3091 
    117 H117      -49.7885  -23.6591   18.2394 H         1 UNK         0.0702 
    118 H118      -47.4920  -24.5295   17.9158 H         1 UNK         0.0785 
    119 H119      -48.1238  -26.0304   17.2413 H         1 UNK         0.0785 
    120 H120      -48.4225  -25.6233   18.9269 H         1 UNK         0.0785 
    121 H121      -49.3794  -24.6267   15.4257 H         1 UNK         0.2998 
    122 H122      -49.8992  -21.4306   14.1337 H         1 UNK         0.0697 
    123 H123      -47.0517  -22.5114   14.4896 H         1 UNK         0.0825 
    124 H124      -47.5953  -20.8863   14.8807 H         1 UNK         0.0825 
    125 H125      -47.5791  -21.4211   13.2080 H         1 UNK         0.0825 
    126 H126      -48.6249  -23.8391   13.1144 H         1 UNK         0.3029 
    127 H127      -51.5564  -25.6297   12.5166 H         1 UNK         0.0897 
    128 H128      -51.9351  -24.0228   10.6368 H         1 UNK         0.0792 
    129 H129      -51.1455  -25.4748   10.0532 H         1 UNK         0.0792 
    130 H130      -50.2123  -23.9986   10.2888 H         1 UNK         0.0792 
    131 H131      -49.0557  -26.0123   11.2975 H         1 UNK         0.3086 
    132 H132      -47.1524  -27.1613   14.0086 H         1 UNK         0.0583 
    133 H133      -47.0534  -29.3286   12.8924 H         1 UNK         0.1020 
    134 H134      -48.5412  -29.1653   13.7626 H         1 UNK         0.1020 
    135 H135      -50.5622  -30.2651   12.7486 H         1 UNK         0.0694 
    136 H136      -50.8721  -28.5539   12.5687 H         1 UNK         0.0694 
    137 H137      -46.4672  -27.4190   11.3571 H         1 UNK         0.2989 
    138 H138      -45.4743  -24.1321   10.5820 H         1 UNK         0.1055 
    139 H139      -43.6823  -24.7582   12.1688 H         1 UNK         0.0806 
    140 H140      -43.1760  -25.0706   10.5167 H         1 UNK         0.0806 
    141 H141      -43.6670  -26.4050   11.5598 H         1 UNK         0.0806 
    142 H142      -45.8429  -25.2946    8.7839 H         1 UNK         0.3061 
    143 H143      -44.9623  -28.2282    7.4700 H         1 UNK         0.0734 
    144 H144      -47.3015  -28.9167    6.8238 H         1 UNK         0.0832 
    145 H145      -46.8394  -29.5063    8.4117 H         1 UNK         0.0832 
    146 H146      -47.9201  -28.1329    8.2780 H         1 UNK         0.0832 
    147 H147      -47.0220  -26.1396    7.0107 H         1 UNK         0.3156 
    148 H148      -44.7553  -23.9526    5.4373 H         1 UNK         0.0589 
    149 H149      -46.7382  -25.6998    3.8769 H         1 UNK         0.0808 
    150 H150      -46.1192  -24.1274    3.3678 H         1 UNK         0.0808 
    151 H151      -45.0343  -25.5007    3.4941 H         1 UNK         0.0808 
    152 H152      -47.6079  -23.9951    5.4517 H         1 UNK         0.3098 
    153 H153      -48.1632  -22.9044    8.7595 H         1 UNK         0.0720 
    154 H154      -49.2768  -20.9685    7.6862 H         1 UNK         0.0791 
    155 H155      -48.4012  -21.2556    6.1828 H         1 UNK         0.0791 
    156 H156      -47.5350  -20.7565    7.6302 H         1 UNK         0.0791 
    157 H157      -50.0093  -23.1568    6.6424 H         1 UNK         0.3028 
@<TRIPOS>BOND
     1    1    2 1    
     2    1   82 1    
     3    1   83 1    
     4    1   84 1    
     5    2    3 2    
     6    2    4 am   BACKBONE|DICT|INTERRES
     7    4    5 1    
     8    4   85 1    
     9    5    6 1    
    10    5   80 1    
    11    5   86 1    
    12    6    7 1    
    13    6   87 1    
    14    6   88 1    
    15    7    8 1    
    16    8    9 1    
    17    8   89 1    
    18    8   90 1    
    19    9   10 ar   
    20    9   14 ar   
    21   10   11 ar   
    22   10   91 1    
    23   11   12 ar   
    24   11   58 1    
    25   12   13 ar   
    26   12   92 1    
    27   13   14 ar   
    28   13   15 1    
    29   14   93 1    
    30   15   16 1    
    31   15   94 1    
    32   15   95 1    
    33   16   17 1    
    34   17   18 1    
    35   17   96 1    
    36   17   97 1    
    37   18   19 1    
    38   18   22 1    
    39   18   98 1    
    40   19   20 am   BACKBONE|DICT|INTERRES
    41   19   21 2    
    42   20   99 1    
    43   20  100 1    
    44   22   23 am   BACKBONE|DICT|INTERRES
    45   22  101 1    
    46   23   24 2    
    47   23   25 1    
    48   25   26 1    
    49   25   27 1    
    50   25  102 1    
    51   26  103 1    
    52   26  104 1    
    53   26  105 1    
    54   27   28 am   BACKBONE|DICT|INTERRES
    55   27  106 1    
    56   28   29 2    
    57   28   30 1    
    58   30   31 1    
    59   30   32 1    
    60   30  107 1    
    61   31  108 1    
    62   31  109 1    
    63   31  110 1    
    64   32   33 am   BACKBONE|DICT|INTERRES
    65   32  111 1    
    66   33   34 2    
    67   33   35 1    
    68   35   36 1    
    69   35   37 1    
    70   35  112 1    
    71   36  113 1    
    72   36  114 1    
    73   36  115 1    
    74   37   38 am   BACKBONE|DICT|INTERRES
    75   37  116 1    
    76   38   39 2    
    77   38   40 1    
    78   40   41 1    
    79   40   42 1    
    80   40  117 1    
    81   41  118 1    
    82   41  119 1    
    83   41  120 1    
    84   42   43 am   BACKBONE|DICT|INTERRES
    85   42  121 1    
    86   43   44 2    
    87   43   45 1    
    88   45   46 1    
    89   45   47 1    
    90   45  122 1    
    91   46  123 1    
    92   46  124 1    
    93   46  125 1    
    94   47   48 am   BACKBONE|DICT|INTERRES
    95   47  126 1    
    96   48   49 2    
    97   48   50 1    
    98   50   51 1    
    99   50   52 1    
   100   50  127 1    
   101   51  128 1    
   102   51  129 1    
   103   51  130 1    
   104   52   53 am   BACKBONE|DICT|INTERRES
   105   52  131 1    
   106   53   54 2    
   107   53   55 1    
   108   55   56 1    
   109   55   59 1    
   110   55  132 1    
   111   56   57 1    
   112   56  133 1    
   113   56  134 1    
   114   57   58 1    
   115   58  135 1    
   116   58  136 1    
   117   59   60 am   BACKBONE|DICT|INTERRES
   118   59  137 1    
   119   60   61 2    
   120   60   62 1    
   121   62   63 1    
   122   62   64 1    
   123   62  138 1    
   124   63  139 1    
   125   63  140 1    
   126   63  141 1    
   127   64   65 am   BACKBONE|DICT|INTERRES
   128   64  142 1    
   129   65   66 2    
   130   65   67 1    
   131   67   68 1    
   132   67   69 1    
   133   67  143 1    
   134   68  144 1    
   135   68  145 1    
   136   68  146 1    
   137   69   70 am   BACKBONE|DICT|INTERRES
   138   69  147 1    
   139   70   71 2    
   140   70   72 1    
   141   72   73 1    
   142   72   74 1    
   143   72  148 1    
   144   73  149 1    
   145   73  150 1    
   146   73  151 1    
   147   74   75 am   BACKBONE|DICT|INTERRES
   148   74  152 1    
   149   75   76 2    
   150   75   77 1    
   151   77   78 1    
   152   77   79 1    
   153   77  153 1    
   154   78  154 1    
   155   78  155 1    
   156   78  156 1    
   157   79   80 am   BACKBONE|DICT|INTERRES
   158   79  157 1    
   159   80   81 2    
@<TRIPOS>SUBSTRUCTURE
     1 UNK         1 GROUP             0       ****    0 ROOT    
