@<TRIPOS>MOLECULE
3R207
157   159    1
SMALL
USER_CHARGES


@<TRIPOS>ATOM
      1 CA        -46.9976  -32.2024    7.4558 C.3       0 UNK        -0.1975 
      2 C         -47.1247  -30.6865    7.4576 C.2       0 UNK         0.4852 
      3 O         -46.1860  -29.9908    7.0692 O.2       0 UNK        -0.5216 
      4 N         -48.2687  -30.1628    7.9154 N.am      1 UNK        -0.4461 
      5 CA        -48.6337  -28.7362    7.9415 C.3       1 UNK         0.0864 
      6 C6        -50.1746  -28.5728    7.9291 C.3       14 UNK        -0.0898 
      7 S7        -50.8827  -29.1250    6.3413 S.3       14 UNK        -0.2598 
      8 C8        -52.6234  -29.4094    6.7904 C.3       14 UNK         0.0286 
      9 C9        -53.2906  -28.1778    7.3902 C.ar      14 UNK        -0.0844 
     10 C10       -53.3609  -26.9800    6.6719 C.ar      14 UNK        -0.0881 
     11 C11       -53.9816  -25.8563    7.2248 C.ar      14 UNK        -0.0643 
     12 C12       -54.5579  -25.9464    8.4963 C.ar      14 UNK        -0.0930 
     13 C13       -54.5120  -27.1424    9.2206 C.ar      14 UNK        -0.0827 
     14 C14       -53.8586  -28.2475    8.6645 C.ar      14 UNK        -0.1249 
     15 C15       -55.1450  -27.2049   10.6089 C.3       14 UNK         0.0141 
     16 S16       -56.1232  -28.7110   10.9301 S.3       14 UNK        -0.2313 
     17 C17       -54.8593  -29.8540   11.5921 C.3       14 UNK        -0.0915 
     18 CA        -55.2310  -30.4290   12.9855 C.3       13 UNK         0.0968 
     19 C         -54.2715  -31.5762   13.4224 C.2       13 UNK         0.5732 
     20 N         -53.8358  -31.6545   14.6748 N.am      13 UNK        -0.7310 
     21 O         -53.9254  -32.4333   12.6127 O.2       13 UNK        -0.5035 
     22 N         -55.3586  -29.3723   14.0023 N.am      13 UNK        -0.4233 
     23 C         -56.3714  -29.2747   14.8731 C.2       13 UNK         0.4989 
     24 O         -57.3628  -30.0074   14.8540 O.2       13 UNK        -0.4996 
     25 CA        -56.2520  -28.1831   15.9578 C.3       12 UNK         0.0216 
     26 CB        -57.2424  -28.3864   17.1241 C.3       12 UNK        -0.1964 
     27 N         -54.8887  -28.0090   16.4758 N.am      12 UNK        -0.4276 
     28 C         -54.0927  -28.9451   17.0202 C.2       12 UNK         0.5020 
     29 O         -54.4267  -30.1230   17.1554 O.2       12 UNK        -0.5489 
     30 CA        -52.6736  -28.5221   17.4500 C.3       11 UNK         0.0294 
     31 CB        -51.6184  -29.5086   16.9166 C.3       11 UNK        -0.2019 
     32 N         -52.3393  -27.1817   16.9688 N.am      11 UNK        -0.4493 
     33 C         -52.3761  -26.0569   17.6962 C.2       11 UNK         0.4932 
     34 O         -52.6063  -26.0283   18.9050 O.2       11 UNK        -0.5029 
     35 CA        -52.1504  -24.7320   16.9410 C.3       10 UNK         0.0280 
     36 CB        -50.6988  -24.2580   17.1113 C.3       10 UNK        -0.1976 
     37 N         -52.4744  -24.8222   15.5117 N.am      10 UNK        -0.4242 
     38 C         -53.7157  -25.0085   15.0316 C.2       10 UNK         0.5072 
     39 O         -54.7172  -25.0518   15.7459 O.2       10 UNK        -0.5224 
     40 CA        -53.8736  -25.2794   13.5245 C.3       9 UNK         0.0343 
     41 CB        -54.2002  -23.9828   12.7698 C.3       9 UNK        -0.2003 
     42 N         -52.6965  -25.9139   12.9259 N.am      9 UNK        -0.4272 
     43 C         -52.2246  -27.1245   13.2675 C.2       9 UNK         0.4988 
     44 O         -52.8271  -27.8846   14.0261 O.2       9 UNK        -0.5108 
     45 CA        -50.8462  -27.5552   12.7224 C.3       8 UNK         0.0248 
     46 CB        -51.0136  -28.6479   11.6567 C.3       8 UNK        -0.2001 
     47 N         -50.0345  -26.4648   12.1695 N.am      8 UNK        -0.4140 
     48 C         -49.6842  -25.3429   12.8168 C.2       8 UNK         0.5028 
     49 O         -49.9261  -25.1376   14.0068 O.2       8 UNK        -0.5428 
     50 CA        -49.0441  -24.2205   11.9824 C.3       7 UNK         0.0264 
     51 CB        -47.5175  -24.1926   12.1688 C.3       7 UNK        -0.1988 
     52 N         -49.3927  -24.2696   10.5537 N.am      7 UNK        -0.4454 
     53 C         -50.6377  -24.1354   10.0621 C.2       7 UNK         0.5027 
     54 O         -51.6167  -23.9422   10.7843 O.2       7 UNK        -0.5083 
     55 CA        -50.8285  -24.2541    8.5329 C.3       6 UNK         0.0844 
     56 C56       -52.0025  -23.3774    8.0193 C.3       14 UNK        -0.0967 
     57 S57       -52.4275  -23.7366    6.2804 S.3       14 UNK        -0.2604 
     58 C58       -54.0508  -24.5525    6.4393 C.3       14 UNK         0.0134 
     59 N         -49.5673  -23.9460    7.8541 N.am      6 UNK        -0.4116 
     60 C         -48.9304  -24.7065    6.9583 C.2       5 UNK         0.5034 
     61 O         -49.3800  -25.7505    6.4920 O.2       5 UNK        -0.5045 
     62 CA        -47.5265  -24.2530    6.5191 C.3       5 UNK         0.0224 
     63 CB        -47.5818  -23.4602    5.1982 C.3       5 UNK        -0.1978 
     64 N         -46.7562  -23.5432    7.5546 N.am      5 UNK        -0.4737 
     65 C         -46.9579  -22.3202    8.0675 C.2       4 UNK         0.5027 
     66 O         -47.8967  -21.5982    7.7323 O.2       4 UNK        -0.5211 
     67 CA        -46.0076  -21.8409    9.1812 C.3       4 UNK         0.0297 
     68 CB        -46.7631  -21.0273   10.2492 C.3       4 UNK        -0.1993 
     69 N         -45.2875  -22.9474    9.8247 N.am      4 UNK        -0.4486 
     70 C         -44.0592  -23.3538    9.4804 C.2       3 UNK         0.4961 
     71 O         -43.3967  -22.8422    8.5775 O.2       3 UNK        -0.5105 
     72 CA        -43.4611  -24.5339   10.2682 C.3       3 UNK         0.0299 
     73 CB        -42.7918  -24.0233   11.5550 C.3       3 UNK        -0.1972 
     74 N         -44.3714  -25.6390   10.6050 N.am      3 UNK        -0.4305 
     75 C         -45.1699  -26.3091    9.7603 C.2       2 UNK         0.5006 
     76 O         -45.4109  -25.9407    8.6088 O.2       2 UNK        -0.5106 
     77 CA        -45.7200  -27.6573   10.2710 C.3       2 UNK         0.0296 
     78 CB        -46.2632  -27.6380   11.7188 C.3       2 UNK        -0.2002 
     79 N         -46.6685  -28.2696    9.3364 N.am      2 UNK        -0.4032 
     80 C         -47.9438  -27.9434    9.0827 C.2       1 UNK         0.5000 
     81 O         -48.5660  -27.0729    9.6990 O.2       1 UNK        -0.5238 
     82 H82       -47.8984  -32.6878    7.8307 H         1 UNK         0.0889 
     83 H83       -46.1604  -32.5098    8.0818 H         1 UNK         0.0889 
     84 H84       -46.8161  -32.5612    6.4430 H         1 UNK         0.0889 
     85 H85       -48.9913  -30.7894    8.2397 H         1 UNK         0.3028 
     86 H86       -48.2547  -28.2802    7.0239 H         1 UNK         0.0864 
     87 H87       -50.4720  -27.5338    8.0695 H         1 UNK         0.0720 
     88 H88       -50.6282  -29.1351    8.7457 H         1 UNK         0.0720 
     89 H89       -53.1732  -29.7096    5.8975 H         1 UNK         0.0814 
     90 H90       -52.6728  -30.2548    7.4785 H         1 UNK         0.0814 
     91 H91       -52.9178  -26.9173    5.6872 H         1 UNK         0.1469 
     92 H92       -55.0456  -25.0804    8.9226 H         1 UNK         0.1381 
     93 H93       -53.8004  -29.1735    9.2156 H         1 UNK         0.1206 
     94 H94       -55.7994  -26.3459   10.7641 H         1 UNK         0.0813 
     95 H95       -54.3581  -27.1255   11.3499 H         1 UNK         0.0813 
     96 H96       -54.7523  -30.6587   10.8627 H         1 UNK         0.0638 
     97 H97       -53.8908  -29.3572   11.6398 H         1 UNK         0.0638 
     98 H98       -56.1959  -30.9231   12.8622 H         1 UNK         0.0568 
     99 H99       -54.1455  -31.0040   15.3885 H         1 UNK         0.3450 
    100 H100      -53.2237  -32.4131   14.9272 H         1 UNK         0.3450 
    101 H101      -54.5474  -28.7694   14.1083 H         1 UNK         0.2987 
    102 H102      -56.5119  -27.2449   15.4654 H         1 UNK         0.0766 
    103 H103      -57.1610  -27.5840   17.8573 H         1 UNK         0.0798 
    104 H104      -58.2735  -28.3934   16.7685 H         1 UNK         0.0798 
    105 H105      -57.0686  -29.3314   17.6402 H         1 UNK         0.0798 
    106 H106      -54.5261  -27.0657   16.3999 H         1 UNK         0.3198 
    107 H107      -52.6463  -28.5491   18.5413 H         1 UNK         0.0843 
    108 H108      -51.6424  -29.5777   15.8282 H         1 UNK         0.0831 
    109 H109      -51.7852  -30.5126   17.3092 H         1 UNK         0.0831 
    110 H110      -50.6121  -29.2118   17.2122 H         1 UNK         0.0831 
    111 H111      -52.1729  -27.1096   15.9726 H         1 UNK         0.3133 
    112 H112      -52.8072  -23.9819   17.3865 H         1 UNK         0.0566 
    113 H113      -49.9881  -24.9821   16.7110 H         1 UNK         0.0814 
    114 H114      -50.4569  -24.1138   18.1652 H         1 UNK         0.0814 
    115 H115      -50.5282  -23.3071   16.6063 H         1 UNK         0.0814 
    116 H116      -51.6846  -24.8344   14.8702 H         1 UNK         0.3091 
    117 H117      -54.7171  -25.9628   13.4086 H         1 UNK         0.0702 
    118 H118      -54.3751  -24.1731   11.7106 H         1 UNK         0.0785 
    119 H119      -53.3902  -23.2564   12.8485 H         1 UNK         0.0785 
    120 H120      -55.1008  -23.5140   13.1688 H         1 UNK         0.0785 
    121 H121      -52.1648  -25.3455   12.2750 H         1 UNK         0.2998 
    122 H122      -50.2897  -27.9765   13.5617 H         1 UNK         0.0697 
    123 H123      -51.5873  -28.2873   10.8020 H         1 UNK         0.0825 
    124 H124      -51.5357  -29.5144   12.0645 H         1 UNK         0.0825 
    125 H125      -50.0479  -28.9993   11.2932 H         1 UNK         0.0825 
    126 H126      -49.7243  -26.5710   11.2067 H         1 UNK         0.3029 
    127 H127      -49.4442  -23.2869   12.3846 H         1 UNK         0.0897 
    128 H128      -47.1316  -23.1785   12.0959 H         1 UNK         0.0792 
    129 H129      -47.2236  -24.5577   13.1547 H         1 UNK         0.0792 
    130 H130      -47.0098  -24.8043   11.4282 H         1 UNK         0.0792 
    131 H131      -48.6645  -24.5467    9.9107 H         1 UNK         0.3086 
    132 H132      -51.0902  -25.2992    8.3596 H         1 UNK         0.0583 
    133 H133      -52.8961  -23.5188    8.6292 H         1 UNK         0.1020 
    134 H134      -51.7512  -22.3187    8.1036 H         1 UNK         0.1020 
    135 H135      -54.7555  -23.8579    6.8991 H         1 UNK         0.0694 
    136 H136      -54.4373  -24.7593    5.4404 H         1 UNK         0.0694 
    137 H137      -49.1318  -23.0600    8.0919 H         1 UNK         0.2989 
    138 H138      -46.9646  -25.1687    6.3249 H         1 UNK         0.1055 
    139 H139      -46.5835  -23.1867    4.8569 H         1 UNK         0.0806 
    140 H140      -48.1687  -22.5461    5.2920 H         1 UNK         0.0806 
    141 H141      -48.0424  -24.0565    4.4095 H         1 UNK         0.0806 
    142 H142      -46.0047  -24.0987    7.9542 H         1 UNK         0.3061 
    143 H143      -45.2895  -21.1663    8.7102 H         1 UNK         0.0734 
    144 H144      -47.1067  -20.0779    9.8362 H         1 UNK         0.0832 
    145 H145      -47.6480  -21.5497   10.6125 H         1 UNK         0.0832 
    146 H146      -46.1276  -20.7923   11.1032 H         1 UNK         0.0832 
    147 H147      -45.7615  -23.4367   10.5683 H         1 UNK         0.3156 
    148 H148      -42.6801  -24.9643    9.6380 H         1 UNK         0.0589 
    149 H149      -43.5241  -23.6400   12.2668 H         1 UNK         0.0808 
    150 H150      -42.2232  -24.8115   12.0488 H         1 UNK         0.0808 
    151 H151      -42.0931  -23.2133   11.3391 H         1 UNK         0.0808 
    152 H152      -44.2476  -26.0305   11.5276 H         1 UNK         0.3098 
    153 H153      -44.8582  -28.3262   10.2701 H         1 UNK         0.0720 
    154 H154      -46.5339  -28.6439   12.0397 H         1 UNK         0.0791 
    155 H155      -45.5226  -27.2727   12.4300 H         1 UNK         0.0791 
    156 H156      -47.1519  -27.0209   11.8263 H         1 UNK         0.0791 
    157 H157      -46.2615  -28.9435    8.6939 H         1 UNK         0.3028 
@<TRIPOS>BOND
     1    1    2 1    
     2    1   82 1    
     3    1   83 1    
     4    1   84 1    
     5    2    3 2    
     6    2    4 am   BACKBONE|DICT|INTERRES
     7    4    5 1    
     8    4   85 1    
     9    5    6 1    
    10    5   80 1    
    11    5   86 1    
    12    6    7 1    
    13    6   87 1    
    14    6   88 1    
    15    7    8 1    
    16    8    9 1    
    17    8   89 1    
    18    8   90 1    
    19    9   10 ar   
    20    9   14 ar   
    21   10   11 ar   
    22   10   91 1    
    23   11   12 ar   
    24   11   58 1    
    25   12   13 ar   
    26   12   92 1    
    27   13   14 ar   
    28   13   15 1    
    29   14   93 1    
    30   15   16 1    
    31   15   94 1    
    32   15   95 1    
    33   16   17 1    
    34   17   18 1    
    35   17   96 1    
    36   17   97 1    
    37   18   19 1    
    38   18   22 1    
    39   18   98 1    
    40   19   20 am   BACKBONE|DICT|INTERRES
    41   19   21 2    
    42   20   99 1    
    43   20  100 1    
    44   22   23 am   BACKBONE|DICT|INTERRES
    45   22  101 1    
    46   23   24 2    
    47   23   25 1    
    48   25   26 1    
    49   25   27 1    
    50   25  102 1    
    51   26  103 1    
    52   26  104 1    
    53   26  105 1    
    54   27   28 am   BACKBONE|DICT|INTERRES
    55   27  106 1    
    56   28   29 2    
    57   28   30 1    
    58   30   31 1    
    59   30   32 1    
    60   30  107 1    
    61   31  108 1    
    62   31  109 1    
    63   31  110 1    
    64   32   33 am   BACKBONE|DICT|INTERRES
    65   32  111 1    
    66   33   34 2    
    67   33   35 1    
    68   35   36 1    
    69   35   37 1    
    70   35  112 1    
    71   36  113 1    
    72   36  114 1    
    73   36  115 1    
    74   37   38 am   BACKBONE|DICT|INTERRES
    75   37  116 1    
    76   38   39 2    
    77   38   40 1    
    78   40   41 1    
    79   40   42 1    
    80   40  117 1    
    81   41  118 1    
    82   41  119 1    
    83   41  120 1    
    84   42   43 am   BACKBONE|DICT|INTERRES
    85   42  121 1    
    86   43   44 2    
    87   43   45 1    
    88   45   46 1    
    89   45   47 1    
    90   45  122 1    
    91   46  123 1    
    92   46  124 1    
    93   46  125 1    
    94   47   48 am   BACKBONE|DICT|INTERRES
    95   47  126 1    
    96   48   49 2    
    97   48   50 1    
    98   50   51 1    
    99   50   52 1    
   100   50  127 1    
   101   51  128 1    
   102   51  129 1    
   103   51  130 1    
   104   52   53 am   BACKBONE|DICT|INTERRES
   105   52  131 1    
   106   53   54 2    
   107   53   55 1    
   108   55   56 1    
   109   55   59 1    
   110   55  132 1    
   111   56   57 1    
   112   56  133 1    
   113   56  134 1    
   114   57   58 1    
   115   58  135 1    
   116   58  136 1    
   117   59   60 am   BACKBONE|DICT|INTERRES
   118   59  137 1    
   119   60   61 2    
   120   60   62 1    
   121   62   63 1    
   122   62   64 1    
   123   62  138 1    
   124   63  139 1    
   125   63  140 1    
   126   63  141 1    
   127   64   65 am   BACKBONE|DICT|INTERRES
   128   64  142 1    
   129   65   66 2    
   130   65   67 1    
   131   67   68 1    
   132   67   69 1    
   133   67  143 1    
   134   68  144 1    
   135   68  145 1    
   136   68  146 1    
   137   69   70 am   BACKBONE|DICT|INTERRES
   138   69  147 1    
   139   70   71 2    
   140   70   72 1    
   141   72   73 1    
   142   72   74 1    
   143   72  148 1    
   144   73  149 1    
   145   73  150 1    
   146   73  151 1    
   147   74   75 am   BACKBONE|DICT|INTERRES
   148   74  152 1    
   149   75   76 2    
   150   75   77 1    
   151   77   78 1    
   152   77   79 1    
   153   77  153 1    
   154   78  154 1    
   155   78  155 1    
   156   78  156 1    
   157   79   80 am   BACKBONE|DICT|INTERRES
   158   79  157 1    
   159   80   81 2    
@<TRIPOS>SUBSTRUCTURE
     1 UNK         1 GROUP             0       ****    0 ROOT    
