@<TRIPOS>MOLECULE
3R207
157   159    1
SMALL
USER_CHARGES


@<TRIPOS>ATOM
      1 CA        -44.3208  -28.3373   10.1801 C.3       0 UNK        -0.1975 
      2 C         -45.0618  -28.9352    8.9931 C.2       0 UNK         0.4852 
      3 O         -44.5836  -29.8979    8.3920 O.2       0 UNK        -0.5216 
      4 N         -46.2258  -28.3693    8.6541 N.am      1 UNK        -0.4461 
      5 CA        -47.0767  -28.7803    7.5318 C.3       1 UNK         0.0864 
      6 C6        -48.5087  -28.2097    7.6739 C.3       14 UNK        -0.0898 
      7 S7        -49.3966  -28.9380    9.0945 S.3       14 UNK        -0.2598 
      8 C8        -50.9473  -29.4964    8.3091 C.3       14 UNK         0.0286 
      9 C9        -52.0498  -28.4473    8.4017 C.ar      14 UNK        -0.0844 
     10 C10       -51.8776  -27.1683    7.8608 C.ar      14 UNK        -0.0881 
     11 C11       -52.8688  -26.1916    8.0061 C.ar      14 UNK        -0.0643 
     12 C12       -54.0592  -26.5180    8.6642 C.ar      14 UNK        -0.0930 
     13 C13       -54.2587  -27.8014    9.1797 C.ar      14 UNK        -0.0827 
     14 C14       -53.2533  -28.7611    9.0392 C.ar      14 UNK        -0.1249 
     15 C15       -55.5641  -28.1563    9.8757 C.3       14 UNK         0.0141 
     16 S16       -55.6317  -27.5005   11.5726 S.3       14 UNK        -0.2313 
     17 C17       -57.2378  -28.1782   12.1185 C.3       14 UNK        -0.0915 
     18 CA        -57.1687  -29.0867   13.3781 C.3       13 UNK         0.0968 
     19 C         -56.3473  -30.3943   13.2008 C.2       13 UNK         0.5732 
     20 N         -55.6515  -30.8776   14.2232 N.am      13 UNK        -0.7310 
     21 O         -56.3674  -31.0033   12.1338 O.2       13 UNK        -0.5035 
     22 N         -56.8305  -28.3289   14.5937 N.am      13 UNK        -0.4233 
     23 C         -57.7356  -27.7788   15.4137 C.2       13 UNK         0.4989 
     24 O         -58.9516  -27.8383   15.2181 O.2       13 UNK        -0.4996 
     25 CA        -57.2113  -27.0195   16.6501 C.3       12 UNK         0.0216 
     26 CB        -58.2728  -26.8805   17.7629 C.3       12 UNK        -0.1964 
     27 N         -55.9594  -27.5502   17.2003 N.am      12 UNK        -0.4276 
     28 C         -55.7234  -28.7803   17.6860 C.2       12 UNK         0.5020 
     29 O         -56.5718  -29.6720   17.7254 O.2       12 UNK        -0.5489 
     30 CA        -54.2985  -29.0812   18.1965 C.3       11 UNK         0.0294 
     31 CB        -53.7654  -30.4065   17.6216 C.3       11 UNK        -0.2019 
     32 N         -53.3607  -28.0125   17.8483 N.am      11 UNK        -0.4493 
     33 C         -52.9600  -27.0263   18.6627 C.2       11 UNK         0.4932 
     34 O         -53.2532  -26.9606   19.8562 O.2       11 UNK        -0.5029 
     35 CA        -52.1188  -25.8996   18.0308 C.3       10 UNK         0.0280 
     36 CB        -50.6238  -26.1282   18.3018 C.3       10 UNK        -0.1976 
     37 N         -52.3442  -25.7579   16.5867 N.am      10 UNK        -0.4242 
     38 C         -53.4960  -25.3267   16.0441 C.2       10 UNK         0.5072 
     39 O         -54.4515  -24.9340   16.7131 O.2       10 UNK        -0.5224 
     40 CA        -53.6547  -25.4202   14.5150 C.3       9 UNK         0.0343 
     41 CB        -53.3400  -24.0705   13.8539 C.3       9 UNK        -0.2003 
     42 N         -52.8335  -26.4751   13.9160 N.am      9 UNK        -0.4272 
     43 C         -52.9889  -27.7846   14.1719 C.2       9 UNK         0.4988 
     44 O         -53.9016  -28.2260   14.8718 O.2       9 UNK        -0.5108 
     45 CA        -51.9417  -28.7685   13.6145 C.3       8 UNK         0.0248 
     46 CB        -52.5133  -29.5271   12.4131 C.3       8 UNK        -0.2001 
     47 N         -50.6757  -28.1464   13.2199 N.am      8 UNK        -0.4140 
     48 C         -49.8458  -27.4882   14.0402 C.2       8 UNK         0.5028 
     49 O         -50.0429  -27.3532   15.2480 O.2       8 UNK        -0.5428 
     50 CA        -48.6273  -26.8102   13.3921 C.3       7 UNK         0.0264 
     51 CB        -47.4145  -27.7542   13.4006 C.3       7 UNK        -0.1988 
     52 N         -48.8539  -26.3365   12.0219 N.am      7 UNK        -0.4454 
     53 C         -49.8035  -25.4791   11.6210 C.2       7 UNK         0.5027 
     54 O         -50.6724  -25.0324   12.3703 O.2       7 UNK        -0.5083 
     55 CA        -49.7520  -25.0412   10.1415 C.3       6 UNK         0.0844 
     56 C56       -51.0042  -24.2331    9.7133 C.3       14 UNK        -0.0967 
     57 S57       -51.0625  -24.0282    7.8985 S.3       14 UNK        -0.2604 
     58 C58       -52.6693  -24.7803    7.4592 C.3       14 UNK         0.0134 
     59 N         -48.5214  -24.2931    9.8655 N.am      6 UNK        -0.4116 
     60 C         -47.2856  -24.7931    9.7654 C.2       5 UNK         0.5034 
     61 O         -47.0317  -25.9962    9.8582 O.2       5 UNK        -0.5045 
     62 CA        -46.1516  -23.7782    9.5325 C.3       5 UNK         0.0224 
     63 CB        -44.7614  -24.4427    9.5159 C.3       5 UNK        -0.1978 
     64 N         -46.3447  -23.0049    8.2994 N.am      5 UNK        -0.4737 
     65 C         -47.1737  -21.9549    8.1815 C.2       4 UNK         0.5027 
     66 O         -47.8948  -21.5737    9.1054 O.2       4 UNK        -0.5211 
     67 CA        -47.2165  -21.1862    6.8470 C.3       4 UNK         0.0297 
     68 CB        -46.9191  -19.6928    7.0719 C.3       4 UNK        -0.1993 
     69 N         -46.2650  -21.7058    5.8635 N.am      4 UNK        -0.4486 
     70 C         -46.5796  -22.4802    4.8187 C.2       3 UNK         0.4961 
     71 O         -47.7286  -22.8227    4.5359 O.2       3 UNK        -0.5105 
     72 CA        -45.4156  -22.9866    3.9409 C.3       3 UNK         0.0299 
     73 CB        -44.0513  -22.3220    4.2420 C.3       3 UNK        -0.1972 
     74 N         -45.2994  -24.4482    4.0051 N.am      3 UNK        -0.4305 
     75 C         -45.1510  -25.1819    5.1168 C.2       2 UNK         0.5006 
     76 O         -45.0347  -24.7073    6.2498 O.2       2 UNK        -0.5106 
     77 CA        -45.1174  -26.7011    4.9363 C.3       2 UNK         0.0296 
     78 CB        -43.6768  -27.2028    4.7411 C.3       2 UNK        -0.2002 
     79 N         -45.6889  -27.3045    6.1346 N.am      2 UNK        -0.4032 
     80 C         -46.4799  -28.3830    6.1653 C.2       1 UNK         0.5000 
     81 O         -46.7592  -29.0534    5.1692 O.2       1 UNK        -0.5238 
     82 H82       -43.3840  -27.8891    9.8506 H         1 UNK         0.0889 
     83 H83       -44.0917  -29.1133   10.9098 H         1 UNK         0.0889 
     84 H84       -44.9087  -27.5679   10.6805 H         1 UNK         0.0889 
     85 H85       -46.5614  -27.5634    9.1813 H         1 UNK         0.3028 
     86 H86       -47.1403  -29.8708    7.5392 H         1 UNK         0.0864 
     87 H87       -48.4820  -27.1253    7.7939 H         1 UNK         0.0720 
     88 H88       -49.0806  -28.3932    6.7628 H         1 UNK         0.0720 
     89 H89       -51.2583  -30.4132    8.8121 H         1 UNK         0.0814 
     90 H90       -50.7844  -29.7726    7.2669 H         1 UNK         0.0814 
     91 H91       -50.9585  -26.9178    7.3517 H         1 UNK         0.1469 
     92 H92       -54.8352  -25.7735    8.7794 H         1 UNK         0.1381 
     93 H93       -53.4045  -29.7526    9.4442 H         1 UNK         0.1206 
     94 H94       -56.4033  -27.7604    9.3018 H         1 UNK         0.0813 
     95 H95       -55.6940  -29.2395    9.9057 H         1 UNK         0.0813 
     96 H96       -57.7022  -28.7262   11.2972 H         1 UNK         0.0638 
     97 H97       -57.9039  -27.3361   12.3114 H         1 UNK         0.0638 
     98 H98       -58.1780  -29.4799   13.5111 H         1 UNK         0.0568 
     99 H99       -55.6567  -30.4085   15.1143 H         1 UNK         0.3450 
    100 H100      -55.1378  -31.7354   14.1044 H         1 UNK         0.3450 
    101 H101      -55.8373  -28.2446   14.7947 H         1 UNK         0.2987 
    102 H102      -56.9789  -26.0141   16.2967 H         1 UNK         0.0766 
    103 H103      -58.6029  -27.8531   18.1296 H         1 UNK         0.0798 
    104 H104      -57.8862  -26.3156   18.6112 H         1 UNK         0.0798 
    105 H105      -59.1559  -26.3520   17.4015 H         1 UNK         0.0798 
    106 H106      -55.1930  -26.8878   17.2088 H         1 UNK         0.3198 
    107 H107      -54.3639  -29.1839   19.2816 H         1 UNK         0.0843 
    108 H108      -54.4131  -31.2420   17.8902 H         1 UNK         0.0831 
    109 H109      -52.7725  -30.6336   18.0098 H         1 UNK         0.0831 
    110 H110      -53.6999  -30.3802   16.5336 H         1 UNK         0.0831 
    111 H111      -53.0994  -27.9699   16.8705 H         1 UNK         0.3133 
    112 H112      -52.4098  -24.9618   18.5089 H         1 UNK         0.0566 
    113 H113      -50.0138  -25.3339   17.8714 H         1 UNK         0.0814 
    114 H114      -50.4218  -26.1478   19.3736 H         1 UNK         0.0814 
    115 H115      -50.2788  -27.0774   17.8903 H         1 UNK         0.0814 
    116 H116      -51.6085  -26.1034   15.9782 H         1 UNK         0.3091 
    117 H117      -54.6994  -25.6623   14.3071 H         1 UNK         0.0702 
    118 H118      -53.4697  -24.1184   12.7723 H         1 UNK         0.0785 
    119 H119      -52.3169  -23.7512   14.0560 H         1 UNK         0.0785 
    120 H120      -54.0043  -23.2900   14.2270 H         1 UNK         0.0785 
    121 H121      -52.0578  -26.1679   13.3375 H         1 UNK         0.2998 
    122 H122      -51.7223  -29.4892   14.4047 H         1 UNK         0.0697 
    123 H123      -51.8007  -30.2457   12.0080 H         1 UNK         0.0825 
    124 H124      -52.7861  -28.8326   11.6219 H         1 UNK         0.0825 
    125 H125      -53.4125  -30.0782   12.6862 H         1 UNK         0.0825 
    126 H126      -50.4334  -28.1905   12.2403 H         1 UNK         0.3029 
    127 H127      -48.3868  -25.9358   14.0003 H         1 UNK         0.0897 
    128 H128      -46.5161  -27.2495   13.0441 H         1 UNK         0.0792 
    129 H129      -47.2047  -28.1125   14.4095 H         1 UNK         0.0792 
    130 H130      -47.5797  -28.6291   12.7701 H         1 UNK         0.0792 
    131 H131      -48.1605  -26.6006   11.3280 H         1 UNK         0.3086 
    132 H132      -49.7329  -25.9592    9.5525 H         1 UNK         0.0583 
    133 H133      -51.9176  -24.7246   10.0533 H         1 UNK         0.1020 
    134 H134      -51.0076  -23.2470   10.1814 H         1 UNK         0.1020 
    135 H135      -53.4609  -24.1176    7.8125 H         1 UNK         0.0694 
    136 H136      -52.7561  -24.8104    6.3725 H         1 UNK         0.0694 
    137 H137      -48.6210  -23.2894    9.7487 H         1 UNK         0.2989 
    138 H138      -46.1667  -23.0888   10.3799 H         1 UNK         0.1055 
    139 H139      -44.6845  -25.2150    8.7511 H         1 UNK         0.0806 
    140 H140      -44.5486  -24.9184   10.4741 H         1 UNK         0.0806 
    141 H141      -43.9724  -23.7126    9.3357 H         1 UNK         0.0806 
    142 H142      -45.8424  -23.3381    7.4811 H         1 UNK         0.3061 
    143 H143      -48.2367  -21.2723    6.4668 H         1 UNK         0.0734 
    144 H144      -47.6389  -19.2478    7.7604 H         1 UNK         0.0832 
    145 H145      -45.9256  -19.5371    7.4940 H         1 UNK         0.0832 
    146 H146      -46.9798  -19.1318    6.1392 H         1 UNK         0.0832 
    147 H147      -45.2889  -21.5053    6.0305 H         1 UNK         0.3156 
    148 H148      -45.6810  -22.7396    2.9119 H         1 UNK         0.0589 
    149 H149      -43.6868  -22.5503    5.2442 H         1 UNK         0.0808 
    150 H150      -43.2922  -22.6612    3.5370 H         1 UNK         0.0808 
    151 H151      -44.1092  -21.2370    4.1442 H         1 UNK         0.0808 
    152 H152      -45.4094  -24.9318    3.1244 H         1 UNK         0.3098 
    153 H153      -45.7185  -26.9624    4.0626 H         1 UNK         0.0720 
    154 H154      -43.6491  -28.2856    4.6170 H         1 UNK         0.0791 
    155 H155      -43.0436  -26.9478    5.5921 H         1 UNK         0.0791 
    156 H156      -43.2247  -26.7618    3.8519 H         1 UNK         0.0791 
    157 H157      -45.5477  -26.7706    6.9825 H         1 UNK         0.3028 
@<TRIPOS>BOND
     1    1    2 1    
     2    1   82 1    
     3    1   83 1    
     4    1   84 1    
     5    2    3 2    
     6    2    4 am   BACKBONE|DICT|INTERRES
     7    4    5 1    
     8    4   85 1    
     9    5    6 1    
    10    5   80 1    
    11    5   86 1    
    12    6    7 1    
    13    6   87 1    
    14    6   88 1    
    15    7    8 1    
    16    8    9 1    
    17    8   89 1    
    18    8   90 1    
    19    9   10 ar   
    20    9   14 ar   
    21   10   11 ar   
    22   10   91 1    
    23   11   12 ar   
    24   11   58 1    
    25   12   13 ar   
    26   12   92 1    
    27   13   14 ar   
    28   13   15 1    
    29   14   93 1    
    30   15   16 1    
    31   15   94 1    
    32   15   95 1    
    33   16   17 1    
    34   17   18 1    
    35   17   96 1    
    36   17   97 1    
    37   18   19 1    
    38   18   22 1    
    39   18   98 1    
    40   19   20 am   BACKBONE|DICT|INTERRES
    41   19   21 2    
    42   20   99 1    
    43   20  100 1    
    44   22   23 am   BACKBONE|DICT|INTERRES
    45   22  101 1    
    46   23   24 2    
    47   23   25 1    
    48   25   26 1    
    49   25   27 1    
    50   25  102 1    
    51   26  103 1    
    52   26  104 1    
    53   26  105 1    
    54   27   28 am   BACKBONE|DICT|INTERRES
    55   27  106 1    
    56   28   29 2    
    57   28   30 1    
    58   30   31 1    
    59   30   32 1    
    60   30  107 1    
    61   31  108 1    
    62   31  109 1    
    63   31  110 1    
    64   32   33 am   BACKBONE|DICT|INTERRES
    65   32  111 1    
    66   33   34 2    
    67   33   35 1    
    68   35   36 1    
    69   35   37 1    
    70   35  112 1    
    71   36  113 1    
    72   36  114 1    
    73   36  115 1    
    74   37   38 am   BACKBONE|DICT|INTERRES
    75   37  116 1    
    76   38   39 2    
    77   38   40 1    
    78   40   41 1    
    79   40   42 1    
    80   40  117 1    
    81   41  118 1    
    82   41  119 1    
    83   41  120 1    
    84   42   43 am   BACKBONE|DICT|INTERRES
    85   42  121 1    
    86   43   44 2    
    87   43   45 1    
    88   45   46 1    
    89   45   47 1    
    90   45  122 1    
    91   46  123 1    
    92   46  124 1    
    93   46  125 1    
    94   47   48 am   BACKBONE|DICT|INTERRES
    95   47  126 1    
    96   48   49 2    
    97   48   50 1    
    98   50   51 1    
    99   50   52 1    
   100   50  127 1    
   101   51  128 1    
   102   51  129 1    
   103   51  130 1    
   104   52   53 am   BACKBONE|DICT|INTERRES
   105   52  131 1    
   106   53   54 2    
   107   53   55 1    
   108   55   56 1    
   109   55   59 1    
   110   55  132 1    
   111   56   57 1    
   112   56  133 1    
   113   56  134 1    
   114   57   58 1    
   115   58  135 1    
   116   58  136 1    
   117   59   60 am   BACKBONE|DICT|INTERRES
   118   59  137 1    
   119   60   61 2    
   120   60   62 1    
   121   62   63 1    
   122   62   64 1    
   123   62  138 1    
   124   63  139 1    
   125   63  140 1    
   126   63  141 1    
   127   64   65 am   BACKBONE|DICT|INTERRES
   128   64  142 1    
   129   65   66 2    
   130   65   67 1    
   131   67   68 1    
   132   67   69 1    
   133   67  143 1    
   134   68  144 1    
   135   68  145 1    
   136   68  146 1    
   137   69   70 am   BACKBONE|DICT|INTERRES
   138   69  147 1    
   139   70   71 2    
   140   70   72 1    
   141   72   73 1    
   142   72   74 1    
   143   72  148 1    
   144   73  149 1    
   145   73  150 1    
   146   73  151 1    
   147   74   75 am   BACKBONE|DICT|INTERRES
   148   74  152 1    
   149   75   76 2    
   150   75   77 1    
   151   77   78 1    
   152   77   79 1    
   153   77  153 1    
   154   78  154 1    
   155   78  155 1    
   156   78  156 1    
   157   79   80 am   BACKBONE|DICT|INTERRES
   158   79  157 1    
   159   80   81 2    
@<TRIPOS>SUBSTRUCTURE
     1 UNK         1 GROUP             0       ****    0 ROOT    
