@<TRIPOS>MOLECULE
3R207
157   159    1
SMALL
USER_CHARGES


@<TRIPOS>ATOM
      1 CA        -47.0120  -31.3698    7.0623 C.3       0 UNK        -0.1975 
      2 C         -47.1779  -29.9416    6.5661 C.2       0 UNK         0.4852 
      3 O         -46.3225  -29.0951    6.8319 O.2       0 UNK        -0.5216 
      4 N         -48.2739  -29.6600    5.8496 N.am      1 UNK        -0.4461 
      5 CA        -48.6388  -28.3223    5.3756 C.3       1 UNK         0.0864 
      6 C6        -49.8066  -28.3511    4.3563 C.3       14 UNK        -0.0898 
      7 S7        -51.2661  -29.3232    4.8782 S.3       14 UNK        -0.2598 
      8 C8        -52.6375  -28.1891    4.4943 C.3       14 UNK         0.0286 
      9 C9        -52.9163  -27.2159    5.6309 C.ar      14 UNK        -0.0844 
     10 C10       -52.3136  -25.9545    5.6556 C.ar      14 UNK        -0.0881 
     11 C11       -52.6007  -25.0381    6.6736 C.ar      14 UNK        -0.0643 
     12 C12       -53.5088  -25.4075    7.6775 C.ar      14 UNK        -0.0930 
     13 C13       -54.1201  -26.6658    7.6643 C.ar      14 UNK        -0.0827 
     14 C14       -53.8168  -27.5655    6.6400 C.ar      14 UNK        -0.1249 
     15 C15       -55.1372  -27.0427    8.7328 C.3       14 UNK         0.0141 
     16 S16       -54.4569  -28.2502    9.9078 S.3       14 UNK        -0.2313 
     17 C17       -55.7633  -28.2617   11.1816 C.3       14 UNK        -0.0915 
     18 CA        -55.8085  -29.5664   12.0177 C.3       13 UNK         0.0968 
     19 C         -56.3250  -30.7723   11.1745 C.2       13 UNK         0.5732 
     20 N         -55.5188  -31.7931   10.9059 N.am      13 UNK        -0.7310 
     21 O         -57.4853  -30.7850   10.7695 O.2       13 UNK        -0.5035 
     22 N         -54.5567  -29.8047   12.7644 N.am      13 UNK        -0.4233 
     23 C         -54.4643  -30.6668   13.7881 C.2       13 UNK         0.4989 
     24 O         -55.4334  -31.2411   14.2866 O.2       13 UNK        -0.4996 
     25 CA        -53.0675  -30.9645   14.3428 C.3       12 UNK         0.0216 
     26 CB        -52.1887  -31.6681   13.2925 C.3       12 UNK        -0.1964 
     27 N         -52.4023  -29.7494   14.8168 N.am      12 UNK        -0.4276 
     28 C         -51.9973  -29.5601   16.0800 C.2       12 UNK         0.5020 
     29 O         -52.2061  -30.3582   16.9958 O.2       12 UNK        -0.5489 
     30 CA        -51.1912  -28.2869   16.3876 C.3       11 UNK         0.0294 
     31 CB        -49.7209  -28.4703   15.9837 C.3       11 UNK        -0.2019 
     32 N         -51.7162  -27.0635   15.7794 N.am      11 UNK        -0.4493 
     33 C         -52.8746  -26.4814   16.1178 C.2       11 UNK         0.4932 
     34 O         -53.6680  -26.9596   16.9302 O.2       11 UNK        -0.5029 
     35 CA        -53.1793  -25.1271   15.4448 C.3       10 UNK         0.0280 
     36 CB        -54.4105  -24.4177   16.0484 C.3       10 UNK        -0.1976 
     37 N         -52.0230  -24.2154   15.4041 N.am      10 UNK        -0.4242 
     38 C         -51.3538  -23.7037   16.4494 C.2       10 UNK         0.5072 
     39 O         -51.5845  -23.9819   17.6277 O.2       10 UNK        -0.5224 
     40 CA        -50.2489  -22.6913   16.0914 C.3       9 UNK         0.0343 
     41 CB        -49.6240  -21.9998   17.3231 C.3       9 UNK        -0.2003 
     42 N         -49.2212  -23.2768   15.2228 N.am      9 UNK        -0.4272 
     43 C         -48.3442  -24.2452   15.5241 C.2       9 UNK         0.4988 
     44 O         -48.2652  -24.7802   16.6301 O.2       9 UNK        -0.5108 
     45 CA        -47.3874  -24.7170   14.4117 C.3       8 UNK         0.0248 
     46 CB        -47.5962  -26.2044   14.1011 C.3       8 UNK        -0.2001 
     47 N         -47.4817  -23.9643   13.1569 N.am      8 UNK        -0.4140 
     48 C         -46.8374  -22.8162   12.9058 C.2       8 UNK         0.5028 
     49 O         -46.1587  -22.2162   13.7397 O.2       8 UNK        -0.5428 
     50 CA        -46.9518  -22.2473   11.4829 C.3       7 UNK         0.0264 
     51 CB        -45.7976  -22.7706   10.6110 C.3       7 UNK        -0.1988 
     52 N         -48.2301  -22.5969   10.8570 N.am      7 UNK        -0.4454 
     53 C         -49.2863  -21.7772   10.7869 C.2       7 UNK         0.5027 
     54 O         -49.2714  -20.6093   11.1790 O.2       7 UNK        -0.5083 
     55 CA        -50.5932  -22.3515   10.1973 C.3       6 UNK         0.0844 
     56 C56       -50.6620  -22.1136    8.6695 C.3       14 UNK        -0.0967 
     57 S57       -52.3080  -22.5170    7.9866 S.3       14 UNK        -0.2604 
     58 C58       -51.9338  -23.6601    6.6065 C.3       14 UNK         0.0134 
     59 N         -50.8669  -23.7486   10.5674 N.am      6 UNK        -0.4116 
     60 C         -51.0210  -24.1789   11.8265 C.2       5 UNK         0.5034 
     61 O         -50.7876  -23.5009   12.8260 O.2       5 UNK        -0.5045 
     62 CA        -51.6097  -25.5727   12.0287 C.3       5 UNK         0.0224 
     63 CB        -53.1097  -25.5482   11.6858 C.3       5 UNK        -0.1978 
     64 N         -50.9007  -26.6423   11.3218 N.am      5 UNK        -0.4737 
     65 C         -51.0976  -27.9440   11.5930 C.2       4 UNK         0.5027 
     66 O         -51.8819  -28.3392   12.4585 O.2       4 UNK        -0.5211 
     67 CA        -50.3016  -28.9943   10.7985 C.3       4 UNK         0.0297 
     68 CB        -51.1539  -29.5697    9.6575 C.3       4 UNK        -0.1993 
     69 N         -49.0512  -28.4654   10.2573 N.am      4 UNK        -0.4486 
     70 C         -47.9281  -28.3293   10.9795 C.2       3 UNK         0.4961 
     71 O         -47.8165  -28.7423   12.1333 O.2       3 UNK        -0.5105 
     72 CA        -46.7240  -27.6120   10.3338 C.3       3 UNK         0.0299 
     73 CB        -45.5802  -28.6032   10.0679 C.3       3 UNK        -0.1972 
     74 N         -47.0551  -26.8938    9.1000 N.am      3 UNK        -0.4305 
     75 C         -47.8335  -25.8019    9.0575 C.2       2 UNK         0.5006 
     76 O         -48.2828  -25.2538   10.0657 O.2       2 UNK        -0.5106 
     77 CA        -48.2426  -25.2520    7.6781 C.3       2 UNK         0.0296 
     78 CB        -47.3875  -24.0315    7.3060 C.3       2 UNK        -0.2002 
     79 N         -48.2023  -26.2307    6.5868 N.am      2 UNK        -0.4032 
     80 C         -48.8974  -27.3770    6.5663 C.2       1 UNK         0.5000 
     81 O         -49.6557  -27.7229    7.4738 O.2       1 UNK        -0.5238 
     82 H82       -47.8012  -32.0234    6.6912 H         1 UNK         0.0889 
     83 H83       -47.0360  -31.3930    8.1514 H         1 UNK         0.0889 
     84 H84       -46.0549  -31.7728    6.7326 H         1 UNK         0.0889 
     85 H85       -48.9714  -30.3734    5.6904 H         1 UNK         0.3028 
     86 H86       -47.7674  -27.9392    4.8395 H         1 UNK         0.0864 
     87 H87       -49.4504  -28.7943    3.4251 H         1 UNK         0.0720 
     88 H88       -50.1030  -27.3353    4.0920 H         1 UNK         0.0720 
     89 H89       -53.5311  -28.7842    4.3000 H         1 UNK         0.0814 
     90 H90       -52.4333  -27.6520    3.5668 H         1 UNK         0.0814 
     91 H91       -51.6284  -25.6755    4.8674 H         1 UNK         0.1469 
     92 H92       -53.7672  -24.7151    8.4644 H         1 UNK         0.1381 
     93 H93       -54.2911  -28.5374    6.6254 H         1 UNK         0.1206 
     94 H94       -56.0270  -27.4614    8.2605 H         1 UNK         0.0813 
     95 H95       -55.4646  -26.1563    9.2783 H         1 UNK         0.0813 
     96 H96       -55.6145  -27.4086   11.8426 H         1 UNK         0.0638 
     97 H97       -56.7287  -28.0891   10.7018 H         1 UNK         0.0638 
     98 H98       -56.5816  -29.4074   12.7720 H         1 UNK         0.0568 
     99 H99       -55.8687  -32.5674   10.3646 H         1 UNK         0.3450 
    100 H100      -54.5633  -31.7858   11.2204 H         1 UNK         0.3450 
    101 H101      -53.7232  -29.3461   12.4131 H         1 UNK         0.2987 
    102 H102      -53.2034  -31.6688   15.1663 H         1 UNK         0.0766 
    103 H103      -52.0153  -31.0457   12.4156 H         1 UNK         0.0798 
    104 H104      -52.6552  -32.5926   12.9499 H         1 UNK         0.0798 
    105 H105      -51.2163  -31.9327   13.7081 H         1 UNK         0.0798 
    106 H106      -52.1942  -29.0465   14.1082 H         1 UNK         0.3198 
    107 H107      -51.2195  -28.1463   17.4707 H         1 UNK         0.0843 
    108 H108      -49.1113  -27.6506   16.3629 H         1 UNK         0.0831 
    109 H109      -49.5975  -28.5210   14.9007 H         1 UNK         0.0831 
    110 H110      -49.3116  -29.3914   16.4012 H         1 UNK         0.0831 
    111 H111      -51.1178  -26.5963   15.1170 H         1 UNK         0.3133 
    112 H112      -53.4316  -25.3607   14.4127 H         1 UNK         0.0566 
    113 H113      -55.3002  -25.0440   15.9704 H         1 UNK         0.0814 
    114 H114      -54.2685  -24.1867   17.1047 H         1 UNK         0.0814 
    115 H115      -54.6267  -23.4853   15.5271 H         1 UNK         0.0814 
    116 H116      -51.7229  -23.9092   14.4825 H         1 UNK         0.3091 
    117 H117      -50.7318  -21.9119   15.4996 H         1 UNK         0.0702 
    118 H118      -48.8702  -21.2701   17.0277 H         1 UNK         0.0785 
    119 H119      -49.1536  -22.7129   18.0005 H         1 UNK         0.0785 
    120 H120      -50.3848  -21.4673   17.8951 H         1 UNK         0.0785 
    121 H121      -49.2601  -22.9764   14.2563 H         1 UNK         0.2998 
    122 H122      -46.3750  -24.6047   14.8057 H         1 UNK         0.0697 
    123 H123      -46.8684  -26.5533   13.3703 H         1 UNK         0.0825 
    124 H124      -47.4535  -26.8143   14.9927 H         1 UNK         0.0825 
    125 H125      -48.5944  -26.4072   13.7113 H         1 UNK         0.0825 
    126 H126      -48.0134  -24.3888   12.4106 H         1 UNK         0.3029 
    127 H127      -46.8501  -21.1622   11.5552 H         1 UNK         0.0897 
    128 H128      -45.8121  -22.3157    9.6209 H         1 UNK         0.0792 
    129 H129      -44.8320  -22.5313   11.0589 H         1 UNK         0.0792 
    130 H130      -45.8384  -23.8533   10.4868 H         1 UNK         0.0792 
    131 H131      -48.3289  -23.5534   10.5180 H         1 UNK         0.3086 
    132 H132      -51.3984  -21.7654   10.6465 H         1 UNK         0.0583 
    133 H133      -50.4698  -21.0631    8.4406 H         1 UNK         0.1020 
    134 H134      -49.8802  -22.6741    8.1595 H         1 UNK         0.1020 
    135 H135      -52.2610  -23.1729    5.6869 H         1 UNK         0.0694 
    136 H136      -50.8579  -23.7927    6.5010 H         1 UNK         0.0694 
    137 H137      -51.1171  -24.3658    9.8097 H         1 UNK         0.2989 
    138 H138      -51.5092  -25.7876   13.0918 H         1 UNK         0.1055 
    139 H139      -53.2736  -25.5743   10.6103 H         1 UNK         0.0806 
    140 H140      -53.6008  -24.6523   12.0690 H         1 UNK         0.0806 
    141 H141      -53.6217  -26.3999   12.1275 H         1 UNK         0.0806 
    142 H142      -50.1855  -26.3731   10.6574 H         1 UNK         0.3061 
    143 H143      -50.0668  -29.8136   11.4812 H         1 UNK         0.0734 
    144 H144      -50.5923  -30.2873    9.0595 H         1 UNK         0.0832 
    145 H145      -52.0291  -30.0882   10.0497 H         1 UNK         0.0832 
    146 H146      -51.5163  -28.7877    8.9884 H         1 UNK         0.0832 
    147 H147      -49.0852  -28.1307    9.2972 H         1 UNK         0.3156 
    148 H148      -46.3628  -26.8744   11.0529 H         1 UNK         0.0589 
    149 H149      -45.8953  -29.4205    9.4199 H         1 UNK         0.0808 
    150 H150      -44.7248  -28.1132    9.6027 H         1 UNK         0.0808 
    151 H151      -45.2301  -29.0493   10.9998 H         1 UNK         0.0808 
    152 H152      -46.7464  -27.3172    8.2328 H         1 UNK         0.3098 
    153 H153      -49.2804  -24.9321    7.7744 H         1 UNK         0.0720 
    154 H154      -47.4417  -23.2631    8.0771 H         1 UNK         0.0791 
    155 H155      -46.3364  -24.2968    7.1846 H         1 UNK         0.0791 
    156 H156      -47.7291  -23.5749    6.3768 H         1 UNK         0.0791 
    157 H157      -47.5732  -26.0274    5.8229 H         1 UNK         0.3028 
@<TRIPOS>BOND
     1    1    2 1    
     2    1   82 1    
     3    1   83 1    
     4    1   84 1    
     5    2    3 2    
     6    2    4 am   BACKBONE|DICT|INTERRES
     7    4    5 1    
     8    4   85 1    
     9    5    6 1    
    10    5   80 1    
    11    5   86 1    
    12    6    7 1    
    13    6   87 1    
    14    6   88 1    
    15    7    8 1    
    16    8    9 1    
    17    8   89 1    
    18    8   90 1    
    19    9   10 ar   
    20    9   14 ar   
    21   10   11 ar   
    22   10   91 1    
    23   11   12 ar   
    24   11   58 1    
    25   12   13 ar   
    26   12   92 1    
    27   13   14 ar   
    28   13   15 1    
    29   14   93 1    
    30   15   16 1    
    31   15   94 1    
    32   15   95 1    
    33   16   17 1    
    34   17   18 1    
    35   17   96 1    
    36   17   97 1    
    37   18   19 1    
    38   18   22 1    
    39   18   98 1    
    40   19   20 am   BACKBONE|DICT|INTERRES
    41   19   21 2    
    42   20   99 1    
    43   20  100 1    
    44   22   23 am   BACKBONE|DICT|INTERRES
    45   22  101 1    
    46   23   24 2    
    47   23   25 1    
    48   25   26 1    
    49   25   27 1    
    50   25  102 1    
    51   26  103 1    
    52   26  104 1    
    53   26  105 1    
    54   27   28 am   BACKBONE|DICT|INTERRES
    55   27  106 1    
    56   28   29 2    
    57   28   30 1    
    58   30   31 1    
    59   30   32 1    
    60   30  107 1    
    61   31  108 1    
    62   31  109 1    
    63   31  110 1    
    64   32   33 am   BACKBONE|DICT|INTERRES
    65   32  111 1    
    66   33   34 2    
    67   33   35 1    
    68   35   36 1    
    69   35   37 1    
    70   35  112 1    
    71   36  113 1    
    72   36  114 1    
    73   36  115 1    
    74   37   38 am   BACKBONE|DICT|INTERRES
    75   37  116 1    
    76   38   39 2    
    77   38   40 1    
    78   40   41 1    
    79   40   42 1    
    80   40  117 1    
    81   41  118 1    
    82   41  119 1    
    83   41  120 1    
    84   42   43 am   BACKBONE|DICT|INTERRES
    85   42  121 1    
    86   43   44 2    
    87   43   45 1    
    88   45   46 1    
    89   45   47 1    
    90   45  122 1    
    91   46  123 1    
    92   46  124 1    
    93   46  125 1    
    94   47   48 am   BACKBONE|DICT|INTERRES
    95   47  126 1    
    96   48   49 2    
    97   48   50 1    
    98   50   51 1    
    99   50   52 1    
   100   50  127 1    
   101   51  128 1    
   102   51  129 1    
   103   51  130 1    
   104   52   53 am   BACKBONE|DICT|INTERRES
   105   52  131 1    
   106   53   54 2    
   107   53   55 1    
   108   55   56 1    
   109   55   59 1    
   110   55  132 1    
   111   56   57 1    
   112   56  133 1    
   113   56  134 1    
   114   57   58 1    
   115   58  135 1    
   116   58  136 1    
   117   59   60 am   BACKBONE|DICT|INTERRES
   118   59  137 1    
   119   60   61 2    
   120   60   62 1    
   121   62   63 1    
   122   62   64 1    
   123   62  138 1    
   124   63  139 1    
   125   63  140 1    
   126   63  141 1    
   127   64   65 am   BACKBONE|DICT|INTERRES
   128   64  142 1    
   129   65   66 2    
   130   65   67 1    
   131   67   68 1    
   132   67   69 1    
   133   67  143 1    
   134   68  144 1    
   135   68  145 1    
   136   68  146 1    
   137   69   70 am   BACKBONE|DICT|INTERRES
   138   69  147 1    
   139   70   71 2    
   140   70   72 1    
   141   72   73 1    
   142   72   74 1    
   143   72  148 1    
   144   73  149 1    
   145   73  150 1    
   146   73  151 1    
   147   74   75 am   BACKBONE|DICT|INTERRES
   148   74  152 1    
   149   75   76 2    
   150   75   77 1    
   151   77   78 1    
   152   77   79 1    
   153   77  153 1    
   154   78  154 1    
   155   78  155 1    
   156   78  156 1    
   157   79   80 am   BACKBONE|DICT|INTERRES
   158   79  157 1    
   159   80   81 2    
@<TRIPOS>SUBSTRUCTURE
     1 UNK         1 GROUP             0       ****    0 ROOT    
