@<TRIPOS>MOLECULE
3R207
157   159    1
SMALL
USER_CHARGES


@<TRIPOS>ATOM
      1 CA        -44.7184  -29.4781    7.2736 C.3       0 UNK        -0.1975 
      2 C         -45.5104  -29.3194    5.9841 C.2       0 UNK         0.4852 
      3 O         -44.9408  -28.9458    4.9584 O.2       0 UNK        -0.5216 
      4 N         -46.8201  -29.6008    6.0292 N.am      1 UNK        -0.4461 
      5 CA        -47.7528  -29.4897    4.8986 C.3       1 UNK         0.0864 
      6 C6        -49.0676  -30.2680    5.1611 C.3       14 UNK        -0.0898 
      7 S7        -49.9103  -29.7929    6.7103 S.3       14 UNK        -0.2598 
      8 C8        -51.5233  -29.2402    6.0839 C.3       14 UNK         0.0286 
      9 C9        -52.3239  -28.5520    7.1777 C.ar      14 UNK        -0.0844 
     10 C10       -52.3336  -27.1586    7.2622 C.ar      14 UNK        -0.0881 
     11 C11       -53.0650  -26.5066    8.2612 C.ar      14 UNK        -0.0643 
     12 C12       -53.8001  -27.2665    9.1777 C.ar      14 UNK        -0.0930 
     13 C13       -53.8079  -28.6634    9.0961 C.ar      14 UNK        -0.0827 
     14 C14       -53.0640  -29.3003    8.0970 C.ar      14 UNK        -0.1249 
     15 C15       -54.6365  -29.4901   10.0678 C.3       14 UNK         0.0141 
     16 S16       -53.7166  -29.8248   11.5997 S.3       14 UNK        -0.2313 
     17 C17       -54.6513  -31.2332   12.2902 C.3       14 UNK        -0.0915 
     18 CA        -55.2930  -30.9781   13.6808 C.3       13 UNK         0.0968 
     19 C         -54.2561  -30.8870   14.8413 C.2       13 UNK         0.5732 
     20 N         -54.3193  -29.9004   15.7278 N.am      13 UNK        -0.7310 
     21 O         -53.3867  -31.7480   14.9559 O.2       13 UNK        -0.5035 
     22 N         -56.2800  -29.8869   13.6422 N.am      13 UNK        -0.4233 
     23 C         -57.3819  -29.8457   14.4013 C.2       13 UNK         0.4989 
     24 O         -57.7150  -30.7529   15.1671 O.2       13 UNK        -0.4996 
     25 CA        -58.2597  -28.5818   14.2821 C.3       12 UNK         0.0216 
     26 CB        -59.3401  -28.5117   15.3832 C.3       12 UNK        -0.1964 
     27 N         -57.5207  -27.3099   14.2405 N.am      12 UNK        -0.4276 
     28 C         -56.5907  -26.8787   15.1054 C.2       12 UNK         0.5020 
     29 O         -56.0790  -27.5746   15.9852 O.2       12 UNK        -0.5489 
     30 CA        -56.2082  -25.3984   14.9943 C.3       11 UNK         0.0294 
     31 CB        -57.2681  -24.5253   15.6981 C.3       11 UNK        -0.2019 
     32 N         -54.8926  -25.1905   15.5954 N.am      11 UNK        -0.4493 
     33 C         -54.1409  -24.0904   15.4722 C.2       11 UNK         0.4932 
     34 O         -54.4941  -23.0895   14.8476 O.2       11 UNK        -0.5029 
     35 CA        -52.7490  -24.1049   16.1255 C.3       10 UNK         0.0280 
     36 CB        -52.8222  -23.9917   17.6614 C.3       10 UNK        -0.1976 
     37 N         -51.9309  -25.2341   15.6732 N.am      10 UNK        -0.4242 
     38 C         -52.0524  -26.5348   15.9703 C.2       10 UNK         0.5072 
     39 O         -52.8549  -26.9855   16.7879 O.2       10 UNK        -0.5224 
     40 CA        -51.1577  -27.5063   15.1854 C.3       9 UNK         0.0343 
     41 CB        -51.8527  -27.9022   13.8750 C.3       9 UNK        -0.2003 
     42 N         -49.8326  -26.9663   14.8757 N.am      9 UNK        -0.4272 
     43 C         -48.8634  -26.7485   15.7752 C.2       9 UNK         0.4988 
     44 O         -48.9688  -27.0055   16.9751 O.2       9 UNK        -0.5108 
     45 CA        -47.5520  -26.1400   15.2471 C.3       8 UNK         0.0248 
     46 CB        -46.6792  -27.2169   14.5824 C.3       8 UNK        -0.2001 
     47 N         -47.7750  -25.0348   14.3111 N.am      8 UNK        -0.4140 
     48 C         -48.3063  -23.8519   14.6546 C.2       8 UNK         0.5028 
     49 O         -48.6071  -23.5426   15.8080 O.2       8 UNK        -0.5428 
     50 CA        -48.5677  -22.8456   13.5214 C.3       7 UNK         0.0264 
     51 CB        -47.2869  -22.0694   13.1758 C.3       7 UNK        -0.1988 
     52 N         -49.1069  -23.4651   12.3092 N.am      7 UNK        -0.4454 
     53 C         -50.2827  -24.1071   12.2306 C.2       7 UNK         0.5027 
     54 O         -51.0613  -24.2299   13.1746 O.2       7 UNK        -0.5083 
     55 CA        -50.6258  -24.7542   10.8738 C.3       6 UNK         0.0844 
     56 C56       -51.1473  -23.6664    9.9007 C.3       14 UNK        -0.0967 
     57 S57       -51.4432  -24.2418    8.1995 S.3       14 UNK        -0.2604 
     58 C58       -53.1042  -24.9839    8.3112 C.3       14 UNK         0.0134 
     59 N         -49.4949  -25.5355   10.3569 N.am      6 UNK        -0.4116 
     60 C         -48.9306  -26.5697   11.0026 C.2       5 UNK         0.5034 
     61 O         -49.3372  -27.0199   12.0720 O.2       5 UNK        -0.5045 
     62 CA        -47.6527  -27.1628   10.3990 C.3       5 UNK         0.0224 
     63 CB        -47.9868  -28.2163    9.3343 C.3       5 UNK        -0.1978 
     64 N         -46.7956  -26.1196    9.8362 N.am      5 UNK        -0.4737 
     65 C         -46.0720  -25.2685   10.5772 C.2       4 UNK         0.5027 
     66 O         -46.0069  -25.3199   11.8055 O.2       4 UNK        -0.5211 
     67 CA        -45.3311  -24.1479    9.8256 C.3       4 UNK         0.0297 
     68 CB        -43.9611  -24.6443    9.3375 C.3       4 UNK        -0.1993 
     69 N         -46.0928  -23.6174    8.6907 N.am      4 UNK        -0.4486 
     70 C         -47.2677  -22.9817    8.7995 C.2       3 UNK         0.4961 
     71 O         -47.8000  -22.7168    9.8771 O.2       3 UNK        -0.5105 
     72 CA        -47.9973  -22.6118    7.4943 C.3       3 UNK         0.0299 
     73 CB        -47.5991  -21.1957    7.0499 C.3       3 UNK        -0.1972 
     74 N         -47.8130  -23.5434    6.3713 N.am      3 UNK        -0.4305 
     75 C         -47.9812  -24.8743    6.3981 C.2       2 UNK         0.5006 
     76 O         -48.2357  -25.5119    7.4220 O.2       2 UNK        -0.5106 
     77 CA        -47.8071  -25.6205    5.0662 C.3       2 UNK         0.0296 
     78 CB        -46.5210  -25.1974    4.3225 C.3       2 UNK        -0.2002 
     79 N         -47.7744  -27.0579    5.3275 N.am      2 UNK        -0.4032 
     80 C         -48.0047  -28.0332    4.4392 C.2       1 UNK         0.5000 
     81 O         -48.3699  -27.8250    3.2802 O.2       1 UNK        -0.5238 
     82 H82       -45.2589  -30.0700    8.0119 H         1 UNK         0.0889 
     83 H83       -44.5038  -28.5009    7.7056 H         1 UNK         0.0889 
     84 H84       -43.7710  -29.9784    7.0742 H         1 UNK         0.0889 
     85 H85       -47.2378  -29.9163    6.8935 H         1 UNK         0.3028 
     86 H86       -47.2673  -29.9772    4.0500 H         1 UNK         0.0864 
     87 H87       -49.7485  -30.1700    4.3134 H         1 UNK         0.0720 
     88 H88       -48.8451  -31.3340    5.2279 H         1 UNK         0.0720 
     89 H89       -51.3744  -28.5611    5.2427 H         1 UNK         0.0814 
     90 H90       -52.0767  -30.0973    5.6972 H         1 UNK         0.0814 
     91 H91       -51.7682  -26.5768    6.5470 H         1 UNK         0.1469 
     92 H92       -54.3784  -26.7734    9.9470 H         1 UNK         0.1381 
     93 H93       -53.0609  -30.3800    8.0327 H         1 UNK         0.1206 
     94 H94       -54.9185  -30.4318    9.5943 H         1 UNK         0.0813 
     95 H95       -55.5678  -28.9750   10.3075 H         1 UNK         0.0813 
     96 H96       -55.4354  -31.5239   11.5899 H         1 UNK         0.0638 
     97 H97       -53.9787  -32.0915   12.3341 H         1 UNK         0.0638 
     98 H98       -55.8424  -31.8943   13.9051 H         1 UNK         0.0568 
     99 H99       -53.6400  -29.8650   16.4696 H         1 UNK         0.3450 
    100 H100      -55.0349  -29.1813   15.6811 H         1 UNK         0.3450 
    101 H101      -56.0470  -29.0945   13.0633 H         1 UNK         0.2987 
    102 H102      -58.7746  -28.6686   13.3241 H         1 UNK         0.0766 
    103 H103      -59.9853  -27.6429   15.2527 H         1 UNK         0.0798 
    104 H104      -58.8956  -28.4518   16.3776 H         1 UNK         0.0798 
    105 H105      -59.9823  -29.3933   15.3644 H         1 UNK         0.0798 
    106 H106      -57.8409  -26.6567   13.5380 H         1 UNK         0.3198 
    107 H107      -56.1524  -25.1310   13.9369 H         1 UNK         0.0843 
    108 H108      -57.3145  -24.7382   16.7669 H         1 UNK         0.0831 
    109 H109      -58.2631  -24.7027   15.2879 H         1 UNK         0.0831 
    110 H110      -57.0618  -23.4619   15.5786 H         1 UNK         0.0831 
    111 H111      -54.5221  -25.9906   16.1060 H         1 UNK         0.3133 
    112 H112      -52.2238  -23.2186   15.7655 H         1 UNK         0.0566 
    113 H113      -51.8263  -23.9822   18.1043 H         1 UNK         0.0814 
    114 H114      -53.3179  -23.0658   17.9553 H         1 UNK         0.0814 
    115 H115      -53.3825  -24.8111   18.1119 H         1 UNK         0.0814 
    116 H116      -51.3112  -24.9986   14.9013 H         1 UNK         0.3091 
    117 H117      -51.0293  -28.4049   15.7923 H         1 UNK         0.0702 
    118 H118      -52.8653  -28.2594   14.0596 H         1 UNK         0.0785 
    119 H119      -51.9307  -27.0597   13.1866 H         1 UNK         0.0785 
    120 H120      -51.3131  -28.7006   13.3653 H         1 UNK         0.0785 
    121 H121      -49.6380  -26.7897   13.8922 H         1 UNK         0.2998 
    122 H122      -47.0022  -25.7437   16.1035 H         1 UNK         0.0697 
    123 H123      -47.1661  -27.6506   13.7088 H         1 UNK         0.0825 
    124 H124      -46.4691  -28.0315   15.2767 H         1 UNK         0.0825 
    125 H125      -45.7207  -26.8083   14.2617 H         1 UNK         0.0825 
    126 H126      -47.4964  -25.1847   13.3475 H         1 UNK         0.3029 
    127 H127      -49.3117  -22.1322   13.8825 H         1 UNK         0.0897 
    128 H128      -47.4812  -21.2952   12.4332 H         1 UNK         0.0792 
    129 H129      -46.5121  -22.7256   12.7776 H         1 UNK         0.0792 
    130 H130      -46.8774  -21.5772   14.0589 H         1 UNK         0.0792 
    131 H131      -48.5525  -23.3608   11.4609 H         1 UNK         0.3086 
    132 H132      -51.4394  -25.4625   11.0448 H         1 UNK         0.0583 
    133 H133      -52.0665  -23.2223   10.2878 H         1 UNK         0.1020 
    134 H134      -50.4374  -22.8408    9.8313 H         1 UNK         0.1020 
    135 H135      -53.6128  -24.6354    9.2110 H         1 UNK         0.0694 
    136 H136      -53.6978  -24.6287    7.4679 H         1 UNK         0.0694 
    137 H137      -49.1193  -25.2580    9.4581 H         1 UNK         0.2989 
    138 H138      -47.1039  -27.6602   11.2019 H         1 UNK         0.1055 
    139 H139      -48.5572  -29.0381    9.7696 H         1 UNK         0.0806 
    140 H140      -47.0828  -28.6414    8.9028 H         1 UNK         0.0806 
    141 H141      -48.5906  -27.8026    8.5272 H         1 UNK         0.0806 
    142 H142      -46.9012  -25.9363    8.8444 H         1 UNK         0.3061 
    143 H143      -45.1684  -23.3298   10.5307 H         1 UNK         0.0734 
    144 H144      -43.3879  -23.8400    8.8762 H         1 UNK         0.0832 
    145 H145      -43.3675  -25.0263   10.1695 H         1 UNK         0.0832 
    146 H146      -44.0572  -25.4509    8.6095 H         1 UNK         0.0832 
    147 H147      -45.7266  -23.7910    7.7663 H         1 UNK         0.3156 
    148 H148      -49.0638  -22.5994    7.7198 H         1 UNK         0.0589 
    149 H149      -46.5501  -21.1442    6.7557 H         1 UNK         0.0808 
    150 H150      -48.2028  -20.8580    6.2073 H         1 UNK         0.0808 
    151 H151      -47.7466  -20.4769    7.8575 H         1 UNK         0.0808 
    152 H152      -47.5938  -23.1180    5.4822 H         1 UNK         0.3098 
    153 H153      -48.6786  -25.3941    4.4487 H         1 UNK         0.0720 
    154 H154      -46.3897  -25.7647    3.4009 H         1 UNK         0.0791 
    155 H155      -45.6328  -25.3571    4.9354 H         1 UNK         0.0791 
    156 H156      -46.5435  -24.1451    4.0384 H         1 UNK         0.0791 
    157 H157      -47.5752  -27.3049    6.2875 H         1 UNK         0.3028 
@<TRIPOS>BOND
     1    1    2 1    
     2    1   82 1    
     3    1   83 1    
     4    1   84 1    
     5    2    3 2    
     6    2    4 am   BACKBONE|DICT|INTERRES
     7    4    5 1    
     8    4   85 1    
     9    5    6 1    
    10    5   80 1    
    11    5   86 1    
    12    6    7 1    
    13    6   87 1    
    14    6   88 1    
    15    7    8 1    
    16    8    9 1    
    17    8   89 1    
    18    8   90 1    
    19    9   10 ar   
    20    9   14 ar   
    21   10   11 ar   
    22   10   91 1    
    23   11   12 ar   
    24   11   58 1    
    25   12   13 ar   
    26   12   92 1    
    27   13   14 ar   
    28   13   15 1    
    29   14   93 1    
    30   15   16 1    
    31   15   94 1    
    32   15   95 1    
    33   16   17 1    
    34   17   18 1    
    35   17   96 1    
    36   17   97 1    
    37   18   19 1    
    38   18   22 1    
    39   18   98 1    
    40   19   20 am   BACKBONE|DICT|INTERRES
    41   19   21 2    
    42   20   99 1    
    43   20  100 1    
    44   22   23 am   BACKBONE|DICT|INTERRES
    45   22  101 1    
    46   23   24 2    
    47   23   25 1    
    48   25   26 1    
    49   25   27 1    
    50   25  102 1    
    51   26  103 1    
    52   26  104 1    
    53   26  105 1    
    54   27   28 am   BACKBONE|DICT|INTERRES
    55   27  106 1    
    56   28   29 2    
    57   28   30 1    
    58   30   31 1    
    59   30   32 1    
    60   30  107 1    
    61   31  108 1    
    62   31  109 1    
    63   31  110 1    
    64   32   33 am   BACKBONE|DICT|INTERRES
    65   32  111 1    
    66   33   34 2    
    67   33   35 1    
    68   35   36 1    
    69   35   37 1    
    70   35  112 1    
    71   36  113 1    
    72   36  114 1    
    73   36  115 1    
    74   37   38 am   BACKBONE|DICT|INTERRES
    75   37  116 1    
    76   38   39 2    
    77   38   40 1    
    78   40   41 1    
    79   40   42 1    
    80   40  117 1    
    81   41  118 1    
    82   41  119 1    
    83   41  120 1    
    84   42   43 am   BACKBONE|DICT|INTERRES
    85   42  121 1    
    86   43   44 2    
    87   43   45 1    
    88   45   46 1    
    89   45   47 1    
    90   45  122 1    
    91   46  123 1    
    92   46  124 1    
    93   46  125 1    
    94   47   48 am   BACKBONE|DICT|INTERRES
    95   47  126 1    
    96   48   49 2    
    97   48   50 1    
    98   50   51 1    
    99   50   52 1    
   100   50  127 1    
   101   51  128 1    
   102   51  129 1    
   103   51  130 1    
   104   52   53 am   BACKBONE|DICT|INTERRES
   105   52  131 1    
   106   53   54 2    
   107   53   55 1    
   108   55   56 1    
   109   55   59 1    
   110   55  132 1    
   111   56   57 1    
   112   56  133 1    
   113   56  134 1    
   114   57   58 1    
   115   58  135 1    
   116   58  136 1    
   117   59   60 am   BACKBONE|DICT|INTERRES
   118   59  137 1    
   119   60   61 2    
   120   60   62 1    
   121   62   63 1    
   122   62   64 1    
   123   62  138 1    
   124   63  139 1    
   125   63  140 1    
   126   63  141 1    
   127   64   65 am   BACKBONE|DICT|INTERRES
   128   64  142 1    
   129   65   66 2    
   130   65   67 1    
   131   67   68 1    
   132   67   69 1    
   133   67  143 1    
   134   68  144 1    
   135   68  145 1    
   136   68  146 1    
   137   69   70 am   BACKBONE|DICT|INTERRES
   138   69  147 1    
   139   70   71 2    
   140   70   72 1    
   141   72   73 1    
   142   72   74 1    
   143   72  148 1    
   144   73  149 1    
   145   73  150 1    
   146   73  151 1    
   147   74   75 am   BACKBONE|DICT|INTERRES
   148   74  152 1    
   149   75   76 2    
   150   75   77 1    
   151   77   78 1    
   152   77   79 1    
   153   77  153 1    
   154   78  154 1    
   155   78  155 1    
   156   78  156 1    
   157   79   80 am   BACKBONE|DICT|INTERRES
   158   79  157 1    
   159   80   81 2    
@<TRIPOS>SUBSTRUCTURE
     1 UNK         1 GROUP             0       ****    0 ROOT    
