@<TRIPOS>MOLECULE
3R207
157   159    1
SMALL
USER_CHARGES


@<TRIPOS>ATOM
      1 CA        -50.4770  -26.6227    3.2410 C.3       0 UNK        -0.1975 
      2 C         -50.6383  -26.5439    4.7512 C.2       0 UNK         0.4852 
      3 O         -49.6435  -26.5905    5.4741 O.2       0 UNK        -0.5216 
      4 N         -51.8821  -26.4012    5.2331 N.am      1 UNK        -0.4461 
      5 CA        -52.2698  -26.3818    6.6560 C.3       1 UNK         0.0864 
      6 C6        -52.1002  -27.7641    7.3422 C.3       14 UNK        -0.0898 
      7 S7        -53.1211  -29.0382    6.5221 S.3       14 UNK        -0.2598 
      8 C8        -52.1867  -30.5550    6.8816 C.3       14 UNK         0.0286 
      9 C9        -52.4173  -31.0214    8.3103 C.ar      14 UNK        -0.0844 
     10 C10       -51.6016  -30.5523    9.3423 C.ar      14 UNK        -0.0881 
     11 C11       -51.8124  -30.9686   10.6595 C.ar      14 UNK        -0.0643 
     12 C12       -52.8256  -31.8929   10.9337 C.ar      14 UNK        -0.0930 
     13 C13       -53.6436  -32.3784    9.9079 C.ar      14 UNK        -0.0827 
     14 C14       -53.4404  -31.9292    8.5996 C.ar      14 UNK        -0.1249 
     15 C15       -54.7188  -33.4188   10.1964 C.3       14 UNK         0.0141 
     16 S16       -56.3249  -32.6704   10.6229 S.3       14 UNK        -0.2313 
     17 C17       -56.0601  -32.1927   12.3658 C.3       14 UNK        -0.0915 
     18 CA        -56.1793  -30.6671   12.6238 C.3       13 UNK         0.0968 
     19 C         -55.8229  -30.3487   14.1013 C.2       13 UNK         0.5732 
     20 N         -56.8155  -30.1252   14.9518 N.am      13 UNK        -0.7310 
     21 O         -54.6561  -30.3565   14.4872 O.2       13 UNK        -0.5035 
     22 N         -55.3862  -29.8853   11.6655 N.am      13 UNK        -0.4233 
     23 C         -55.3780  -28.5514   11.5709 C.2       13 UNK         0.4989 
     24 O         -56.0498  -27.8045   12.2844 O.2       13 UNK        -0.4996 
     25 CA        -54.5056  -27.9734   10.4489 C.3       12 UNK         0.0216 
     26 CB        -55.3399  -27.6782    9.1853 C.3       12 UNK        -0.1964 
     27 N         -53.7235  -26.8230   10.9187 N.am      12 UNK        -0.4276 
     28 C         -54.0750  -25.5352   11.0453 C.2       12 UNK         0.5020 
     29 O         -55.1383  -25.0483   10.6547 O.2       12 UNK        -0.5489 
     30 CA        -53.0295  -24.6467   11.7504 C.3       11 UNK         0.0294 
     31 CB        -53.3724  -23.1408   11.6875 C.3       11 UNK        -0.2019 
     32 N         -52.7865  -25.0876   13.1342 N.am      11 UNK        -0.4493 
     33 C         -53.6798  -25.1209   14.1374 C.2       11 UNK         0.4932 
     34 O         -54.8213  -24.6677   14.0542 O.2       11 UNK        -0.5029 
     35 CA        -53.2637  -25.7743   15.4664 C.3       10 UNK         0.0280 
     36 CB        -53.8270  -27.2064   15.5431 C.3       10 UNK        -0.1976 
     37 N         -51.8170  -25.8023   15.7123 N.am      10 UNK        -0.4242 
     38 C         -51.2624  -25.8618   16.9312 C.2       10 UNK         0.5072 
     39 O         -51.9012  -25.7672   17.9807 O.2       10 UNK        -0.5224 
     40 CA        -49.7470  -26.1028   17.0065 C.3       9 UNK         0.0343 
     41 CB        -49.4084  -27.5428   16.5799 C.3       9 UNK        -0.2003 
     42 N         -48.9913  -25.1650   16.1756 N.am      9 UNK        -0.4272 
     43 C         -48.2302  -24.1638   16.6424 C.2       9 UNK         0.4988 
     44 O         -48.1370  -23.8777   17.8370 O.2       9 UNK        -0.5108 
     45 CA        -47.3974  -23.3544   15.6257 C.3       8 UNK         0.0248 
     46 CB        -45.9147  -23.7511   15.7169 C.3       8 UNK        -0.2001 
     47 N         -47.8450  -23.5099   14.2398 N.am      8 UNK        -0.4140 
     48 C         -48.9656  -22.9628   13.7488 C.2       8 UNK         0.5028 
     49 O         -49.6769  -22.1807   14.3798 O.2       8 UNK        -0.5428 
     50 CA        -49.4042  -23.3985   12.3407 C.3       7 UNK         0.0264 
     51 CB        -48.9733  -22.3757   11.2829 C.3       7 UNK        -0.1988 
     52 N         -48.9618  -24.7459   11.9559 N.am      7 UNK        -0.4454 
     53 C         -49.3480  -25.8658   12.5850 C.2       7 UNK         0.5027 
     54 O         -50.0986  -25.8475   13.5608 O.2       7 UNK        -0.5083 
     55 CA        -48.8320  -27.2264   12.0885 C.3       6 UNK         0.0844 
     56 C56       -49.8313  -27.8894   11.1105 C.3       14 UNK        -0.0967 
     57 S57       -51.2282  -28.6381   12.0260 S.3       14 UNK        -0.2604 
     58 C58       -50.9487  -30.4210   11.7862 C.3       14 UNK         0.0134 
     59 N         -47.4797  -27.1173   11.5382 N.am      6 UNK        -0.4116 
     60 C         -46.3995  -27.7057   12.0753 C.2       5 UNK         0.5034 
     61 O         -46.4407  -28.4853   13.0280 O.2       5 UNK        -0.5045 
     62 CA        -45.0236  -27.3726   11.4682 C.3       5 UNK         0.0224 
     63 CB        -44.6054  -28.4597   10.4647 C.3       5 UNK        -0.1978 
     64 N         -44.9440  -26.0645   10.8148 N.am      5 UNK        -0.4737 
     65 C         -45.1685  -24.8802   11.4004 C.2       4 UNK         0.5027 
     66 O         -45.4689  -24.7379   12.5856 O.2       4 UNK        -0.5211 
     67 CA        -45.1083  -23.6472   10.4838 C.3       4 UNK         0.0297 
     68 CB        -43.6720  -23.1041   10.4210 C.3       4 UNK        -0.1993 
     69 N         -45.6106  -23.8599    9.1169 N.am      4 UNK        -0.4486 
     70 C         -46.7842  -24.4121    8.7745 C.2       3 UNK         0.4961 
     71 O         -47.5609  -24.9434    9.5728 O.2       3 UNK        -0.5105 
     72 CA        -47.1334  -24.4029    7.2777 C.3       3 UNK         0.0299 
     73 CB        -46.7510  -25.7468    6.6396 C.3       3 UNK        -0.1972 
     74 N         -48.5610  -24.1451    7.0645 N.am      3 UNK        -0.4305 
     75 C         -49.1736  -22.9955    7.3926 C.2       2 UNK         0.5006 
     76 O         -48.5625  -22.0002    7.7858 O.2       2 UNK        -0.5106 
     77 CA        -50.7081  -22.9027    7.2616 C.3       2 UNK         0.0296 
     78 CB        -51.1121  -21.7196    6.3635 C.3       2 UNK        -0.2002 
     79 N         -51.3443  -24.1146    6.7464 N.am      2 UNK        -0.4032 
     80 C         -51.6150  -25.2240    7.4490 C.2       1 UNK         0.5000 
     81 O         -51.3706  -25.3456    8.6506 O.2       1 UNK        -0.5238 
     82 H82       -51.4337  -26.5523    2.7236 H         1 UNK         0.0889 
     83 H83       -50.0107  -27.5680    2.9648 H         1 UNK         0.0889 
     84 H84       -49.8392  -25.8123    2.8893 H         1 UNK         0.0889 
     85 H85       -52.6548  -26.3670    4.5820 H         1 UNK         0.3028 
     86 H86       -53.3352  -26.1467    6.6665 H         1 UNK         0.0864 
     87 H87       -51.0518  -28.0658    7.3326 H         1 UNK         0.0720 
     88 H88       -52.3953  -27.7238    8.3910 H         1 UNK         0.0720 
     89 H89       -51.1240  -30.3944    6.6939 H         1 UNK         0.0814 
     90 H90       -52.5014  -31.3327    6.1840 H         1 UNK         0.0814 
     91 H91       -50.8131  -29.8479    9.1213 H         1 UNK         0.1469 
     92 H92       -52.9721  -32.2363   11.9482 H         1 UNK         0.1381 
     93 H93       -54.0710  -32.2977    7.8017 H         1 UNK         0.1206 
     94 H94       -54.3970  -34.0897   10.9944 H         1 UNK         0.0813 
     95 H95       -54.8578  -34.0515    9.3184 H         1 UNK         0.0813 
     96 H96       -55.0930  -32.5672   12.7023 H         1 UNK         0.0638 
     97 H97       -56.8016  -32.7248   12.9644 H         1 UNK         0.0638 
     98 H98       -57.2210  -30.3860   12.4570 H         1 UNK         0.0568 
     99 H99       -56.5974  -29.9380   15.9175 H         1 UNK         0.3450 
    100 H100      -57.7760  -30.1275   14.6463 H         1 UNK         0.3450 
    101 H101      -54.8088  -30.4292   11.0395 H         1 UNK         0.2987 
    102 H102      -53.7645  -28.7259   10.1766 H         1 UNK         0.0766 
    103 H103      -54.7626  -27.1407    8.4353 H         1 UNK         0.0798 
    104 H104      -56.2248  -27.0828    9.4126 H         1 UNK         0.0798 
    105 H105      -55.6853  -28.6060    8.7278 H         1 UNK         0.0798 
    106 H106      -52.8291  -27.0859   11.3131 H         1 UNK         0.3198 
    107 H107      -52.0921  -24.7873   11.2099 H         1 UNK         0.0843 
    108 H108      -54.3452  -22.9241   12.1294 H         1 UNK         0.0831 
    109 H109      -53.4068  -22.7992   10.6523 H         1 UNK         0.0831 
    110 H110      -52.6323  -22.5332   12.2063 H         1 UNK         0.0831 
    111 H111      -51.8618  -25.4730   13.3016 H         1 UNK         0.3133 
    112 H112      -53.7349  -25.1790   16.2516 H         1 UNK         0.0566 
    113 H113      -53.3481  -27.8629   14.8150 H         1 UNK         0.0814 
    114 H114      -53.6841  -27.6426   16.5316 H         1 UNK         0.0814 
    115 H115      -54.8983  -27.2227   15.3362 H         1 UNK         0.0814 
    116 H116      -51.2030  -25.8687   14.9032 H         1 UNK         0.3091 
    117 H117      -49.4531  -25.9973   18.0530 H         1 UNK         0.0702 
    118 H118      -48.3456  -27.7509   16.7044 H         1 UNK         0.0785 
    119 H119      -49.6645  -27.7345   15.5372 H         1 UNK         0.0785 
    120 H120      -49.9531  -28.2673   17.1868 H         1 UNK         0.0785 
    121 H121      -49.0663  -25.2955   15.1741 H         1 UNK         0.2998 
    122 H122      -47.4838  -22.3005   15.8989 H         1 UNK         0.0697 
    123 H123      -45.7606  -24.7978   15.4508 H         1 UNK         0.0825 
    124 H124      -45.5319  -23.6110   16.7287 H         1 UNK         0.0825 
    125 H125      -45.2998  -23.1443   15.0517 H         1 UNK         0.0825 
    126 H126      -47.2801  -24.1026   13.6409 H         1 UNK         0.3029 
    127 H127      -50.4928  -23.4103   12.3546 H         1 UNK         0.0897 
    128 H128      -49.3231  -21.3747   11.5391 H         1 UNK         0.0792 
    129 H129      -49.3943  -22.6242   10.3103 H         1 UNK         0.0792 
    130 H130      -47.8914  -22.3269   11.1800 H         1 UNK         0.0792 
    131 H131      -48.3925  -24.8134   11.1125 H         1 UNK         0.3086 
    132 H132      -48.7904  -27.8544   12.9811 H         1 UNK         0.0583 
    133 H133      -50.2103  -27.1775   10.3736 H         1 UNK         0.1020 
    134 H134      -49.3235  -28.6628   10.5337 H         1 UNK         0.1020 
    135 H135      -49.8964  -30.6284   11.5883 H         1 UNK         0.0694 
    136 H136      -51.1836  -30.9268   12.7240 H         1 UNK         0.0694 
    137 H137      -47.3531  -26.4747   10.7619 H         1 UNK         0.2989 
    138 H138      -44.3061  -27.3684   12.2918 H         1 UNK         0.1055 
    139 H139      -44.6277  -29.4479   10.9269 H         1 UNK         0.0806 
    140 H140      -43.5898  -28.2980   10.1029 H         1 UNK         0.0806 
    141 H141      -45.2708  -28.4893    9.6007 H         1 UNK         0.0806 
    142 H142      -44.7233  -26.0633    9.8296 H         1 UNK         0.3061 
    143 H143      -45.7311  -22.8783   10.9407 H         1 UNK         0.0734 
    144 H144      -43.2794  -22.9217   11.4226 H         1 UNK         0.0832 
    145 H145      -43.6268  -22.1572    9.8827 H         1 UNK         0.0832 
    146 H146      -42.9955  -23.8043    9.9291 H         1 UNK         0.0832 
    147 H147      -45.0416  -23.4736    8.3768 H         1 UNK         0.3156 
    148 H148      -46.5697  -23.6087    6.7837 H         1 UNK         0.0589 
    149 H149      -47.3021  -26.5754    7.0872 H         1 UNK         0.0808 
    150 H150      -46.9567  -25.7499    5.5690 H         1 UNK         0.0808 
    151 H151      -45.6877  -25.9550    6.7652 H         1 UNK         0.0808 
    152 H152      -49.1162  -24.9300    6.7434 H         1 UNK         0.3098 
    153 H153      -51.0975  -22.7133    8.2643 H         1 UNK         0.0720 
    154 H154      -52.1958  -21.6121    6.3115 H         1 UNK         0.0791 
    155 H155      -50.7357  -21.8380    5.3466 H         1 UNK         0.0791 
    156 H156      -50.7167  -20.7789    6.7495 H         1 UNK         0.0791 
    157 H157      -51.5672  -24.1196    5.7616 H         1 UNK         0.3028 
@<TRIPOS>BOND
     1    1    2 1    
     2    1   82 1    
     3    1   83 1    
     4    1   84 1    
     5    2    3 2    
     6    2    4 am   BACKBONE|DICT|INTERRES
     7    4    5 1    
     8    4   85 1    
     9    5    6 1    
    10    5   80 1    
    11    5   86 1    
    12    6    7 1    
    13    6   87 1    
    14    6   88 1    
    15    7    8 1    
    16    8    9 1    
    17    8   89 1    
    18    8   90 1    
    19    9   10 ar   
    20    9   14 ar   
    21   10   11 ar   
    22   10   91 1    
    23   11   12 ar   
    24   11   58 1    
    25   12   13 ar   
    26   12   92 1    
    27   13   14 ar   
    28   13   15 1    
    29   14   93 1    
    30   15   16 1    
    31   15   94 1    
    32   15   95 1    
    33   16   17 1    
    34   17   18 1    
    35   17   96 1    
    36   17   97 1    
    37   18   19 1    
    38   18   22 1    
    39   18   98 1    
    40   19   20 am   BACKBONE|DICT|INTERRES
    41   19   21 2    
    42   20   99 1    
    43   20  100 1    
    44   22   23 am   BACKBONE|DICT|INTERRES
    45   22  101 1    
    46   23   24 2    
    47   23   25 1    
    48   25   26 1    
    49   25   27 1    
    50   25  102 1    
    51   26  103 1    
    52   26  104 1    
    53   26  105 1    
    54   27   28 am   BACKBONE|DICT|INTERRES
    55   27  106 1    
    56   28   29 2    
    57   28   30 1    
    58   30   31 1    
    59   30   32 1    
    60   30  107 1    
    61   31  108 1    
    62   31  109 1    
    63   31  110 1    
    64   32   33 am   BACKBONE|DICT|INTERRES
    65   32  111 1    
    66   33   34 2    
    67   33   35 1    
    68   35   36 1    
    69   35   37 1    
    70   35  112 1    
    71   36  113 1    
    72   36  114 1    
    73   36  115 1    
    74   37   38 am   BACKBONE|DICT|INTERRES
    75   37  116 1    
    76   38   39 2    
    77   38   40 1    
    78   40   41 1    
    79   40   42 1    
    80   40  117 1    
    81   41  118 1    
    82   41  119 1    
    83   41  120 1    
    84   42   43 am   BACKBONE|DICT|INTERRES
    85   42  121 1    
    86   43   44 2    
    87   43   45 1    
    88   45   46 1    
    89   45   47 1    
    90   45  122 1    
    91   46  123 1    
    92   46  124 1    
    93   46  125 1    
    94   47   48 am   BACKBONE|DICT|INTERRES
    95   47  126 1    
    96   48   49 2    
    97   48   50 1    
    98   50   51 1    
    99   50   52 1    
   100   50  127 1    
   101   51  128 1    
   102   51  129 1    
   103   51  130 1    
   104   52   53 am   BACKBONE|DICT|INTERRES
   105   52  131 1    
   106   53   54 2    
   107   53   55 1    
   108   55   56 1    
   109   55   59 1    
   110   55  132 1    
   111   56   57 1    
   112   56  133 1    
   113   56  134 1    
   114   57   58 1    
   115   58  135 1    
   116   58  136 1    
   117   59   60 am   BACKBONE|DICT|INTERRES
   118   59  137 1    
   119   60   61 2    
   120   60   62 1    
   121   62   63 1    
   122   62   64 1    
   123   62  138 1    
   124   63  139 1    
   125   63  140 1    
   126   63  141 1    
   127   64   65 am   BACKBONE|DICT|INTERRES
   128   64  142 1    
   129   65   66 2    
   130   65   67 1    
   131   67   68 1    
   132   67   69 1    
   133   67  143 1    
   134   68  144 1    
   135   68  145 1    
   136   68  146 1    
   137   69   70 am   BACKBONE|DICT|INTERRES
   138   69  147 1    
   139   70   71 2    
   140   70   72 1    
   141   72   73 1    
   142   72   74 1    
   143   72  148 1    
   144   73  149 1    
   145   73  150 1    
   146   73  151 1    
   147   74   75 am   BACKBONE|DICT|INTERRES
   148   74  152 1    
   149   75   76 2    
   150   75   77 1    
   151   77   78 1    
   152   77   79 1    
   153   77  153 1    
   154   78  154 1    
   155   78  155 1    
   156   78  156 1    
   157   79   80 am   BACKBONE|DICT|INTERRES
   158   79  157 1    
   159   80   81 2    
@<TRIPOS>SUBSTRUCTURE
     1 UNK         1 GROUP             0       ****    0 ROOT    
