@<TRIPOS>MOLECULE
3R207
157   159    1
SMALL
USER_CHARGES


@<TRIPOS>ATOM
      1 CA        -45.2464  -23.2013    2.3008 C.3       0 UNK        -0.1975 
      2 C         -46.1488  -24.2559    2.9254 C.2       0 UNK         0.4852 
      3 O         -46.7470  -25.0503    2.1980 O.2       0 UNK        -0.5216 
      4 N         -46.2515  -24.2572    4.2629 N.am      1 UNK        -0.4461 
      5 CA        -47.0154  -25.2084    5.0837 C.3       1 UNK         0.0864 
      6 C6        -48.5319  -25.2253    4.7275 C.3       14 UNK        -0.0898 
      7 S7        -49.6090  -25.5290    6.1681 S.3       14 UNK        -0.2598 
      8 C8        -50.7813  -26.7331    5.4736 C.3       14 UNK         0.0286 
      9 C9        -51.9627  -26.9570    6.4047 C.ar      14 UNK        -0.0844 
     10 C10       -52.9842  -26.0042    6.4768 C.ar      14 UNK        -0.0881 
     11 C11       -54.0893  -26.2076    7.3082 C.ar      14 UNK        -0.0643 
     12 C12       -54.1701  -27.3793    8.0657 C.ar      14 UNK        -0.0930 
     13 C13       -53.1475  -28.3303    8.0160 C.ar      14 UNK        -0.0827 
     14 C14       -52.0467  -28.1176    7.1807 C.ar      14 UNK        -0.1249 
     15 C15       -53.2414  -29.5822    8.8717 C.3       14 UNK         0.0141 
     16 S16       -52.5504  -29.2804   10.5259 S.3       14 UNK        -0.2313 
     17 C17       -53.6105  -30.3317   11.5655 C.3       14 UNK        -0.0915 
     18 CA        -54.7352  -29.5144   12.2519 C.3       13 UNK         0.0968 
     19 C         -55.7524  -30.4706   12.9336 C.2       13 UNK         0.5732 
     20 N         -56.8634  -30.7699   12.2740 N.am      13 UNK        -0.7310 
     21 O         -55.5205  -30.9806   14.0276 O.2       13 UNK        -0.5035 
     22 N         -54.1830  -28.5115   13.1770 N.am      13 UNK        -0.4233 
     23 C         -54.8977  -27.5953   13.8433 C.2       13 UNK         0.4989 
     24 O         -56.1052  -27.4236   13.6670 O.2       13 UNK        -0.4996 
     25 CA        -54.1510  -26.6852   14.8442 C.3       12 UNK         0.0216 
     26 CB        -55.0157  -26.3506   16.0778 C.3       12 UNK        -0.1964 
     27 N         -52.8251  -27.1620   15.2609 N.am      12 UNK        -0.4276 
     28 C         -52.5194  -28.2952   15.9126 C.2       12 UNK         0.5020 
     29 O         -53.3398  -29.1503   16.2437 O.2       12 UNK        -0.5489 
     30 CA        -51.0396  -28.5016   16.2608 C.3       11 UNK         0.0294 
     31 CB        -50.1908  -28.6649   14.9875 C.3       11 UNK        -0.2019 
     32 N         -50.5493  -27.3655   17.0392 N.am      11 UNK        -0.4493 
     33 C         -50.3293  -27.3749   18.3615 C.2       11 UNK         0.4932 
     34 O         -50.4311  -28.3785   19.0680 O.2       11 UNK        -0.5029 
     35 CA        -49.9247  -26.0404   19.0203 C.3       10 UNK         0.0280 
     36 CB        -48.3947  -25.9416   19.1324 C.3       10 UNK        -0.1976 
     37 N         -50.4318  -24.8642   18.3093 N.am      10 UNK        -0.4242 
     38 C         -51.7259  -24.5289   18.2075 C.2       10 UNK         0.5072 
     39 O         -52.6287  -25.1034   18.8168 O.2       10 UNK        -0.5224 
     40 CA        -52.0877  -23.3747   17.2507 C.3       9 UNK         0.0343 
     41 CB        -52.3726  -22.0904   18.0461 C.3       9 UNK        -0.2003 
     42 N         -51.1028  -23.0767   16.2007 N.am      9 UNK        -0.4272 
     43 C         -50.6267  -23.9402   15.2935 C.2       9 UNK         0.4988 
     44 O         -50.8883  -25.1436   15.2840 O.2       9 UNK        -0.5108 
     45 CA        -49.7323  -23.3506   14.1982 C.3       8 UNK         0.0248 
     46 CB        -48.6917  -24.3658   13.6892 C.3       8 UNK        -0.2001 
     47 N         -50.5867  -22.9301   13.0919 N.am      8 UNK        -0.4140 
     48 C         -51.1939  -21.7373   13.0109 C.2       8 UNK         0.5028 
     49 O         -51.0259  -20.8330   13.8306 O.2       8 UNK        -0.5428 
     50 CA        -52.1479  -21.5013   11.8249 C.3       7 UNK         0.0264 
     51 CB        -51.4437  -20.6894   10.7257 C.3       7 UNK        -0.1988 
     52 N         -52.6714  -22.7376   11.2403 N.am      7 UNK        -0.4454 
     53 C         -53.5851  -23.5352   11.8141 C.2       7 UNK         0.5027 
     54 O         -54.1348  -23.2846   12.8869 O.2       7 UNK        -0.5083 
     55 CA        -53.9130  -24.8552   11.0815 C.3       6 UNK         0.0844 
     56 C56       -55.1636  -24.7173   10.1768 C.3       14 UNK        -0.0967 
     57 S57       -54.8522  -23.8604    8.5893 S.3       14 UNK        -0.2604 
     58 C58       -55.2014  -25.1701    7.3709 C.3       14 UNK         0.0134 
     59 N         -52.7531  -25.3990   10.3665 N.am      6 UNK        -0.4116 
     60 C         -51.6326  -25.8297   10.9569 C.2       5 UNK         0.5034 
     61 O         -51.4789  -25.8945   12.1782 O.2       5 UNK        -0.5045 
     62 CA        -50.4618  -26.1686   10.0347 C.3       5 UNK         0.0224 
     63 CB        -49.6267  -24.9106    9.7362 C.3       5 UNK        -0.1978 
     64 N         -49.6222  -27.1677   10.6867 N.am      5 UNK        -0.4737 
     65 C         -48.9631  -28.1334   10.0430 C.2       4 UNK         0.5027 
     66 O         -48.9545  -28.2610    8.8151 O.2       4 UNK        -0.5211 
     67 CA        -48.1914  -29.1350   10.9129 C.3       4 UNK         0.0297 
     68 CB        -49.1358  -30.1772   11.5334 C.3       4 UNK        -0.1993 
     69 N         -47.2384  -29.8091   10.0432 N.am      4 UNK        -0.4486 
     70 C         -45.9547  -30.0696   10.3037 C.2       3 UNK         0.4961 
     71 O         -45.4345  -29.9251   11.4104 O.2       3 UNK        -0.5105 
     72 CA        -45.0961  -30.5648    9.1198 C.3       3 UNK         0.0299 
     73 CB        -44.8485  -32.0780    9.2329 C.3       3 UNK        -0.1972 
     74 N         -45.6754  -30.2697    7.8007 N.am      3 UNK        -0.4305 
     75 C         -45.8447  -29.0395    7.2926 C.2       2 UNK         0.5006 
     76 O         -45.4498  -28.0170    7.8587 O.2       2 UNK        -0.5106 
     77 CA        -46.5894  -28.9454    5.9445 C.3       2 UNK         0.0296 
     78 CB        -47.7978  -29.9005    5.8585 C.3       2 UNK        -0.2002 
     79 N         -47.0634  -27.5808    5.7114 N.am      2 UNK        -0.4032 
     80 C         -46.3637  -26.6136    5.1068 C.2       1 UNK         0.5000 
     81 O         -45.2448  -26.7933    4.6141 O.2       1 UNK        -0.5238 
     82 H82       -44.7900  -22.5568    3.0518 H         1 UNK         0.0889 
     83 H83       -45.8193  -22.5736    1.6187 H         1 UNK         0.0889 
     84 H84       -44.4478  -23.6799    1.7346 H         1 UNK         0.0889 
     85 H85       -45.7058  -23.5893    4.7896 H         1 UNK         0.3028 
     86 H86       -46.9127  -24.8272    6.1012 H         1 UNK         0.0864 
     87 H87       -48.8326  -24.2547    4.3296 H         1 UNK         0.0720 
     88 H88       -48.7400  -25.9421    3.9306 H         1 UNK         0.0720 
     89 H89       -50.2625  -27.6725    5.2761 H         1 UNK         0.0814 
     90 H90       -51.1469  -26.3725    4.5107 H         1 UNK         0.0814 
     91 H91       -52.9181  -25.1027    5.8825 H         1 UNK         0.1469 
     92 H92       -55.0248  -27.5515    8.7047 H         1 UNK         0.1381 
     93 H93       -51.2511  -28.8498    7.1437 H         1 UNK         0.1206 
     94 H94       -52.7082  -30.4109    8.4036 H         1 UNK         0.0813 
     95 H95       -54.2853  -29.8901    8.9482 H         1 UNK         0.0813 
     96 H96       -54.0240  -31.1341   10.9515 H         1 UNK         0.0638 
     97 H97       -52.9815  -30.8189   12.3129 H         1 UNK         0.0638 
     98 H98       -55.2695  -28.9612   11.4767 H         1 UNK         0.0568 
     99 H99       -57.0609  -30.3679   11.3711 H         1 UNK         0.3450 
    100 H100      -57.5253  -31.4030   12.6947 H         1 UNK         0.3450 
    101 H101      -53.1965  -28.5823   13.3706 H         1 UNK         0.2987 
    102 H102      -53.9657  -25.7499   14.3145 H         1 UNK         0.0766 
    103 H103      -55.3011  -27.2495   16.6251 H         1 UNK         0.0798 
    104 H104      -54.4871  -25.6937   16.7679 H         1 UNK         0.0798 
    105 H105      -55.9347  -25.8395   15.7885 H         1 UNK         0.0798 
    106 H106      -52.0632  -26.5145   15.0581 H         1 UNK         0.3198 
    107 H107      -50.9561  -29.4245   16.8392 H         1 UNK         0.0843 
    108 H108      -50.5470  -29.5104   14.3985 H         1 UNK         0.0831 
    109 H109      -49.1466  -28.8591   15.2327 H         1 UNK         0.0831 
    110 H110      -50.2234  -27.7799   14.3503 H         1 UNK         0.0831 
    111 H111      -50.4947  -26.4796   16.5431 H         1 UNK         0.3133 
    112 H112      -50.3428  -26.0298   20.0291 H         1 UNK         0.0566 
    113 H113      -48.0919  -25.0391   19.6636 H         1 UNK         0.0814 
    114 H114      -47.9891  -26.7910   19.6840 H         1 UNK         0.0814 
    115 H115      -47.9167  -25.9327   18.1518 H         1 UNK         0.0814 
    116 H116      -49.7606  -24.3218   17.7859 H         1 UNK         0.3091 
    117 H117      -53.0076  -23.6681   16.7412 H         1 UNK         0.0702 
    118 H118      -52.7496  -21.2977   17.3994 H         1 UNK         0.0785 
    119 H119      -51.4772  -21.7200   18.5469 H         1 UNK         0.0785 
    120 H120      -53.1279  -22.2642   18.8141 H         1 UNK         0.0785 
    121 H121      -50.8520  -22.1029   16.0925 H         1 UNK         0.2998 
    122 H122      -49.1916  -22.4926   14.6037 H         1 UNK         0.0697 
    123 H123      -49.1569  -25.2536   13.2610 H         1 UNK         0.0825 
    124 H124      -48.0468  -24.7004   14.5025 H         1 UNK         0.0825 
    125 H125      -48.0493  -23.9251   12.9269 H         1 UNK         0.0825 
    126 H126      -50.8522  -23.6552   12.4404 H         1 UNK         0.3029 
    127 H127      -52.9916  -20.9159   12.1976 H         1 UNK         0.0897 
    128 H128      -52.1263  -20.4484    9.9104 H         1 UNK         0.0792 
    129 H129      -51.0673  -19.7441   11.1198 H         1 UNK         0.0792 
    130 H130      -50.5934  -21.2284   10.3056 H         1 UNK         0.0792 
    131 H131      -52.3070  -23.0042   10.3375 H         1 UNK         0.3086 
    132 H132      -54.1647  -25.5774   11.8590 H         1 UNK         0.0583 
    133 H133      -55.5734  -25.7078    9.9816 H         1 UNK         0.1020 
    134 H134      -55.9628  -24.1902   10.7023 H         1 UNK         0.1020 
    135 H135      -56.1577  -25.6430    7.6002 H         1 UNK         0.0694 
    136 H136      -55.3236  -24.7082    6.3900 H         1 UNK         0.0694 
    137 H137      -52.8174  -25.3955    9.3573 H         1 UNK         0.2989 
    138 H138      -50.8605  -26.5721    9.1026 H         1 UNK         0.1055 
    139 H139      -48.7690  -25.1491    9.1070 H         1 UNK         0.0806 
    140 H140      -49.2491  -24.4468   10.6478 H         1 UNK         0.0806 
    141 H141      -50.2165  -24.1640    9.2034 H         1 UNK         0.0806 
    142 H142      -49.6602  -27.1559   11.6977 H         1 UNK         0.3061 
    143 H143      -47.6697  -28.5854   11.6995 H         1 UNK         0.0734 
    144 H144      -49.8966  -29.6984   12.1487 H         1 UNK         0.0832 
    145 H145      -49.6569  -30.7538   10.7680 H         1 UNK         0.0832 
    146 H146      -48.5923  -30.8759   12.1694 H         1 UNK         0.0832 
    147 H147      -47.5525  -29.8670    9.0828 H         1 UNK         0.3156 
    148 H148      -44.1323  -30.0555    9.1831 H         1 UNK         0.0589 
    149 H149      -45.7771  -32.6459    9.1630 H         1 UNK         0.0808 
    150 H150      -44.1767  -32.4314    8.4504 H         1 UNK         0.0808 
    151 H151      -44.3866  -32.3272   10.1894 H         1 UNK         0.0808 
    152 H152      -46.0126  -31.0604    7.2705 H         1 UNK         0.3098 
    153 H153      -45.8815  -29.2240    5.1611 H         1 UNK         0.0720 
    154 H154      -48.3383  -29.7636    4.9216 H         1 UNK         0.0791 
    155 H155      -48.5056  -29.7376    6.6716 H         1 UNK         0.0791 
    156 H156      -47.4910  -30.9462    5.8903 H         1 UNK         0.0791 
    157 H157      -47.9340  -27.3268    6.1610 H         1 UNK         0.3028 
@<TRIPOS>BOND
     1    1    2 1    
     2    1   82 1    
     3    1   83 1    
     4    1   84 1    
     5    2    3 2    
     6    2    4 am   BACKBONE|DICT|INTERRES
     7    4    5 1    
     8    4   85 1    
     9    5    6 1    
    10    5   80 1    
    11    5   86 1    
    12    6    7 1    
    13    6   87 1    
    14    6   88 1    
    15    7    8 1    
    16    8    9 1    
    17    8   89 1    
    18    8   90 1    
    19    9   10 ar   
    20    9   14 ar   
    21   10   11 ar   
    22   10   91 1    
    23   11   12 ar   
    24   11   58 1    
    25   12   13 ar   
    26   12   92 1    
    27   13   14 ar   
    28   13   15 1    
    29   14   93 1    
    30   15   16 1    
    31   15   94 1    
    32   15   95 1    
    33   16   17 1    
    34   17   18 1    
    35   17   96 1    
    36   17   97 1    
    37   18   19 1    
    38   18   22 1    
    39   18   98 1    
    40   19   20 am   BACKBONE|DICT|INTERRES
    41   19   21 2    
    42   20   99 1    
    43   20  100 1    
    44   22   23 am   BACKBONE|DICT|INTERRES
    45   22  101 1    
    46   23   24 2    
    47   23   25 1    
    48   25   26 1    
    49   25   27 1    
    50   25  102 1    
    51   26  103 1    
    52   26  104 1    
    53   26  105 1    
    54   27   28 am   BACKBONE|DICT|INTERRES
    55   27  106 1    
    56   28   29 2    
    57   28   30 1    
    58   30   31 1    
    59   30   32 1    
    60   30  107 1    
    61   31  108 1    
    62   31  109 1    
    63   31  110 1    
    64   32   33 am   BACKBONE|DICT|INTERRES
    65   32  111 1    
    66   33   34 2    
    67   33   35 1    
    68   35   36 1    
    69   35   37 1    
    70   35  112 1    
    71   36  113 1    
    72   36  114 1    
    73   36  115 1    
    74   37   38 am   BACKBONE|DICT|INTERRES
    75   37  116 1    
    76   38   39 2    
    77   38   40 1    
    78   40   41 1    
    79   40   42 1    
    80   40  117 1    
    81   41  118 1    
    82   41  119 1    
    83   41  120 1    
    84   42   43 am   BACKBONE|DICT|INTERRES
    85   42  121 1    
    86   43   44 2    
    87   43   45 1    
    88   45   46 1    
    89   45   47 1    
    90   45  122 1    
    91   46  123 1    
    92   46  124 1    
    93   46  125 1    
    94   47   48 am   BACKBONE|DICT|INTERRES
    95   47  126 1    
    96   48   49 2    
    97   48   50 1    
    98   50   51 1    
    99   50   52 1    
   100   50  127 1    
   101   51  128 1    
   102   51  129 1    
   103   51  130 1    
   104   52   53 am   BACKBONE|DICT|INTERRES
   105   52  131 1    
   106   53   54 2    
   107   53   55 1    
   108   55   56 1    
   109   55   59 1    
   110   55  132 1    
   111   56   57 1    
   112   56  133 1    
   113   56  134 1    
   114   57   58 1    
   115   58  135 1    
   116   58  136 1    
   117   59   60 am   BACKBONE|DICT|INTERRES
   118   59  137 1    
   119   60   61 2    
   120   60   62 1    
   121   62   63 1    
   122   62   64 1    
   123   62  138 1    
   124   63  139 1    
   125   63  140 1    
   126   63  141 1    
   127   64   65 am   BACKBONE|DICT|INTERRES
   128   64  142 1    
   129   65   66 2    
   130   65   67 1    
   131   67   68 1    
   132   67   69 1    
   133   67  143 1    
   134   68  144 1    
   135   68  145 1    
   136   68  146 1    
   137   69   70 am   BACKBONE|DICT|INTERRES
   138   69  147 1    
   139   70   71 2    
   140   70   72 1    
   141   72   73 1    
   142   72   74 1    
   143   72  148 1    
   144   73  149 1    
   145   73  150 1    
   146   73  151 1    
   147   74   75 am   BACKBONE|DICT|INTERRES
   148   74  152 1    
   149   75   76 2    
   150   75   77 1    
   151   77   78 1    
   152   77   79 1    
   153   77  153 1    
   154   78  154 1    
   155   78  155 1    
   156   78  156 1    
   157   79   80 am   BACKBONE|DICT|INTERRES
   158   79  157 1    
   159   80   81 2    
@<TRIPOS>SUBSTRUCTURE
     1 UNK         1 GROUP             0       ****    0 ROOT    
