@<TRIPOS>MOLECULE
3R207
157   159    1
SMALL
USER_CHARGES


@<TRIPOS>ATOM
      1 CA        -44.5004  -30.0184    7.3819 C.3       0 UNK        -0.1975 
      2 C         -45.3719  -29.7680    6.1601 C.2       0 UNK         0.4852 
      3 O         -44.8440  -29.5430    5.0706 O.2       0 UNK        -0.5216 
      4 N         -46.7000  -29.8164    6.3325 N.am      1 UNK        -0.4461 
      5 CA        -47.7003  -29.5999    5.2793 C.3       1 UNK         0.0864 
      6 C6        -49.1132  -30.0527    5.7261 C.3       14 UNK        -0.0898 
      7 S7        -49.6903  -29.2705    7.2729 S.3       14 UNK        -0.2598 
      8 C8        -51.4494  -29.7155    7.2220 C.3       14 UNK         0.0286 
      9 C9        -52.2271  -29.0007    8.3141 C.ar      14 UNK        -0.0844 
     10 C10       -52.6531  -27.6848    8.1156 C.ar      14 UNK        -0.0881 
     11 C11       -53.4001  -27.0253    9.0951 C.ar      14 UNK        -0.0643 
     12 C12       -53.7245  -27.6945   10.2784 C.ar      14 UNK        -0.0930 
     13 C13       -53.2961  -29.0078   10.4931 C.ar      14 UNK        -0.0827 
     14 C14       -52.5406  -29.6542    9.5097 C.ar      14 UNK        -0.1249 
     15 C15       -53.6497  -29.7285   11.7863 C.3       14 UNK         0.0141 
     16 S16       -54.9252  -31.0052   11.5348 S.3       14 UNK        -0.2313 
     17 C17       -56.3996  -30.0084   11.1198 C.3       14 UNK        -0.0915 
     18 CA        -57.4971  -29.9144   12.2200 C.3       13 UNK         0.0968 
     19 C         -58.2010  -31.2658   12.5589 C.2       13 UNK         0.5732 
     20 N         -58.7168  -31.4595   13.7665 N.am      13 UNK        -0.7310 
     21 O         -58.3340  -32.1348   11.6998 O.2       13 UNK        -0.5035 
     22 N         -57.1159  -29.0451   13.3493 N.am      13 UNK        -0.4233 
     23 C         -56.3731  -29.3386   14.4239 C.2       13 UNK         0.4989 
     24 O         -55.8748  -30.4416   14.6501 O.2       13 UNK        -0.4996 
     25 CA        -56.1613  -28.1823   15.4200 C.3       12 UNK         0.0216 
     26 CB        -55.5588  -28.6565   16.7555 C.3       12 UNK        -0.1964 
     27 N         -55.3208  -27.1185   14.8602 N.am      12 UNK        -0.4276 
     28 C         -55.7356  -26.1975   13.9751 C.2       12 UNK         0.5020 
     29 O         -56.8754  -26.1944   13.5034 O.2       12 UNK        -0.5489 
     30 CA        -54.7320  -25.1112   13.5256 C.3       11 UNK         0.0294 
     31 CB        -55.4227  -23.7815   13.1595 C.3       11 UNK        -0.2019 
     32 N         -53.6277  -24.8778   14.4611 N.am      11 UNK        -0.4493 
     33 C         -53.7008  -24.5071   15.7488 C.2       11 UNK         0.4932 
     34 O         -54.7516  -24.2117   16.3202 O.2       11 UNK        -0.5029 
     35 CA        -52.3721  -24.5034   16.5350 C.3       10 UNK         0.0280 
     36 CB        -52.5827  -24.6573   18.0559 C.3       10 UNK        -0.1976 
     37 N         -51.4014  -25.4965   16.0513 N.am      10 UNK        -0.4242 
     38 C         -51.5818  -26.8236   15.9374 C.2       10 UNK         0.5072 
     39 O         -52.6273  -27.3897   16.2568 O.2       10 UNK        -0.5224 
     40 CA        -50.4519  -27.6709   15.3180 C.3       9 UNK         0.0343 
     41 CB        -50.9661  -28.4223   14.0766 C.3       9 UNK        -0.2003 
     42 N         -49.2695  -26.8940   14.9412 N.am      9 UNK        -0.4272 
     43 C         -48.3236  -26.4643   15.7869 C.2       9 UNK         0.4988 
     44 O         -48.2952  -26.7469   16.9849 O.2       9 UNK        -0.5108 
     45 CA        -47.2547  -25.5190   15.2073 C.3       8 UNK         0.0248 
     46 CB        -46.0997  -26.3222   14.5895 C.3       8 UNK        -0.2001 
     47 N         -47.7914  -24.5726   14.2201 N.am      8 UNK        -0.4140 
     48 C         -48.7329  -23.6538   14.4865 C.2       8 UNK         0.5028 
     49 O         -49.2189  -23.4812   15.6041 O.2       8 UNK        -0.5428 
     50 CA        -49.2680  -22.8225   13.3094 C.3       7 UNK         0.0264 
     51 CB        -48.2944  -21.6900   12.9474 C.3       7 UNK        -0.1988 
     52 N         -49.5590  -23.6294   12.1230 N.am      7 UNK        -0.4454 
     53 C         -50.4713  -24.6127   12.0683 C.2       7 UNK         0.5027 
     54 O         -51.1940  -24.9299   13.0140 O.2       7 UNK        -0.5083 
     55 CA        -50.5520  -25.4145   10.7504 C.3       6 UNK         0.0844 
     56 C56       -51.3059  -24.6359    9.6425 C.3       14 UNK        -0.0967 
     57 S57       -53.0820  -24.4188   10.0118 S.3       14 UNK        -0.2604 
     58 C58       -53.8672  -25.5952    8.8665 C.3       14 UNK         0.0134 
     59 N         -49.2228  -25.8497   10.3086 N.am      6 UNK        -0.4116 
     60 C         -48.3839  -26.6097   11.0298 C.2       5 UNK         0.5034 
     61 O         -48.6706  -27.1184   12.1121 O.2       5 UNK        -0.5045 
     62 CA        -46.9547  -26.7699   10.4914 C.3       5 UNK         0.0224 
     63 CB        -46.8646  -27.9168    9.4755 C.3       5 UNK        -0.1978 
     64 N         -46.4576  -25.5277    9.8960 N.am      5 UNK        -0.4737 
     65 C         -46.1096  -24.4452   10.6059 C.2       4 UNK         0.5027 
     66 O         -46.1247  -24.4035   11.8354 O.2       4 UNK        -0.5211 
     67 CA        -45.7195  -23.1872    9.8107 C.3       4 UNK         0.0297 
     68 CB        -44.2408  -23.2476    9.3970 C.3       4 UNK        -0.1993 
     69 N         -46.5554  -22.9844    8.6241 N.am      4 UNK        -0.4486 
     70 C         -47.8690  -22.7189    8.6618 C.2       3 UNK         0.4961 
     71 O         -48.5018  -22.5568    9.7039 O.2       3 UNK        -0.5105 
     72 CA        -48.6171  -22.6787    7.3164 C.3       3 UNK         0.0299 
     73 CB        -48.6007  -21.2557    6.7371 C.3       3 UNK        -0.1972 
     74 N         -48.1071  -23.6243    6.3153 N.am      3 UNK        -0.4305 
     75 C         -48.0184  -24.9512    6.4828 C.2       2 UNK         0.5006 
     76 O         -48.3435  -25.5322    7.5221 O.2       2 UNK        -0.5106 
     77 CA        -47.4255  -25.7478    5.3139 C.3       2 UNK         0.0296 
     78 CB        -45.9500  -25.3751    5.0718 C.3       2 UNK        -0.2002 
     79 N         -47.5117  -27.1736    5.6132 N.am      2 UNK        -0.4032 
     80 C         -47.6972  -28.1569    4.7252 C.2       1 UNK         0.5000 
     81 O         -47.8370  -27.9709    3.5144 O.2       1 UNK        -0.5238 
     82 H82       -45.0886  -30.3205    8.2482 H         1 UNK         0.0889 
     83 H83       -43.9482  -29.1154    7.6403 H         1 UNK         0.0889 
     84 H84       -43.7806  -30.8093    7.1728 H         1 UNK         0.0889 
     85 H85       -47.0795  -30.0173    7.2469 H         1 UNK         0.3028 
     86 H86       -47.4130  -30.2412    4.4429 H         1 UNK         0.0864 
     87 H87       -49.1164  -31.1333    5.8784 H         1 UNK         0.0720 
     88 H88       -49.8389  -29.8650    4.9321 H         1 UNK         0.0720 
     89 H89       -51.5522  -30.7972    7.3222 H         1 UNK         0.0814 
     90 H90       -51.8669  -29.4543    6.2483 H         1 UNK         0.0814 
     91 H91       -52.4030  -27.1771    7.1940 H         1 UNK         0.1469 
     92 H92       -54.3128  -27.1896   11.0304 H         1 UNK         0.1381 
     93 H93       -52.2124  -30.6722    9.6702 H         1 UNK         0.1206 
     94 H94       -52.7537  -30.2040   12.1871 H         1 UNK         0.0813 
     95 H95       -53.9864  -29.0235   12.5477 H         1 UNK         0.0813 
     96 H96       -56.0927  -29.0020   10.8382 H         1 UNK         0.0638 
     97 H97       -56.8275  -30.4330   10.2103 H         1 UNK         0.0638 
     98 H98       -58.3065  -29.3517   11.7539 H         1 UNK         0.0568 
     99 H99       -59.1845  -32.3286   13.9691 H         1 UNK         0.3450 
    100 H100      -58.6143  -30.7604   14.4837 H         1 UNK         0.3450 
    101 H101      -57.4199  -28.0789   13.2715 H         1 UNK         0.2987 
    102 H102      -57.1442  -27.7614   15.6432 H         1 UNK         0.0766 
    103 H103      -55.4296  -27.8267   17.4508 H         1 UNK         0.0798 
    104 H104      -54.5861  -29.1296   16.6161 H         1 UNK         0.0798 
    105 H105      -56.2084  -29.3877   17.2384 H         1 UNK         0.0798 
    106 H106      -54.3685  -27.0719   15.2120 H         1 UNK         0.3198 
    107 H107      -54.2657  -25.4952   12.6189 H         1 UNK         0.0843 
    108 H108      -55.9594  -23.3574   14.0085 H         1 UNK         0.0831 
    109 H109      -56.1449  -23.9233   12.3545 H         1 UNK         0.0831 
    110 H110      -54.6994  -23.0432   12.8134 H         1 UNK         0.0831 
    111 H111      -52.6979  -25.0377   14.0725 H         1 UNK         0.3133 
    112 H112      -51.9199  -23.5267   16.3588 H         1 UNK         0.0566 
    113 H113      -53.0865  -25.5931   18.3004 H         1 UNK         0.0814 
    114 H114      -51.6333  -24.6371   18.5909 H         1 UNK         0.0814 
    115 H115      -53.1934  -23.8453   18.4523 H         1 UNK         0.0814 
    116 H116      -50.5204  -25.1053   15.7356 H         1 UNK         0.3091 
    117 H117      -50.1586  -28.4109   16.0652 H         1 UNK         0.0702 
    118 H118      -51.8078  -29.0686   14.3284 H         1 UNK         0.0785 
    119 H119      -51.3020  -27.7343   13.2995 H         1 UNK         0.0785 
    120 H120      -50.1904  -29.0561   13.6466 H         1 UNK         0.0785 
    121 H121      -49.1758  -26.6727   13.9534 H         1 UNK         0.2998 
    122 H122      -46.8529  -24.9310   16.0350 H         1 UNK         0.0697 
    123 H123      -46.4374  -26.9361   13.7548 H         1 UNK         0.0825 
    124 H124      -45.6531  -26.9916   15.3259 H         1 UNK         0.0825 
    125 H125      -45.3086  -25.6663   14.2256 H         1 UNK         0.0825 
    126 H126      -47.3934  -24.6111   13.2848 H         1 UNK         0.3029 
    127 H127      -50.2083  -22.3693   13.6309 H         1 UNK         0.0897 
    128 H128      -47.3399  -22.0748   12.5881 H         1 UNK         0.0792 
    129 H129      -48.0879  -21.0606   13.8140 H         1 UNK         0.0792 
    130 H130      -48.7075  -21.0466   12.1702 H         1 UNK         0.0792 
    131 H131      -49.0458  -23.3913   11.2763 H         1 UNK         0.3086 
    132 H132      -51.1134  -26.3274   10.9604 H         1 UNK         0.0583 
    133 H133      -50.8702  -23.6478    9.4941 H         1 UNK         0.1020 
    134 H134      -51.1999  -25.1500    8.6859 H         1 UNK         0.1020 
    135 H135      -54.9489  -25.5473    8.9996 H         1 UNK         0.0694 
    136 H136      -53.6701  -25.2779    7.8413 H         1 UNK         0.0694 
    137 H137      -48.9083  -25.5254    9.3993 H         1 UNK         0.2989 
    138 H138      -46.3101  -27.0220   11.3361 H         1 UNK         0.1055 
    139 H139      -47.1705  -28.8609    9.9286 H         1 UNK         0.0806 
    140 H140      -45.8440  -28.0418    9.1159 H         1 UNK         0.0806 
    141 H141      -47.5097  -27.7472    8.6159 H         1 UNK         0.0806 
    142 H142      -46.4971  -25.4558    8.8891 H         1 UNK         0.3061 
    143 H143      -45.8550  -22.3255   10.4681 H         1 UNK         0.0734 
    144 H144      -43.9279  -22.3266    8.9050 H         1 UNK         0.0832 
    145 H145      -43.5988  -23.3806   10.2691 H         1 UNK         0.0832 
    146 H146      -44.0419  -24.0773    8.7174 H         1 UNK         0.0832 
    147 H147      -46.1131  -23.0918    7.7232 H         1 UNK         0.3156 
    148 H148      -49.6558  -22.9500    7.5132 H         1 UNK         0.0589 
    149 H149      -47.5908  -20.9343    6.4792 H         1 UNK         0.0808 
    150 H150      -49.2165  -21.1839    5.8403 H         1 UNK         0.0808 
    151 H151      -48.9970  -20.5375    7.4567 H         1 UNK         0.0808 
    152 H152      -47.8168  -23.2295    5.4319 H         1 UNK         0.3098 
    153 H153      -48.0155  -25.5216    4.4233 H         1 UNK         0.0720 
    154 H154      -45.5257  -25.9599    4.2552 H         1 UNK         0.0791 
    155 H155      -45.3389  -25.5537    5.9576 H         1 UNK         0.0791 
    156 H156      -45.8395  -24.3246    4.8012 H         1 UNK         0.0791 
    157 H157      -47.5223  -27.3991    6.5986 H         1 UNK         0.3028 
@<TRIPOS>BOND
     1    1    2 1    
     2    1   82 1    
     3    1   83 1    
     4    1   84 1    
     5    2    3 2    
     6    2    4 am   BACKBONE|DICT|INTERRES
     7    4    5 1    
     8    4   85 1    
     9    5    6 1    
    10    5   80 1    
    11    5   86 1    
    12    6    7 1    
    13    6   87 1    
    14    6   88 1    
    15    7    8 1    
    16    8    9 1    
    17    8   89 1    
    18    8   90 1    
    19    9   10 ar   
    20    9   14 ar   
    21   10   11 ar   
    22   10   91 1    
    23   11   12 ar   
    24   11   58 1    
    25   12   13 ar   
    26   12   92 1    
    27   13   14 ar   
    28   13   15 1    
    29   14   93 1    
    30   15   16 1    
    31   15   94 1    
    32   15   95 1    
    33   16   17 1    
    34   17   18 1    
    35   17   96 1    
    36   17   97 1    
    37   18   19 1    
    38   18   22 1    
    39   18   98 1    
    40   19   20 am   BACKBONE|DICT|INTERRES
    41   19   21 2    
    42   20   99 1    
    43   20  100 1    
    44   22   23 am   BACKBONE|DICT|INTERRES
    45   22  101 1    
    46   23   24 2    
    47   23   25 1    
    48   25   26 1    
    49   25   27 1    
    50   25  102 1    
    51   26  103 1    
    52   26  104 1    
    53   26  105 1    
    54   27   28 am   BACKBONE|DICT|INTERRES
    55   27  106 1    
    56   28   29 2    
    57   28   30 1    
    58   30   31 1    
    59   30   32 1    
    60   30  107 1    
    61   31  108 1    
    62   31  109 1    
    63   31  110 1    
    64   32   33 am   BACKBONE|DICT|INTERRES
    65   32  111 1    
    66   33   34 2    
    67   33   35 1    
    68   35   36 1    
    69   35   37 1    
    70   35  112 1    
    71   36  113 1    
    72   36  114 1    
    73   36  115 1    
    74   37   38 am   BACKBONE|DICT|INTERRES
    75   37  116 1    
    76   38   39 2    
    77   38   40 1    
    78   40   41 1    
    79   40   42 1    
    80   40  117 1    
    81   41  118 1    
    82   41  119 1    
    83   41  120 1    
    84   42   43 am   BACKBONE|DICT|INTERRES
    85   42  121 1    
    86   43   44 2    
    87   43   45 1    
    88   45   46 1    
    89   45   47 1    
    90   45  122 1    
    91   46  123 1    
    92   46  124 1    
    93   46  125 1    
    94   47   48 am   BACKBONE|DICT|INTERRES
    95   47  126 1    
    96   48   49 2    
    97   48   50 1    
    98   50   51 1    
    99   50   52 1    
   100   50  127 1    
   101   51  128 1    
   102   51  129 1    
   103   51  130 1    
   104   52   53 am   BACKBONE|DICT|INTERRES
   105   52  131 1    
   106   53   54 2    
   107   53   55 1    
   108   55   56 1    
   109   55   59 1    
   110   55  132 1    
   111   56   57 1    
   112   56  133 1    
   113   56  134 1    
   114   57   58 1    
   115   58  135 1    
   116   58  136 1    
   117   59   60 am   BACKBONE|DICT|INTERRES
   118   59  137 1    
   119   60   61 2    
   120   60   62 1    
   121   62   63 1    
   122   62   64 1    
   123   62  138 1    
   124   63  139 1    
   125   63  140 1    
   126   63  141 1    
   127   64   65 am   BACKBONE|DICT|INTERRES
   128   64  142 1    
   129   65   66 2    
   130   65   67 1    
   131   67   68 1    
   132   67   69 1    
   133   67  143 1    
   134   68  144 1    
   135   68  145 1    
   136   68  146 1    
   137   69   70 am   BACKBONE|DICT|INTERRES
   138   69  147 1    
   139   70   71 2    
   140   70   72 1    
   141   72   73 1    
   142   72   74 1    
   143   72  148 1    
   144   73  149 1    
   145   73  150 1    
   146   73  151 1    
   147   74   75 am   BACKBONE|DICT|INTERRES
   148   74  152 1    
   149   75   76 2    
   150   75   77 1    
   151   77   78 1    
   152   77   79 1    
   153   77  153 1    
   154   78  154 1    
   155   78  155 1    
   156   78  156 1    
   157   79   80 am   BACKBONE|DICT|INTERRES
   158   79  157 1    
   159   80   81 2    
@<TRIPOS>SUBSTRUCTURE
     1 UNK         1 GROUP             0       ****    0 ROOT    
