@<TRIPOS>MOLECULE
3R207
157   159    1
SMALL
USER_CHARGES


@<TRIPOS>ATOM
      1 CA        -45.7445  -31.4682    5.8535 C.3       0 UNK        -0.1975 
      2 C         -46.7671  -30.3542    6.0171 C.2       0 UNK         0.4852 
      3 O         -46.8301  -29.7345    7.0776 O.2       0 UNK        -0.5216 
      4 N         -47.5549  -30.0792    4.9686 N.am      1 UNK        -0.4461 
      5 CA        -48.6336  -29.0802    4.8811 C.3       1 UNK         0.0864 
      6 C6        -49.7630  -29.2946    5.9287 C.3       14 UNK        -0.0898 
      7 S7        -51.4065  -28.9787    5.2096 S.3       14 UNK        -0.2598 
      8 C8        -52.5056  -29.7347    6.4537 C.3       14 UNK         0.0286 
      9 C9        -52.6993  -28.8762    7.7003 C.ar      14 UNK        -0.0844 
     10 C10       -52.9608  -27.5056    7.5917 C.ar      14 UNK        -0.0881 
     11 C11       -53.1970  -26.7275    8.7281 C.ar      14 UNK        -0.0643 
     12 C12       -53.1936  -27.3391    9.9857 C.ar      14 UNK        -0.0930 
     13 C13       -52.9368  -28.7062   10.1112 C.ar      14 UNK        -0.0827 
     14 C14       -52.6823  -29.4688    8.9672 C.ar      14 UNK        -0.1249 
     15 C15       -52.9515  -29.3550   11.4847 C.3       14 UNK         0.0141 
     16 S16       -54.5860  -30.0580   11.8537 S.3       14 UNK        -0.2313 
     17 C17       -54.3582  -30.5487   13.5947 C.3       14 UNK        -0.0915 
     18 CA        -55.6974  -30.5659   14.3764 C.3       13 UNK         0.0968 
     19 C         -55.5137  -31.1974   15.7848 C.2       13 UNK         0.5732 
     20 N         -55.4174  -32.5183   15.8591 N.am      13 UNK        -0.7310 
     21 O         -55.4321  -30.5120   16.8029 O.2       13 UNK        -0.5035 
     22 N         -56.3187  -29.2334   14.4286 N.am      13 UNK        -0.4233 
     23 C         -57.5991  -29.0118   14.7617 C.2       13 UNK         0.4989 
     24 O         -58.4088  -29.9151   14.9791 O.2       13 UNK        -0.4996 
     25 CA        -58.0824  -27.5521   14.8855 C.3       12 UNK         0.0216 
     26 CB        -58.2692  -27.1750   16.3649 C.3       12 UNK        -0.1964 
     27 N         -57.1889  -26.5768   14.2607 N.am      12 UNK        -0.4276 
     28 C         -57.0253  -26.4073   12.9423 C.2       12 UNK         0.5020 
     29 O         -57.7057  -26.9819   12.0918 O.2       12 UNK        -0.5489 
     30 CA        -55.9072  -25.4446   12.4915 C.3       11 UNK         0.0294 
     31 CB        -56.5027  -24.1471   11.9214 C.3       11 UNK        -0.2019 
     32 N         -54.9214  -25.1046   13.5296 N.am      11 UNK        -0.4493 
     33 C         -54.1065  -25.9769   14.1387 C.2       11 UNK         0.4932 
     34 O         -54.1511  -27.1908   13.9406 O.2       11 UNK        -0.5029 
     35 CA        -53.1285  -25.3856   15.1667 C.3       10 UNK         0.0280 
     36 CB        -53.7618  -25.2970   16.5700 C.3       10 UNK        -0.1976 
     37 N         -51.8466  -26.0995   15.1618 N.am      10 UNK        -0.4242 
     38 C         -51.5395  -27.3041   15.6667 C.2       10 UNK         0.5072 
     39 O         -52.2744  -27.9693   16.3977 O.2       10 UNK        -0.5224 
     40 CA        -50.1666  -27.8853   15.2852 C.3       9 UNK         0.0343 
     41 CB        -50.3021  -28.8218   14.0741 C.3       9 UNK        -0.2003 
     42 N         -49.1496  -26.8705   14.9940 N.am      9 UNK        -0.4272 
     43 C         -48.4989  -26.1659   15.9301 C.2       9 UNK         0.4988 
     44 O         -48.7170  -26.2663   17.1383 O.2       9 UNK        -0.5108 
     45 CA        -47.4014  -25.2039   15.4430 C.3       8 UNK         0.0248 
     46 CB        -46.1460  -25.9814   15.0141 C.3       8 UNK        -0.2001 
     47 N         -47.8427  -24.3364   14.3497 N.am      8 UNK        -0.4140 
     48 C         -48.7382  -23.3477   14.4823 C.2       8 UNK         0.5028 
     49 O         -49.2587  -23.0315   15.5529 O.2       8 UNK        -0.5428 
     50 CA        -49.1355  -22.5860   13.2047 C.3       7 UNK         0.0264 
     51 CB        -48.1170  -21.4788   12.8905 C.3       7 UNK        -0.1988 
     52 N         -49.3020  -23.4511   12.0331 N.am      7 UNK        -0.4454 
     53 C         -50.1980  -24.4460   11.9487 C.2       7 UNK         0.5027 
     54 O         -50.9801  -24.7333   12.8530 O.2       7 UNK        -0.5083 
     55 CA        -50.1903  -25.3017   10.6639 C.3       6 UNK         0.0844 
     56 C56       -50.8651  -24.5769    9.4702 C.3       14 UNK        -0.0967 
     57 S57       -52.6256  -24.1792    9.7735 S.3       14 UNK        -0.2604 
     58 C58       -53.4922  -25.2394    8.5709 C.3       14 UNK         0.0134 
     59 N         -48.8385  -25.7652   10.3387 N.am      6 UNK        -0.4116 
     60 C         -48.0569  -26.4909   11.1542 C.2       5 UNK         0.5034 
     61 O         -48.4150  -26.9319   12.2451 O.2       5 UNK        -0.5045 
     62 CA        -46.6010  -26.6981   10.7160 C.3       5 UNK         0.0224 
     63 CB        -46.4857  -27.8417    9.6986 C.3       5 UNK        -0.1978 
     64 N         -46.0197  -25.4694   10.1711 N.am      5 UNK        -0.4737 
     65 C         -45.7564  -24.3766   10.9026 C.2       4 UNK         0.5027 
     66 O         -45.9221  -24.3135   12.1199 O.2       4 UNK        -0.5211 
     67 CA        -45.2672  -23.1338   10.1408 C.3       4 UNK         0.0297 
     68 CB        -43.7481  -23.1998    9.9190 C.3       4 UNK        -0.1993 
     69 N         -45.9465  -22.9598    8.8544 N.am      4 UNK        -0.4486 
     70 C         -47.2525  -22.6870    8.7174 C.2       3 UNK         0.4961 
     71 O         -48.0147  -22.4950    9.6637 O.2       3 UNK        -0.5105 
     72 CA        -47.8121  -22.6837    7.2839 C.3       3 UNK         0.0299 
     73 CB        -47.6199  -21.3062    6.6308 C.3       3 UNK        -0.1972 
     74 N         -47.2149  -23.7234    6.4379 N.am      3 UNK        -0.4305 
     75 C         -47.3369  -25.0392    6.6605 C.2       2 UNK         0.5006 
     76 O         -47.9935  -25.5168    7.5888 O.2       2 UNK        -0.5106 
     77 CA        -46.5159  -25.9604    5.7469 C.3       2 UNK         0.0296 
     78 CB        -45.0851  -26.1119    6.2909 C.3       2 UNK        -0.2002 
     79 N         -47.1186  -27.2878    5.6430 N.am      2 UNK        -0.4032 
     80 C         -48.1423  -27.6130    4.8457 C.2       1 UNK         0.5000 
     81 O         -48.6719  -26.8169    4.0672 O.2       1 UNK        -0.5238 
     82 H82       -45.7940  -31.9270    4.8662 H         1 UNK         0.0889 
     83 H83       -45.9164  -32.2452    6.5978 H         1 UNK         0.0889 
     84 H84       -44.7379  -31.0763    5.9963 H         1 UNK         0.0889 
     85 H85       -47.4154  -30.6096    4.1192 H         1 UNK         0.3028 
     86 H86       -49.0541  -29.2656    3.8910 H         1 UNK         0.0864 
     87 H87       -49.7581  -30.3275    6.2804 H         1 UNK         0.0720 
     88 H88       -49.6225  -28.6770    6.8188 H         1 UNK         0.0720 
     89 H89       -52.1265  -30.7239    6.7145 H         1 UNK         0.0814 
     90 H90       -53.4832  -29.8944    5.9972 H         1 UNK         0.0814 
     91 H91       -52.9912  -27.0444    6.6140 H         1 UNK         0.1469 
     92 H92       -53.3871  -26.7507   10.8715 H         1 UNK         0.1381 
     93 H93       -52.4981  -30.5301    9.0650 H         1 UNK         0.1206 
     94 H94       -52.1926  -30.1364   11.5444 H         1 UNK         0.0813 
     95 H95       -52.6998  -28.6149   12.2442 H         1 UNK         0.0813 
     96 H96       -53.8922  -31.5356   13.5969 H         1 UNK         0.0638 
     97 H97       -53.6502  -29.8730   14.0784 H         1 UNK         0.0638 
     98 H98       -56.3863  -31.2152   13.8321 H         1 UNK         0.0568 
     99 H99       -55.2884  -32.9488   16.7613 H         1 UNK         0.3450 
    100 H100      -55.4769  -33.0938   15.0335 H         1 UNK         0.3450 
    101 H101      -55.6923  -28.4510   14.2697 H         1 UNK         0.2987 
    102 H102      -59.0538  -27.4890   14.3904 H         1 UNK         0.0766 
    103 H103      -58.6763  -26.1692   16.4716 H         1 UNK         0.0798 
    104 H104      -57.3278  -27.2188   16.9145 H         1 UNK         0.0798 
    105 H105      -58.9644  -27.8568   16.8570 H         1 UNK         0.0798 
    106 H106      -56.5818  -26.0562   14.8761 H         1 UNK         0.3198 
    107 H107      -55.3729  -25.9505   11.6861 H         1 UNK         0.0843 
    108 H108      -57.0275  -23.5730   12.6859 H         1 UNK         0.0831 
    109 H109      -57.2184  -24.3618   11.1265 H         1 UNK         0.0831 
    110 H110      -55.7286  -23.5112   11.4908 H         1 UNK         0.0831 
    111 H111      -54.8319  -24.1241   13.7565 H         1 UNK         0.3133 
    112 H112      -52.8869  -24.3701   14.8491 H         1 UNK         0.0566 
    113 H113      -53.0423  -24.9439   17.3087 H         1 UNK         0.0814 
    114 H114      -54.5998  -24.5993   16.5743 H         1 UNK         0.0814 
    115 H115      -54.1465  -26.2599   16.9077 H         1 UNK         0.0814 
    116 H116      -51.1768  -25.6929   14.5139 H         1 UNK         0.3091 
    117 H117      -49.8207  -28.4829   16.1315 H         1 UNK         0.0702 
    118 H118      -49.3630  -29.3331   13.8621 H         1 UNK         0.0785 
    119 H119      -51.0584  -29.5878   14.2502 H         1 UNK         0.0785 
    120 H120      -50.5903  -28.2720   13.1780 H         1 UNK         0.0785 
    121 H121      -48.8905  -26.7553   14.0154 H         1 UNK         0.2998 
    122 H122      -47.1257  -24.5643   16.2842 H         1 UNK         0.0697 
    123 H123      -46.3384  -26.6169   14.1492 H         1 UNK         0.0825 
    124 H124      -45.7896  -26.6244   15.8200 H         1 UNK         0.0825 
    125 H125      -45.3315  -25.3049   14.7546 H         1 UNK         0.0825 
    126 H126      -47.4057  -24.4809   13.4439 H         1 UNK         0.3029 
    127 H127      -50.1012  -22.1131   13.3959 H         1 UNK         0.0897 
    128 H128      -47.1318  -21.8883   12.6666 H         1 UNK         0.0792 
    129 H129      -48.0041  -20.8003   13.7372 H         1 UNK         0.0792 
    130 H130      -48.4323  -20.8808   12.0351 H         1 UNK         0.0792 
    131 H131      -48.7224  -23.2406   11.2227 H         1 UNK         0.3086 
    132 H132      -50.7708  -26.2009   10.8774 H         1 UNK         0.0583 
    133 H133      -50.3443  -23.6478    9.2379 H         1 UNK         0.1020 
    134 H134      -50.7841  -25.1917    8.5720 H         1 UNK         0.1020 
    135 H135      -54.5661  -25.0851    8.6823 H         1 UNK         0.0694 
    136 H136      -53.2331  -24.8988    7.5672 H         1 UNK         0.0694 
    137 H137      -48.4701  -25.4991    9.4293 H         1 UNK         0.2989 
    138 H138      -46.0268  -26.9771   11.6025 H         1 UNK         0.1055 
    139 H139      -46.8734  -28.7726   10.1146 H         1 UNK         0.0806 
    140 H140      -45.4490  -28.0237    9.4156 H         1 UNK         0.0806 
    141 H141      -47.0518  -27.6387    8.7901 H         1 UNK         0.0806 
    142 H142      -45.9001  -25.4224    9.1709 H         1 UNK         0.3061 
    143 H143      -45.4849  -22.2593   10.7577 H         1 UNK         0.0734 
    144 H144      -43.3750  -22.2890    9.4504 H         1 UNK         0.0832 
    145 H145      -43.2219  -23.3118   10.8682 H         1 UNK         0.0832 
    146 H146      -43.4645  -24.0437    9.2888 H         1 UNK         0.0832 
    147 H147      -45.3924  -23.0869    8.0206 H         1 UNK         0.3156 
    148 H148      -48.8840  -22.8823    7.3467 H         1 UNK         0.0589 
    149 H149      -46.5652  -21.0550    6.5123 H         1 UNK         0.0808 
    150 H150      -48.0884  -21.2644    5.6472 H         1 UNK         0.0808 
    151 H151      -48.0752  -20.5217    7.2372 H         1 UNK         0.0808 
    152 H152      -46.6561  -23.4095    5.6567 H         1 UNK         0.3098 
    153 H153      -46.4673  -25.5159    4.7504 H         1 UNK         0.0720 
    154 H154      -44.4781  -26.7333    5.6319 H         1 UNK         0.0791 
    155 H155      -45.0729  -26.5697    7.2804 H         1 UNK         0.0791 
    156 H156      -44.5853  -25.1456    6.3692 H         1 UNK         0.0791 
    157 H157      -46.8007  -28.0007    6.2941 H         1 UNK         0.3028 
@<TRIPOS>BOND
     1    1    2 1    
     2    1   82 1    
     3    1   83 1    
     4    1   84 1    
     5    2    3 2    
     6    2    4 am   BACKBONE|DICT|INTERRES
     7    4    5 1    
     8    4   85 1    
     9    5    6 1    
    10    5   80 1    
    11    5   86 1    
    12    6    7 1    
    13    6   87 1    
    14    6   88 1    
    15    7    8 1    
    16    8    9 1    
    17    8   89 1    
    18    8   90 1    
    19    9   10 ar   
    20    9   14 ar   
    21   10   11 ar   
    22   10   91 1    
    23   11   12 ar   
    24   11   58 1    
    25   12   13 ar   
    26   12   92 1    
    27   13   14 ar   
    28   13   15 1    
    29   14   93 1    
    30   15   16 1    
    31   15   94 1    
    32   15   95 1    
    33   16   17 1    
    34   17   18 1    
    35   17   96 1    
    36   17   97 1    
    37   18   19 1    
    38   18   22 1    
    39   18   98 1    
    40   19   20 am   BACKBONE|DICT|INTERRES
    41   19   21 2    
    42   20   99 1    
    43   20  100 1    
    44   22   23 am   BACKBONE|DICT|INTERRES
    45   22  101 1    
    46   23   24 2    
    47   23   25 1    
    48   25   26 1    
    49   25   27 1    
    50   25  102 1    
    51   26  103 1    
    52   26  104 1    
    53   26  105 1    
    54   27   28 am   BACKBONE|DICT|INTERRES
    55   27  106 1    
    56   28   29 2    
    57   28   30 1    
    58   30   31 1    
    59   30   32 1    
    60   30  107 1    
    61   31  108 1    
    62   31  109 1    
    63   31  110 1    
    64   32   33 am   BACKBONE|DICT|INTERRES
    65   32  111 1    
    66   33   34 2    
    67   33   35 1    
    68   35   36 1    
    69   35   37 1    
    70   35  112 1    
    71   36  113 1    
    72   36  114 1    
    73   36  115 1    
    74   37   38 am   BACKBONE|DICT|INTERRES
    75   37  116 1    
    76   38   39 2    
    77   38   40 1    
    78   40   41 1    
    79   40   42 1    
    80   40  117 1    
    81   41  118 1    
    82   41  119 1    
    83   41  120 1    
    84   42   43 am   BACKBONE|DICT|INTERRES
    85   42  121 1    
    86   43   44 2    
    87   43   45 1    
    88   45   46 1    
    89   45   47 1    
    90   45  122 1    
    91   46  123 1    
    92   46  124 1    
    93   46  125 1    
    94   47   48 am   BACKBONE|DICT|INTERRES
    95   47  126 1    
    96   48   49 2    
    97   48   50 1    
    98   50   51 1    
    99   50   52 1    
   100   50  127 1    
   101   51  128 1    
   102   51  129 1    
   103   51  130 1    
   104   52   53 am   BACKBONE|DICT|INTERRES
   105   52  131 1    
   106   53   54 2    
   107   53   55 1    
   108   55   56 1    
   109   55   59 1    
   110   55  132 1    
   111   56   57 1    
   112   56  133 1    
   113   56  134 1    
   114   57   58 1    
   115   58  135 1    
   116   58  136 1    
   117   59   60 am   BACKBONE|DICT|INTERRES
   118   59  137 1    
   119   60   61 2    
   120   60   62 1    
   121   62   63 1    
   122   62   64 1    
   123   62  138 1    
   124   63  139 1    
   125   63  140 1    
   126   63  141 1    
   127   64   65 am   BACKBONE|DICT|INTERRES
   128   64  142 1    
   129   65   66 2    
   130   65   67 1    
   131   67   68 1    
   132   67   69 1    
   133   67  143 1    
   134   68  144 1    
   135   68  145 1    
   136   68  146 1    
   137   69   70 am   BACKBONE|DICT|INTERRES
   138   69  147 1    
   139   70   71 2    
   140   70   72 1    
   141   72   73 1    
   142   72   74 1    
   143   72  148 1    
   144   73  149 1    
   145   73  150 1    
   146   73  151 1    
   147   74   75 am   BACKBONE|DICT|INTERRES
   148   74  152 1    
   149   75   76 2    
   150   75   77 1    
   151   77   78 1    
   152   77   79 1    
   153   77  153 1    
   154   78  154 1    
   155   78  155 1    
   156   78  156 1    
   157   79   80 am   BACKBONE|DICT|INTERRES
   158   79  157 1    
   159   80   81 2    
@<TRIPOS>SUBSTRUCTURE
     1 UNK         1 GROUP             0       ****    0 ROOT    
