@<TRIPOS>MOLECULE
3R207
157   159    1
SMALL
USER_CHARGES


@<TRIPOS>ATOM
      1 CA        -46.3630  -26.3163    9.8824 C.3       0 UNK        -0.1975 
      2 C         -47.0438  -27.2889    8.9317 C.2       0 UNK         0.4852 
      3 O         -46.4412  -28.2929    8.5484 O.2       0 UNK        -0.5216 
      4 N         -48.2929  -26.9962    8.5455 N.am      1 UNK        -0.4461 
      5 CA        -49.1271  -27.8140    7.6606 C.3       1 UNK         0.0864 
      6 C6        -50.6136  -27.3635    7.6543 C.3       14 UNK        -0.0898 
      7 S7        -50.9173  -25.6251    7.1757 S.3       14 UNK        -0.2598 
      8 C8        -52.6858  -25.4448    7.5650 C.3       14 UNK         0.0286 
      9 C9        -52.9036  -24.8911    8.9656 C.ar      14 UNK        -0.0844 
     10 C10       -53.0227  -23.5114    9.1630 C.ar      14 UNK        -0.0881 
     11 C11       -53.2260  -22.9921   10.4456 C.ar      14 UNK        -0.0643 
     12 C12       -53.3395  -23.8663   11.5306 C.ar      14 UNK        -0.0930 
     13 C13       -53.2291  -25.2464   11.3443 C.ar      14 UNK        -0.0827 
     14 C14       -53.0000  -25.7530   10.0617 C.ar      14 UNK        -0.1249 
     15 C15       -53.3311  -26.1823   12.5375 C.3       14 UNK         0.0141 
     16 S16       -55.0477  -26.6728   12.8974 S.3       14 UNK        -0.2313 
     17 C17       -55.4439  -27.8695   11.5778 C.3       14 UNK        -0.0915 
     18 CA        -55.0514  -29.3402   11.8832 C.3       13 UNK         0.0968 
     19 C         -53.5360  -29.6071   11.6557 C.2       13 UNK         0.5732 
     20 N         -52.7383  -29.8079   12.6985 N.am      13 UNK        -0.7310 
     21 O         -53.0820  -29.6395   10.5148 O.2       13 UNK        -0.5035 
     22 N         -55.5532  -29.8106   13.1859 N.am      13 UNK        -0.4233 
     23 C         -55.7419  -31.1059   13.4741 C.2       13 UNK         0.4989 
     24 O         -55.6639  -32.0013   12.6308 O.2       13 UNK        -0.4996 
     25 CA        -56.0585  -31.5019   14.9255 C.3       12 UNK         0.0216 
     26 CB        -54.9996  -32.4845   15.4579 C.3       12 UNK        -0.1964 
     27 N         -56.1347  -30.3638   15.8469 N.am      12 UNK        -0.4276 
     28 C         -57.2027  -30.0750   16.6056 C.2       12 UNK         0.5020 
     29 O         -58.2861  -30.6535   16.5062 O.2       12 UNK        -0.5489 
     30 CA        -57.0487  -28.9949   17.6935 C.3       11 UNK         0.0294 
     31 CB        -56.9955  -29.6460   19.0861 C.3       11 UNK        -0.2019 
     32 N         -55.8610  -28.1583   17.5222 N.am      11 UNK        -0.4493 
     33 C         -55.7808  -27.1237   16.6772 C.2       11 UNK         0.4932 
     34 O         -56.7235  -26.7306   15.9908 O.2       11 UNK        -0.5029 
     35 CA        -54.4214  -26.4090   16.5776 C.3       10 UNK         0.0280 
     36 CB        -54.4033  -25.1675   17.4830 C.3       10 UNK        -0.1976 
     37 N         -53.2557  -27.2428   16.8891 N.am      10 UNK        -0.4242 
     38 C         -52.8920  -28.3847   16.2896 C.2       10 UNK         0.5072 
     39 O         -53.5673  -28.9596   15.4308 O.2       10 UNK        -0.5224 
     40 CA        -51.5397  -28.9748   16.7399 C.3       9 UNK         0.0343 
     41 CB        -51.2093  -30.3093   16.0475 C.3       9 UNK        -0.2003 
     42 N         -50.4331  -28.0398   16.5155 N.am      9 UNK        -0.4272 
     43 C         -50.1502  -26.9657   17.2672 C.2       9 UNK         0.4988 
     44 O         -50.7914  -26.6548   18.2724 O.2       9 UNK        -0.5108 
     45 CA        -48.9731  -26.0784   16.8233 C.3       8 UNK         0.0248 
     46 CB        -47.7056  -26.4358   17.6166 C.3       8 UNK        -0.2001 
     47 N         -48.6840  -26.1534   15.3869 N.am      8 UNK        -0.4140 
     48 C         -49.4770  -25.6630   14.4245 C.2       8 UNK         0.5028 
     49 O         -50.5523  -25.0984   14.6384 O.2       8 UNK        -0.5428 
     50 CA        -48.9969  -25.8836   12.9811 C.3       7 UNK         0.0264 
     51 CB        -49.3923  -27.2849   12.4839 C.3       7 UNK        -0.1988 
     52 N         -49.5489  -24.8812   12.0697 N.am      7 UNK        -0.4454 
     53 C         -49.1092  -23.6199   11.9734 C.2       7 UNK         0.5027 
     54 O         -48.1692  -23.1622   12.6279 O.2       7 UNK        -0.5083 
     55 CA        -49.8270  -22.7237   10.9467 C.3       6 UNK         0.0844 
     56 C56       -50.6226  -21.5875   11.6347 C.3       14 UNK        -0.0967 
     57 S57       -51.6687  -20.6842   10.4399 S.3       14 UNK        -0.2604 
     58 C58       -53.2923  -21.4866   10.6659 C.3       14 UNK         0.0134 
     59 N         -48.8797  -22.2249    9.9451 N.am      6 UNK        -0.4116 
     60 C         -48.2892  -23.0104    9.0382 C.2       5 UNK         0.5034 
     61 O         -48.4900  -24.2235    8.9584 O.2       5 UNK        -0.5045 
     62 CA        -47.3041  -22.3543    8.0652 C.3       5 UNK         0.0224 
     63 CB        -45.9300  -22.1352    8.7236 C.3       5 UNK        -0.1978 
     64 N         -47.1660  -23.2394    6.9115 N.am      5 UNK        -0.4737 
     65 C         -46.8548  -22.8707    5.6666 C.2       4 UNK         0.5027 
     66 O         -46.5580  -21.7174    5.3492 O.2       4 UNK        -0.5211 
     67 CA        -46.9071  -23.9869    4.6065 C.3       4 UNK         0.0297 
     68 CB        -46.4467  -23.5242    3.2070 C.3       4 UNK        -0.1993 
     69 N         -46.2015  -25.2055    5.0248 N.am      4 UNK        -0.4486 
     70 C         -44.8834  -25.3537    5.2431 C.2       3 UNK         0.4961 
     71 O         -44.0682  -24.4369    5.1368 O.2       3 UNK        -0.5105 
     72 CA        -44.3605  -26.7529    5.6411 C.3       3 UNK         0.0299 
     73 CB        -43.6646  -26.7129    7.0116 C.3       3 UNK        -0.1972 
     74 N         -45.3916  -27.7956    5.6543 N.am      3 UNK        -0.4305 
     75 C         -45.8938  -28.3868    4.5585 C.2       2 UNK         0.5006 
     76 O         -45.4663  -28.1877    3.4210 O.2       2 UNK        -0.5106 
     77 CA        -47.0990  -29.3321    4.7467 C.3       2 UNK         0.0296 
     78 CB        -46.6359  -30.7980    4.7475 C.3       2 UNK        -0.2002 
     79 N         -47.8870  -29.0744    5.9584 N.am      2 UNK        -0.4032 
     80 C         -48.4969  -27.9165    6.2542 C.2       1 UNK         0.5000 
     81 O         -48.4885  -26.9393    5.5026 O.2       1 UNK        -0.5238 
     82 H82       -47.0777  -25.8917   10.5860 H         1 UNK         0.0889 
     83 H83       -45.9082  -25.4983    9.3262 H         1 UNK         0.0889 
     84 H84       -45.5848  -26.8196   10.4555 H         1 UNK         0.0889 
     85 H85       -48.6745  -26.0841    8.7900 H         1 UNK         0.3028 
     86 H86       -49.1235  -28.8195    8.0874 H         1 UNK         0.0864 
     87 H87       -51.1980  -28.0088    6.9961 H         1 UNK         0.0720 
     88 H88       -51.0261  -27.5123    8.6529 H         1 UNK         0.0720 
     89 H89       -53.1964  -26.4021    7.4497 H         1 UNK         0.0814 
     90 H90       -53.1360  -24.7752    6.8307 H         1 UNK         0.0814 
     91 H91       -52.9328  -22.8369    8.3223 H         1 UNK         0.1469 
     92 H92       -53.5013  -23.4736   12.5253 H         1 UNK         0.1381 
     93 H93       -52.9049  -26.8200    9.9149 H         1 UNK         0.1206 
     94 H94       -52.7131  -27.0624   12.3818 H         1 UNK         0.0813 
     95 H95       -52.9226  -25.6914   13.4219 H         1 UNK         0.0813 
     96 H96       -56.5245  -27.8232   11.4364 H         1 UNK         0.0638 
     97 H97       -55.0240  -27.5362   10.6291 H         1 UNK         0.0638 
     98 H98       -55.5528  -29.9367   11.1184 H         1 UNK         0.0568 
     99 H99       -51.7644  -30.0035   12.5397 H         1 UNK         0.3450 
    100 H100      -53.0957  -29.7043   13.6417 H         1 UNK         0.3450 
    101 H101      -55.5973  -29.1195   13.9206 H         1 UNK         0.2987 
    102 H102      -57.0138  -32.0291   14.8894 H         1 UNK         0.0766 
    103 H103      -54.9498  -33.3838   14.8423 H         1 UNK         0.0798 
    104 H104      -55.2293  -32.8038   16.4746 H         1 UNK         0.0798 
    105 H105      -54.0057  -32.0374   15.4618 H         1 UNK         0.0798 
    106 H106      -55.2855  -29.8155   15.9517 H         1 UNK         0.3198 
    107 H107      -57.9371  -28.3606   17.6500 H         1 UNK         0.0843 
    108 H108      -56.1309  -30.3023   19.1938 H         1 UNK         0.0831 
    109 H109      -57.8858  -30.2494   19.2693 H         1 UNK         0.0831 
    110 H110      -56.9495  -28.8949   19.8750 H         1 UNK         0.0831 
    111 H111      -55.0425  -28.4023   18.0609 H         1 UNK         0.3133 
    112 H112      -54.3021  -26.0685   15.5503 H         1 UNK         0.0566 
    113 H113      -53.4888  -24.5898   17.3453 H         1 UNK         0.0814 
    114 H114      -54.4763  -25.4357   18.5377 H         1 UNK         0.0814 
    115 H115      -55.2397  -24.5050   17.2553 H         1 UNK         0.0814 
    116 H116      -52.5982  -26.8636   17.5650 H         1 UNK         0.3091 
    117 H117      -51.6181  -29.1716   17.8112 H         1 UNK         0.0702 
    118 H118      -50.2843  -30.7364   16.4350 H         1 UNK         0.0785 
    119 H119      -51.0959  -30.1912   14.9701 H         1 UNK         0.0785 
    120 H120      -51.9958  -31.0442   16.2187 H         1 UNK         0.0785 
    121 H121      -49.8699  -28.2021   15.6945 H         1 UNK         0.2998 
    122 H122      -49.2407  -25.0457   17.0575 H         1 UNK         0.0697 
    123 H123      -47.3738  -27.4549   17.4136 H         1 UNK         0.0825 
    124 H124      -47.8834  -26.3598   18.6904 H         1 UNK         0.0825 
    125 H125      -46.8838  -25.7600   17.3791 H         1 UNK         0.0825 
    126 H126      -47.8190  -26.6048   15.1243 H         1 UNK         0.3029 
    127 H127      -47.9077  -25.8015   12.9619 H         1 UNK         0.0897 
    128 H128      -50.4677  -27.4477   12.5411 H         1 UNK         0.0792 
    129 H129      -48.9155  -28.0628   13.0814 H         1 UNK         0.0792 
    130 H130      -49.0864  -27.4434   11.4497 H         1 UNK         0.0792 
    131 H131      -50.3492  -25.1588   11.5196 H         1 UNK         0.3086 
    132 H132      -50.5390  -23.3543   10.4133 H         1 UNK         0.0583 
    133 H133      -51.2524  -21.9810   12.4350 H         1 UNK         0.1020 
    134 H134      -49.9434  -20.8783   12.1115 H         1 UNK         0.1020 
    135 H135      -53.6677  -21.2564   11.6643 H         1 UNK         0.0694 
    136 H136      -54.0039  -21.0504    9.9636 H         1 UNK         0.0694 
    137 H137      -48.6629  -21.2401    9.9784 H         1 UNK         0.2989 
    138 H138      -47.7211  -21.3975    7.7426 H         1 UNK         0.1055 
    139 H139      -45.2297  -21.6673    8.0314 H         1 UNK         0.0806 
    140 H140      -45.4890  -23.0743    9.0588 H         1 UNK         0.0806 
    141 H141      -46.0095  -21.4821    9.5934 H         1 UNK         0.0806 
    142 H142      -47.4671  -24.1907    7.0882 H         1 UNK         0.3061 
    143 H143      -47.9583  -24.2678    4.5216 H         1 UNK         0.0734 
    144 H144      -45.4151  -23.1713    3.2124 H         1 UNK         0.0832 
    145 H145      -46.5225  -24.3307    2.4778 H         1 UNK         0.0832 
    146 H146      -47.0665  -22.7024    2.8464 H         1 UNK         0.0832 
    147 H147      -46.8090  -26.0085    5.1671 H         1 UNK         0.3156 
    148 H148      -43.6081  -27.0301    4.8998 H         1 UNK         0.0589 
    149 H149      -43.2718  -27.6914    7.2885 H         1 UNK         0.0808 
    150 H150      -42.8231  -26.0187    7.0028 H         1 UNK         0.0808 
    151 H151      -44.3420  -26.3880    7.7988 H         1 UNK         0.0808 
    152 H152      -45.7858  -28.0345    6.5588 H         1 UNK         0.3098 
    153 H153      -47.7606  -29.1823    3.8910 H         1 UNK         0.0720 
    154 H154      -46.0706  -31.0297    3.8435 H         1 UNK         0.0791 
    155 H155      -47.4833  -31.4831    4.7807 H         1 UNK         0.0791 
    156 H156      -45.9912  -31.0169    5.5998 H         1 UNK         0.0791 
    157 H157      -47.8870  -29.8070    6.6541 H         1 UNK         0.3028 
@<TRIPOS>BOND
     1    1    2 1    
     2    1   82 1    
     3    1   83 1    
     4    1   84 1    
     5    2    3 2    
     6    2    4 am   BACKBONE|DICT|INTERRES
     7    4    5 1    
     8    4   85 1    
     9    5    6 1    
    10    5   80 1    
    11    5   86 1    
    12    6    7 1    
    13    6   87 1    
    14    6   88 1    
    15    7    8 1    
    16    8    9 1    
    17    8   89 1    
    18    8   90 1    
    19    9   10 ar   
    20    9   14 ar   
    21   10   11 ar   
    22   10   91 1    
    23   11   12 ar   
    24   11   58 1    
    25   12   13 ar   
    26   12   92 1    
    27   13   14 ar   
    28   13   15 1    
    29   14   93 1    
    30   15   16 1    
    31   15   94 1    
    32   15   95 1    
    33   16   17 1    
    34   17   18 1    
    35   17   96 1    
    36   17   97 1    
    37   18   19 1    
    38   18   22 1    
    39   18   98 1    
    40   19   20 am   BACKBONE|DICT|INTERRES
    41   19   21 2    
    42   20   99 1    
    43   20  100 1    
    44   22   23 am   BACKBONE|DICT|INTERRES
    45   22  101 1    
    46   23   24 2    
    47   23   25 1    
    48   25   26 1    
    49   25   27 1    
    50   25  102 1    
    51   26  103 1    
    52   26  104 1    
    53   26  105 1    
    54   27   28 am   BACKBONE|DICT|INTERRES
    55   27  106 1    
    56   28   29 2    
    57   28   30 1    
    58   30   31 1    
    59   30   32 1    
    60   30  107 1    
    61   31  108 1    
    62   31  109 1    
    63   31  110 1    
    64   32   33 am   BACKBONE|DICT|INTERRES
    65   32  111 1    
    66   33   34 2    
    67   33   35 1    
    68   35   36 1    
    69   35   37 1    
    70   35  112 1    
    71   36  113 1    
    72   36  114 1    
    73   36  115 1    
    74   37   38 am   BACKBONE|DICT|INTERRES
    75   37  116 1    
    76   38   39 2    
    77   38   40 1    
    78   40   41 1    
    79   40   42 1    
    80   40  117 1    
    81   41  118 1    
    82   41  119 1    
    83   41  120 1    
    84   42   43 am   BACKBONE|DICT|INTERRES
    85   42  121 1    
    86   43   44 2    
    87   43   45 1    
    88   45   46 1    
    89   45   47 1    
    90   45  122 1    
    91   46  123 1    
    92   46  124 1    
    93   46  125 1    
    94   47   48 am   BACKBONE|DICT|INTERRES
    95   47  126 1    
    96   48   49 2    
    97   48   50 1    
    98   50   51 1    
    99   50   52 1    
   100   50  127 1    
   101   51  128 1    
   102   51  129 1    
   103   51  130 1    
   104   52   53 am   BACKBONE|DICT|INTERRES
   105   52  131 1    
   106   53   54 2    
   107   53   55 1    
   108   55   56 1    
   109   55   59 1    
   110   55  132 1    
   111   56   57 1    
   112   56  133 1    
   113   56  134 1    
   114   57   58 1    
   115   58  135 1    
   116   58  136 1    
   117   59   60 am   BACKBONE|DICT|INTERRES
   118   59  137 1    
   119   60   61 2    
   120   60   62 1    
   121   62   63 1    
   122   62   64 1    
   123   62  138 1    
   124   63  139 1    
   125   63  140 1    
   126   63  141 1    
   127   64   65 am   BACKBONE|DICT|INTERRES
   128   64  142 1    
   129   65   66 2    
   130   65   67 1    
   131   67   68 1    
   132   67   69 1    
   133   67  143 1    
   134   68  144 1    
   135   68  145 1    
   136   68  146 1    
   137   69   70 am   BACKBONE|DICT|INTERRES
   138   69  147 1    
   139   70   71 2    
   140   70   72 1    
   141   72   73 1    
   142   72   74 1    
   143   72  148 1    
   144   73  149 1    
   145   73  150 1    
   146   73  151 1    
   147   74   75 am   BACKBONE|DICT|INTERRES
   148   74  152 1    
   149   75   76 2    
   150   75   77 1    
   151   77   78 1    
   152   77   79 1    
   153   77  153 1    
   154   78  154 1    
   155   78  155 1    
   156   78  156 1    
   157   79   80 am   BACKBONE|DICT|INTERRES
   158   79  157 1    
   159   80   81 2    
@<TRIPOS>SUBSTRUCTURE
     1 UNK         1 GROUP             0       ****    0 ROOT    
