@<TRIPOS>MOLECULE
3R207
157   159    1
SMALL
USER_CHARGES


@<TRIPOS>ATOM
      1 CA        -48.3934  -27.3825    2.1597 C.3       0 UNK        -0.1975 
      2 C         -49.0391  -27.3772    3.5370 C.2       0 UNK         0.4852 
      3 O         -48.3542  -27.6080    4.5337 O.2       0 UNK        -0.5216 
      4 N         -50.3476  -27.0917    3.6044 N.am      1 UNK        -0.4461 
      5 CA        -51.2117  -27.0625    4.7977 C.3       1 UNK         0.0864 
      6 C6        -51.2544  -28.4214    5.5501 C.3       14 UNK        -0.0898 
      7 S7        -52.8954  -28.7556    6.2670 S.3       14 UNK        -0.2598 
      8 C8        -52.6312  -30.4018    6.9940 C.3       14 UNK         0.0286 
      9 C9        -51.8545  -30.3254    8.2998 C.ar      14 UNK        -0.0844 
     10 C10       -50.5113  -30.7130    8.3559 C.ar      14 UNK        -0.0881 
     11 C11       -49.8101  -30.6666    9.5657 C.ar      14 UNK        -0.0643 
     12 C12       -50.4655  -30.2317   10.7215 C.ar      14 UNK        -0.0930 
     13 C13       -51.8067  -29.8447   10.6778 C.ar      14 UNK        -0.0827 
     14 C14       -52.4952  -29.8900    9.4635 C.ar      14 UNK        -0.1249 
     15 C15       -52.5182  -29.3936   11.9421 C.3       14 UNK         0.0141 
     16 S16       -53.3657  -30.7915   12.7397 S.3       14 UNK        -0.2313 
     17 C17       -54.2322  -29.9561   14.1095 C.3       14 UNK        -0.0915 
     18 CA        -55.7383  -29.7347   13.8137 C.3       13 UNK         0.0968 
     19 C         -56.4778  -29.2182   15.0773 C.2       13 UNK         0.5732 
     20 N         -56.9720  -30.1182   15.9162 N.am      13 UNK        -0.7310 
     21 O         -56.5721  -28.0169   15.3242 O.2       13 UNK        -0.5035 
     22 N         -55.9221  -28.8379   12.6685 N.am      13 UNK        -0.4233 
     23 C         -57.0563  -28.6484   11.9911 C.2       13 UNK         0.4989 
     24 O         -58.0959  -29.2769   12.2001 O.2       13 UNK        -0.4996 
     25 CA        -57.0078  -27.5576   10.9004 C.3       12 UNK         0.0216 
     26 CB        -58.2652  -27.5560   10.0103 C.3       12 UNK        -0.1964 
     27 N         -56.8201  -26.2143   11.4608 N.am      12 UNK        -0.4276 
     28 C         -55.6886  -25.7501   12.0053 C.2       12 UNK         0.5020 
     29 O         -54.6494  -26.4123   12.0985 O.2       12 UNK        -0.5489 
     30 CA        -55.7230  -24.3215   12.5591 C.3       11 UNK         0.0294 
     31 CB        -56.5375  -24.2581   13.8659 C.3       11 UNK        -0.2019 
     32 N         -54.3436  -23.9243   12.8108 N.am      11 UNK        -0.4493 
     33 C         -53.8777  -22.6860   13.0004 C.2       11 UNK         0.4932 
     34 O         -54.5841  -21.6779   12.9492 O.2       11 UNK        -0.5029 
     35 CA        -52.3638  -22.5581   13.2843 C.3       10 UNK         0.0280 
     36 CB        -52.0034  -21.2576   14.0322 C.3       10 UNK        -0.1976 
     37 N         -51.7871  -23.7242   13.9709 N.am      10 UNK        -0.4242 
     38 C         -52.1570  -24.2350   15.1573 C.2       10 UNK         0.5072 
     39 O         -53.0311  -23.7587   15.8817 O.2       10 UNK        -0.5224 
     40 CA        -51.4332  -25.5146   15.5980 C.3       9 UNK         0.0343 
     41 CB        -52.0959  -26.7502   14.9679 C.3       9 UNK        -0.2003 
     42 N         -50.0123  -25.4942   15.2498 N.am      9 UNK        -0.4272 
     43 C         -49.0650  -24.8771   15.9709 C.2       9 UNK         0.4988 
     44 O         -49.2990  -24.2368   16.9972 O.2       9 UNK        -0.5108 
     45 CA        -47.6161  -24.9900   15.4529 C.3       8 UNK         0.0248 
     46 CB        -46.5598  -24.8459   16.5697 C.3       8 UNK        -0.2001 
     47 N         -47.3807  -26.1927   14.6399 N.am      8 UNK        -0.4140 
     48 C         -47.4658  -27.4682   15.0499 C.2       8 UNK         0.5028 
     49 O         -47.6535  -27.7967   16.2220 O.2       8 UNK        -0.5428 
     50 CA        -47.3552  -28.5734   13.9868 C.3       7 UNK         0.0264 
     51 CB        -48.5771  -29.5096   14.0302 C.3       7 UNK        -0.1988 
     52 N         -47.1824  -28.0640   12.6190 N.am      7 UNK        -0.4454 
     53 C         -46.3566  -28.6214   11.7193 C.2       7 UNK         0.5027 
     54 O         -45.6512  -29.6035   11.9569 O.2       7 UNK        -0.5083 
     55 CA        -46.2913  -27.9748   10.3194 C.3       6 UNK         0.0844 
     56 C56       -47.4728  -28.4201    9.4211 C.3       14 UNK        -0.0967 
     57 S57       -47.2380  -30.0567    8.6536 S.3       14 UNK        -0.2604 
     58 C58       -48.3533  -31.1098    9.6380 C.3       14 UNK         0.0134 
     59 N         -46.1894  -26.5153   10.3699 N.am      6 UNK        -0.4116 
     60 C         -45.1790  -25.8092   10.8974 C.2       5 UNK         0.5034 
     61 O         -44.2108  -26.3091   11.4697 O.2       5 UNK        -0.5045 
     62 CA        -45.2623  -24.2817   10.7585 C.3       5 UNK         0.0224 
     63 CB        -44.7324  -23.8393    9.3840 C.3       5 UNK        -0.1978 
     64 N         -46.6418  -23.8153   10.9156 N.am      5 UNK        -0.4737 
     65 C         -47.1130  -23.1762   11.9928 C.2       4 UNK         0.5027 
     66 O         -46.4050  -22.8165   12.9320 O.2       4 UNK        -0.5211 
     67 CA        -48.6260  -22.8841   12.0486 C.3       4 UNK         0.0297 
     68 CB        -48.8896  -21.4163   11.6753 C.3       4 UNK        -0.1993 
     69 N         -49.4349  -23.7491   11.1838 N.am      4 UNK        -0.4486 
     70 C         -49.6196  -25.0673   11.3412 C.2       3 UNK         0.4961 
     71 O         -49.1910  -25.7131   12.3003 O.2       3 UNK        -0.5105 
     72 CA        -50.3928  -25.7937   10.2244 C.3       3 UNK         0.0299 
     73 CB        -51.8815  -25.8799   10.5808 C.3       3 UNK        -0.1972 
     74 N         -50.2505  -25.2111    8.8818 N.am      3 UNK        -0.4305 
     75 C         -49.0955  -24.9598    8.2503 C.2       2 UNK         0.5006 
     76 O         -47.9907  -25.1352    8.7648 O.2       2 UNK        -0.5106 
     77 CA        -49.1927  -24.4410    6.8076 C.3       2 UNK         0.0296 
     78 CB        -47.8438  -23.9141    6.2829 C.3       2 UNK        -0.2002 
     79 N         -49.6617  -25.5024    5.9209 N.am      2 UNK        -0.4032 
     80 C         -50.9339  -25.8840    5.7609 C.2       1 UNK         0.5000 
     81 O         -51.8745  -25.3313    6.3359 O.2       1 UNK        -0.5238 
     82 H82       -47.9593  -28.3606    1.9542 H         1 UNK         0.0889 
     83 H83       -47.5969  -26.6402    2.1162 H         1 UNK         0.0889 
     84 H84       -49.1110  -27.1575    1.3709 H         1 UNK         0.0889 
     85 H85       -50.8295  -26.8747    2.7423 H         1 UNK         0.3028 
     86 H86       -52.2052  -26.8746    4.3864 H         1 UNK         0.0864 
     87 H87       -51.0392  -29.2394    4.8607 H         1 UNK         0.0720 
     88 H88       -50.4893  -28.4778    6.3276 H         1 UNK         0.0720 
     89 H89       -52.1261  -31.0476    6.2739 H         1 UNK         0.0814 
     90 H90       -53.6026  -30.8612    7.1827 H         1 UNK         0.0814 
     91 H91       -50.0084  -31.0538    7.4610 H         1 UNK         0.1469 
     92 H92       -49.9363  -30.2068   11.6612 H         1 UNK         0.1381 
     93 H93       -53.5354  -29.5959    9.4251 H         1 UNK         0.1206 
     94 H94       -53.2403  -28.6157   11.6958 H         1 UNK         0.0813 
     95 H95       -51.8082  -28.9494   12.6407 H         1 UNK         0.0813 
     96 H96       -54.1068  -30.5816   14.9952 H         1 UNK         0.0638 
     97 H97       -53.7388  -29.0103   14.3349 H         1 UNK         0.0638 
     98 H98       -56.1773  -30.6975   13.5446 H         1 UNK         0.0568 
     99 H99       -57.4424  -29.8024   16.7498 H         1 UNK         0.3450 
    100 H100      -56.8897  -31.1058   15.7313 H         1 UNK         0.3450 
    101 H101      -55.1722  -28.1758   12.4917 H         1 UNK         0.2987 
    102 H102      -56.1516  -27.7828   10.2602 H         1 UNK         0.0766 
    103 H103      -58.1761  -26.8339    9.1984 H         1 UNK         0.0798 
    104 H104      -59.1643  -27.3142   10.5785 H         1 UNK         0.0798 
    105 H105      -58.4213  -28.5345    9.5538 H         1 UNK         0.0798 
    106 H106      -57.6330  -25.6146   11.4589 H         1 UNK         0.3198 
    107 H107      -56.1582  -23.6598   11.8074 H         1 UNK         0.0843 
    108 H108      -56.5530  -23.2495   14.2791 H         1 UNK         0.0831 
    109 H109      -56.1246  -24.9229   14.6264 H         1 UNK         0.0831 
    110 H110      -57.5744  -24.5536   13.7028 H         1 UNK         0.0831 
    111 H111      -53.7072  -24.7124   12.8153 H         1 UNK         0.3133 
    112 H112      -51.8857  -22.5185   12.3054 H         1 UNK         0.0566 
    113 H113      -50.9303  -21.1845   14.2084 H         1 UNK         0.0814 
    114 H114      -52.2964  -20.3790   13.4562 H         1 UNK         0.0814 
    115 H115      -52.5061  -21.1959   14.9979 H         1 UNK         0.0814 
    116 H116      -51.0473  -24.2015   13.4775 H         1 UNK         0.3091 
    117 H117      -51.5303  -25.5975   16.6829 H         1 UNK         0.0702 
    118 H118      -51.6452  -27.6720   15.3364 H         1 UNK         0.0785 
    119 H119      -52.0136  -26.7482   13.8816 H         1 UNK         0.0785 
    120 H120      -53.1587  -26.7872   15.2131 H         1 UNK         0.0785 
    121 H121      -49.7331  -25.9623   14.3963 H         1 UNK         0.2998 
    122 H122      -47.4885  -24.1422   14.7852 H         1 UNK         0.0697 
    123 H123      -46.6742  -25.6086   17.3403 H         1 UNK         0.0825 
    124 H124      -46.6415  -23.8759   17.0615 H         1 UNK         0.0825 
    125 H125      -45.5485  -24.9194   16.1701 H         1 UNK         0.0825 
    126 H126      -47.2373  -26.0211   13.6556 H         1 UNK         0.3029 
    127 H127      -46.4760  -29.1527   14.2774 H         1 UNK         0.0897 
    128 H128      -48.4301  -30.3741   13.3835 H         1 UNK         0.0792 
    129 H129      -48.7480  -29.8954   15.0362 H         1 UNK         0.0792 
    130 H130      -49.4872  -28.9955   13.7200 H         1 UNK         0.0792 
    131 H131      -47.7664  -27.2822   12.3424 H         1 UNK         0.3086 
    132 H132      -45.3655  -28.3170    9.8515 H         1 UNK         0.0583 
    133 H133      -48.4181  -28.3784    9.9597 H         1 UNK         0.1020 
    134 H134      -47.5862  -27.7286    8.5852 H         1 UNK         0.1020 
    135 H135      -48.2776  -32.1355    9.2747 H         1 UNK         0.0694 
    136 H136      -48.0010  -31.1261   10.6707 H         1 UNK         0.0694 
    137 H137      -46.9034  -26.0047    9.8549 H         1 UNK         0.2989 
    138 H138      -44.6185  -23.8460   11.5262 H         1 UNK         0.1055 
    139 H139      -43.7037  -24.1712    9.2366 H         1 UNK         0.0806 
    140 H140      -44.7386  -22.7533    9.2905 H         1 UNK         0.0806 
    141 H141      -45.3282  -24.2477    8.5664 H         1 UNK         0.0806 
    142 H142      -47.2896  -24.0794   10.1791 H         1 UNK         0.3061 
    143 H143      -48.9511  -23.0385   13.0791 H         1 UNK         0.0734 
    144 H144      -49.9449  -21.1601   11.7600 H         1 UNK         0.0832 
    145 H145      -48.3429  -20.7426   12.3368 H         1 UNK         0.0832 
    146 H146      -48.5723  -21.1963   10.6551 H         1 UNK         0.0832 
    147 H147      -49.8244  -23.3188   10.3574 H         1 UNK         0.3156 
    148 H148      -50.0074  -26.8114   10.1761 H         1 UNK         0.0589 
    149 H149      -52.3572  -24.8987   10.5943 H         1 UNK         0.0808 
    150 H150      -52.4244  -26.5059    9.8717 H         1 UNK         0.0808 
    151 H151      -52.0196  -26.3265   11.5648 H         1 UNK         0.0808 
    152 H152      -51.1037  -25.0842    8.3479 H         1 UNK         0.3098 
    153 H153      -49.9058  -23.6140    6.7944 H         1 UNK         0.0720 
    154 H154      -47.9438  -23.5010    5.2791 H         1 UNK         0.0791 
    155 H155      -47.0879  -24.7001    6.2469 H         1 UNK         0.0791 
    156 H156      -47.4580  -23.1196    6.9233 H         1 UNK         0.0791 
    157 H157      -48.9542  -26.0740    5.4658 H         1 UNK         0.3028 
@<TRIPOS>BOND
     1    1    2 1    
     2    1   82 1    
     3    1   83 1    
     4    1   84 1    
     5    2    3 2    
     6    2    4 am   BACKBONE|DICT|INTERRES
     7    4    5 1    
     8    4   85 1    
     9    5    6 1    
    10    5   80 1    
    11    5   86 1    
    12    6    7 1    
    13    6   87 1    
    14    6   88 1    
    15    7    8 1    
    16    8    9 1    
    17    8   89 1    
    18    8   90 1    
    19    9   10 ar   
    20    9   14 ar   
    21   10   11 ar   
    22   10   91 1    
    23   11   12 ar   
    24   11   58 1    
    25   12   13 ar   
    26   12   92 1    
    27   13   14 ar   
    28   13   15 1    
    29   14   93 1    
    30   15   16 1    
    31   15   94 1    
    32   15   95 1    
    33   16   17 1    
    34   17   18 1    
    35   17   96 1    
    36   17   97 1    
    37   18   19 1    
    38   18   22 1    
    39   18   98 1    
    40   19   20 am   BACKBONE|DICT|INTERRES
    41   19   21 2    
    42   20   99 1    
    43   20  100 1    
    44   22   23 am   BACKBONE|DICT|INTERRES
    45   22  101 1    
    46   23   24 2    
    47   23   25 1    
    48   25   26 1    
    49   25   27 1    
    50   25  102 1    
    51   26  103 1    
    52   26  104 1    
    53   26  105 1    
    54   27   28 am   BACKBONE|DICT|INTERRES
    55   27  106 1    
    56   28   29 2    
    57   28   30 1    
    58   30   31 1    
    59   30   32 1    
    60   30  107 1    
    61   31  108 1    
    62   31  109 1    
    63   31  110 1    
    64   32   33 am   BACKBONE|DICT|INTERRES
    65   32  111 1    
    66   33   34 2    
    67   33   35 1    
    68   35   36 1    
    69   35   37 1    
    70   35  112 1    
    71   36  113 1    
    72   36  114 1    
    73   36  115 1    
    74   37   38 am   BACKBONE|DICT|INTERRES
    75   37  116 1    
    76   38   39 2    
    77   38   40 1    
    78   40   41 1    
    79   40   42 1    
    80   40  117 1    
    81   41  118 1    
    82   41  119 1    
    83   41  120 1    
    84   42   43 am   BACKBONE|DICT|INTERRES
    85   42  121 1    
    86   43   44 2    
    87   43   45 1    
    88   45   46 1    
    89   45   47 1    
    90   45  122 1    
    91   46  123 1    
    92   46  124 1    
    93   46  125 1    
    94   47   48 am   BACKBONE|DICT|INTERRES
    95   47  126 1    
    96   48   49 2    
    97   48   50 1    
    98   50   51 1    
    99   50   52 1    
   100   50  127 1    
   101   51  128 1    
   102   51  129 1    
   103   51  130 1    
   104   52   53 am   BACKBONE|DICT|INTERRES
   105   52  131 1    
   106   53   54 2    
   107   53   55 1    
   108   55   56 1    
   109   55   59 1    
   110   55  132 1    
   111   56   57 1    
   112   56  133 1    
   113   56  134 1    
   114   57   58 1    
   115   58  135 1    
   116   58  136 1    
   117   59   60 am   BACKBONE|DICT|INTERRES
   118   59  137 1    
   119   60   61 2    
   120   60   62 1    
   121   62   63 1    
   122   62   64 1    
   123   62  138 1    
   124   63  139 1    
   125   63  140 1    
   126   63  141 1    
   127   64   65 am   BACKBONE|DICT|INTERRES
   128   64  142 1    
   129   65   66 2    
   130   65   67 1    
   131   67   68 1    
   132   67   69 1    
   133   67  143 1    
   134   68  144 1    
   135   68  145 1    
   136   68  146 1    
   137   69   70 am   BACKBONE|DICT|INTERRES
   138   69  147 1    
   139   70   71 2    
   140   70   72 1    
   141   72   73 1    
   142   72   74 1    
   143   72  148 1    
   144   73  149 1    
   145   73  150 1    
   146   73  151 1    
   147   74   75 am   BACKBONE|DICT|INTERRES
   148   74  152 1    
   149   75   76 2    
   150   75   77 1    
   151   77   78 1    
   152   77   79 1    
   153   77  153 1    
   154   78  154 1    
   155   78  155 1    
   156   78  156 1    
   157   79   80 am   BACKBONE|DICT|INTERRES
   158   79  157 1    
   159   80   81 2    
@<TRIPOS>SUBSTRUCTURE
     1 UNK         1 GROUP             0       ****    0 ROOT    
