@<TRIPOS>MOLECULE
3R207
157   159    1
SMALL
USER_CHARGES


@<TRIPOS>ATOM
      1 CA        -45.6399  -30.5112    5.7212 C.3       0 UNK        -0.1975 
      2 C         -46.6121  -29.9784    4.6788 C.2       0 UNK         0.4852 
      3 O         -46.8573  -30.6510    3.6760 O.2       0 UNK        -0.5216 
      4 N         -47.1647  -28.7837    4.9078 N.am      1 UNK        -0.4461 
      5 CA        -48.1144  -28.1067    4.0222 C.3       1 UNK         0.0864 
      6 C6        -49.5907  -28.4301    4.3830 C.3       14 UNK        -0.0898 
      7 S7        -50.0727  -27.9164    6.0682 S.3       14 UNK        -0.2598 
      8 C8        -50.2137  -29.5375    6.8863 C.3       14 UNK         0.0286 
      9 C9        -50.5865  -29.4357    8.3614 C.ar      14 UNK        -0.0844 
     10 C10       -49.8579  -30.1522    9.3158 C.ar      14 UNK        -0.0881 
     11 C11       -50.2292  -30.1261   10.6635 C.ar      14 UNK        -0.0643 
     12 C12       -51.3385  -29.3685   11.0575 C.ar      14 UNK        -0.0930 
     13 C13       -52.0531  -28.6188   10.1198 C.ar      14 UNK        -0.0827 
     14 C14       -51.6806  -28.6677    8.7736 C.ar      14 UNK        -0.1249 
     15 C15       -53.2179  -27.7405   10.5513 C.3       14 UNK         0.0141 
     16 S16       -54.8152  -28.5743   10.3155 S.3       14 UNK        -0.2313 
     17 C17       -55.0847  -29.3839   11.9294 C.3       14 UNK        -0.0915 
     18 CA        -56.2707  -28.7319   12.6950 C.3       13 UNK         0.0968 
     19 C         -56.7933  -29.6058   13.8728 C.2       13 UNK         0.5732 
     20 N         -57.1913  -29.0344   15.0029 N.am      13 UNK        -0.7310 
     21 O         -56.8628  -30.8271   13.7571 O.2       13 UNK        -0.5035 
     22 N         -55.9553  -27.3522   13.1015 N.am      13 UNK        -0.4233 
     23 C         -56.7376  -26.2883   12.8891 C.2       13 UNK         0.4989 
     24 O         -57.8032  -26.3288   12.2710 O.2       13 UNK        -0.4996 
     25 CA        -56.2347  -24.9528   13.4748 C.3       12 UNK         0.0216 
     26 CB        -57.3134  -23.8490   13.4583 C.3       12 UNK        -0.1964 
     27 N         -55.6526  -25.0724   14.8201 N.am      12 UNK        -0.4276 
     28 C         -56.2401  -25.5593   15.9231 C.2       12 UNK         0.5020 
     29 O         -57.3524  -26.0900   15.9419 O.2       12 UNK        -0.5489 
     30 CA        -55.4006  -25.4551   17.2069 C.3       11 UNK         0.0294 
     31 CB        -56.1999  -25.7474   18.4957 C.3       11 UNK        -0.2019 
     32 N         -54.1944  -26.2821   17.1002 N.am      11 UNK        -0.4493 
     33 C         -54.1152  -27.6215   17.0811 C.2       11 UNK         0.4932 
     34 O         -55.0682  -28.3767   17.2641 O.2       11 UNK        -0.5029 
     35 CA        -52.7384  -28.2411   16.7864 C.3       10 UNK         0.0280 
     36 CB        -52.6819  -28.7422   15.3326 C.3       10 UNK        -0.1976 
     37 N         -51.6136  -27.3337   17.0241 N.am      10 UNK        -0.4242 
     38 C         -51.1705  -26.9473   18.2290 C.2       10 UNK         0.5072 
     39 O         -51.6714  -27.3075   19.2947 O.2       10 UNK        -0.5224 
     40 CA        -49.9661  -25.9945   18.2449 C.3       9 UNK         0.0343 
     41 CB        -48.6569  -26.7803   18.0613 C.3       9 UNK        -0.2003 
     42 N         -50.0735  -24.9827   17.1925 N.am      9 UNK        -0.4272 
     43 C         -50.5888  -23.7574   17.3591 C.2       9 UNK         0.4988 
     44 O         -51.0000  -23.3267   18.4369 O.2       9 UNK        -0.5108 
     45 CA        -50.6561  -22.8486   16.1169 C.3       8 UNK         0.0248 
     46 CB        -49.3857  -21.9889   16.0133 C.3       8 UNK        -0.2001 
     47 N         -50.8503  -23.5793   14.8611 N.am      8 UNK        -0.4140 
     48 C         -51.9741  -24.2289   14.5325 C.2       8 UNK         0.5028 
     49 O         -52.9809  -24.2679   15.2409 O.2       8 UNK        -0.5428 
     50 CA        -51.9840  -24.9974   13.2014 C.3       7 UNK         0.0264 
     51 CB        -52.4276  -24.0724   12.0568 C.3       7 UNK        -0.1988 
     52 N         -50.7337  -25.6673   12.8199 N.am      7 UNK        -0.4454 
     53 C         -49.9597  -26.4569   13.5824 C.2       7 UNK         0.5027 
     54 O         -50.1199  -26.5914   14.7952 O.2       7 UNK        -0.5083 
     55 CA        -48.8607  -27.2903   12.8840 C.3       6 UNK         0.0844 
     56 C56       -48.9104  -28.7583   13.4000 C.3       14 UNK        -0.0967 
     57 S57       -48.0324  -29.9797   12.3636 S.3       14 UNK        -0.2604 
     58 C58       -49.4339  -30.9296   11.6845 C.3       14 UNK         0.0134 
     59 N         -48.9287  -27.1822   11.4193 N.am      6 UNK        -0.4116 
     60 C         -48.3516  -26.2119   10.7024 C.2       5 UNK         0.5034 
     61 O         -47.7352  -25.2660   11.1991 O.2       5 UNK        -0.5045 
     62 CA        -48.5420  -26.2735    9.1844 C.3       5 UNK         0.0224 
     63 CB        -49.7379  -25.4008    8.7675 C.3       5 UNK        -0.1978 
     64 N         -47.3335  -25.7621    8.5440 N.am      5 UNK        -0.4737 
     65 C         -46.4825  -26.4878    7.8139 C.2       4 UNK         0.5027 
     66 O         -46.6717  -27.6644    7.5045 O.2       4 UNK        -0.5211 
     67 CA        -45.2208  -25.7577    7.3288 C.3       4 UNK         0.0297 
     68 CB        -44.2298  -26.6923    6.6083 C.3       4 UNK        -0.1993 
     69 N         -45.6032  -24.6724    6.4275 N.am      4 UNK        -0.4486 
     70 C         -45.8398  -23.4088    6.8070 C.2       3 UNK         0.4961 
     71 O         -45.7130  -23.0144    7.9668 O.2       3 UNK        -0.5105 
     72 CA        -46.3047  -22.4118    5.7291 C.3       3 UNK         0.0299 
     73 CB        -45.1157  -21.5816    5.2191 C.3       3 UNK        -0.1972 
     74 N         -46.9676  -23.0512    4.5911 N.am      3 UNK        -0.4305 
     75 C         -48.1840  -23.6122    4.6294 C.2       2 UNK         0.5006 
     76 O         -48.9148  -23.5976    5.6202 O.2       2 UNK        -0.5106 
     77 CA        -48.6714  -24.3246    3.3527 C.3       2 UNK         0.0296 
     78 CB        -47.8472  -23.9944    2.0860 C.3       2 UNK        -0.2002 
     79 N         -48.7578  -25.7771    3.5438 N.am      2 UNK        -0.4032 
     80 C         -47.7721  -26.6042    3.9278 C.2       1 UNK         0.5000 
     81 O         -46.6213  -26.2241    4.1661 O.2       1 UNK        -0.5238 
     82 H82       -44.6725  -30.7144    5.2628 H         1 UNK         0.0889 
     83 H83       -46.0188  -31.4399    6.1471 H         1 UNK         0.0889 
     84 H84       -45.4848  -29.8042    6.5354 H         1 UNK         0.0889 
     85 H85       -46.9349  -28.2744    5.7606 H         1 UNK         0.3028 
     86 H86       -47.9505  -28.4704    3.0056 H         1 UNK         0.0864 
     87 H87       -50.2805  -27.9762    3.6703 H         1 UNK         0.0720 
     88 H88       -49.7536  -29.5037    4.2769 H         1 UNK         0.0720 
     89 H89       -49.2670  -30.0670    6.7664 H         1 UNK         0.0814 
     90 H90       -50.9723  -30.1322    6.3760 H         1 UNK         0.0814 
     91 H91       -49.0079  -30.7473    9.0096 H         1 UNK         0.1469 
     92 H92       -51.6450  -29.3541   12.0935 H         1 UNK         0.1381 
     93 H93       -52.2477  -28.1079    8.0422 H         1 UNK         0.1206 
     94 H94       -53.2168  -26.8245    9.9588 H         1 UNK         0.0813 
     95 H95       -53.1067  -27.4275   11.5892 H         1 UNK         0.0813 
     96 H96       -54.1734  -29.3647   12.5283 H         1 UNK         0.0638 
     97 H97       -55.2864  -30.4354   11.7188 H         1 UNK         0.0638 
     98 H98       -57.1127  -28.7139   12.0009 H         1 UNK         0.0568 
     99 H99       -57.1686  -28.0299   15.1307 H         1 UNK         0.3450 
    100 H100      -57.5119  -29.6194   15.7571 H         1 UNK         0.3450 
    101 H101      -55.1290  -27.2363   13.6659 H         1 UNK         0.2987 
    102 H102      -55.4266  -24.6283   12.8189 H         1 UNK         0.0766 
    103 H103      -56.9207  -22.9051   13.8364 H         1 UNK         0.0798 
    104 H104      -58.1769  -24.1207   14.0667 H         1 UNK         0.0798 
    105 H105      -57.6731  -23.6648   12.4451 H         1 UNK         0.0798 
    106 H106      -54.7099  -24.6965   14.9325 H         1 UNK         0.3198 
    107 H107      -55.0562  -24.4214   17.2724 H         1 UNK         0.0843 
    108 H108      -56.6463  -26.7419   18.4907 H         1 UNK         0.0831 
    109 H109      -57.0159  -25.0333   18.6112 H         1 UNK         0.0831 
    110 H110      -55.5687  -25.6669   19.3806 H         1 UNK         0.0831 
    111 H111      -53.3501  -25.7669   16.8829 H         1 UNK         0.3133 
    112 H112      -52.6222  -29.1027   17.4472 H         1 UNK         0.0566 
    113 H113      -51.7572  -29.2857   15.1411 H         1 UNK         0.0814 
    114 H114      -53.5053  -29.4264   15.1218 H         1 UNK         0.0814 
    115 H115      -52.7452  -27.9217   14.6181 H         1 UNK         0.0814 
    116 H116      -51.1021  -27.0189   16.2011 H         1 UNK         0.3091 
    117 H117      -49.9327  -25.5104   19.2234 H         1 UNK         0.0702 
    118 H118      -47.7899  -26.1225   18.1250 H         1 UNK         0.0785 
    119 H119      -48.6192  -27.2904   17.0977 H         1 UNK         0.0785 
    120 H120      -48.5455  -27.5390   18.8372 H         1 UNK         0.0785 
    121 H121      -49.8177  -25.2797   16.2571 H         1 UNK         0.2998 
    122 H122      -51.5091  -22.1793   16.2489 H         1 UNK         0.0697 
    123 H123      -48.4951  -22.5993   15.8585 H         1 UNK         0.0825 
    124 H124      -49.2301  -21.4118   16.9260 H         1 UNK         0.0825 
    125 H125      -49.4536  -21.2770   15.1905 H         1 UNK         0.0825 
    126 H126      -50.0728  -23.6079   14.2174 H         1 UNK         0.3029 
    127 H127      -52.7359  -25.7801   13.3095 H         1 UNK         0.0897 
    128 H128      -51.6660  -23.3267   11.8249 H         1 UNK         0.0792 
    129 H129      -53.3390  -23.5309   12.3138 H         1 UNK         0.0792 
    130 H130      -52.6339  -24.6333   11.1454 H         1 UNK         0.0792 
    131 H131      -50.4875  -25.6074   11.8437 H         1 UNK         0.3086 
    132 H132      -47.9053  -26.8728   13.2086 H         1 UNK         0.0583 
    133 H133      -48.4703  -28.8011   14.3983 H         1 UNK         0.1020 
    134 H134      -49.9363  -29.0970   13.5408 H         1 UNK         0.1020 
    135 H135      -49.0457  -31.8358   11.2168 H         1 UNK         0.0694 
    136 H136      -50.0815  -31.2661   12.4957 H         1 UNK         0.0694 
    137 H137      -49.4152  -27.9321   10.9445 H         1 UNK         0.2989 
    138 H138      -48.7303  -27.3063    8.8837 H         1 UNK         0.1055 
    139 H139      -50.6703  -25.7905    9.1773 H         1 UNK         0.0806 
    140 H140      -49.8483  -25.3768    7.6832 H         1 UNK         0.0806 
    141 H141      -49.6302  -24.3705    9.1094 H         1 UNK         0.0806 
    142 H142      -47.0746  -24.8121    8.7816 H         1 UNK         0.3061 
    143 H143      -44.7131  -25.3563    8.2086 H         1 UNK         0.0734 
    144 H144      -44.6653  -27.1419    5.7157 H         1 UNK         0.0832 
    145 H145      -43.3301  -26.1564    6.3061 H         1 UNK         0.0832 
    146 H146      -43.9171  -27.5067    7.2629 H         1 UNK         0.0832 
    147 H147      -45.8318  -24.9545    5.4778 H         1 UNK         0.3156 
    148 H148      -47.0183  -21.7309    6.1982 H         1 UNK         0.0589 
    149 H149      -44.3682  -22.2052    4.7269 H         1 UNK         0.0808 
    150 H150      -45.4381  -20.8185    4.5104 H         1 UNK         0.0808 
    151 H151      -44.6185  -21.0665    6.0425 H         1 UNK         0.0808 
    152 H152      -46.4352  -23.1283    3.7364 H         1 UNK         0.3098 
    153 H153      -49.6899  -23.9727    3.1814 H         1 UNK         0.0720 
    154 H154      -48.3017  -24.4411    1.2015 H         1 UNK         0.0791 
    155 H155      -46.8229  -24.3641    2.1453 H         1 UNK         0.0791 
    156 H156      -47.8060  -22.9185    1.9101 H         1 UNK         0.0791 
    157 H157      -49.6786  -26.1730    3.4191 H         1 UNK         0.3028 
@<TRIPOS>BOND
     1    1    2 1    
     2    1   82 1    
     3    1   83 1    
     4    1   84 1    
     5    2    3 2    
     6    2    4 am   BACKBONE|DICT|INTERRES
     7    4    5 1    
     8    4   85 1    
     9    5    6 1    
    10    5   80 1    
    11    5   86 1    
    12    6    7 1    
    13    6   87 1    
    14    6   88 1    
    15    7    8 1    
    16    8    9 1    
    17    8   89 1    
    18    8   90 1    
    19    9   10 ar   
    20    9   14 ar   
    21   10   11 ar   
    22   10   91 1    
    23   11   12 ar   
    24   11   58 1    
    25   12   13 ar   
    26   12   92 1    
    27   13   14 ar   
    28   13   15 1    
    29   14   93 1    
    30   15   16 1    
    31   15   94 1    
    32   15   95 1    
    33   16   17 1    
    34   17   18 1    
    35   17   96 1    
    36   17   97 1    
    37   18   19 1    
    38   18   22 1    
    39   18   98 1    
    40   19   20 am   BACKBONE|DICT|INTERRES
    41   19   21 2    
    42   20   99 1    
    43   20  100 1    
    44   22   23 am   BACKBONE|DICT|INTERRES
    45   22  101 1    
    46   23   24 2    
    47   23   25 1    
    48   25   26 1    
    49   25   27 1    
    50   25  102 1    
    51   26  103 1    
    52   26  104 1    
    53   26  105 1    
    54   27   28 am   BACKBONE|DICT|INTERRES
    55   27  106 1    
    56   28   29 2    
    57   28   30 1    
    58   30   31 1    
    59   30   32 1    
    60   30  107 1    
    61   31  108 1    
    62   31  109 1    
    63   31  110 1    
    64   32   33 am   BACKBONE|DICT|INTERRES
    65   32  111 1    
    66   33   34 2    
    67   33   35 1    
    68   35   36 1    
    69   35   37 1    
    70   35  112 1    
    71   36  113 1    
    72   36  114 1    
    73   36  115 1    
    74   37   38 am   BACKBONE|DICT|INTERRES
    75   37  116 1    
    76   38   39 2    
    77   38   40 1    
    78   40   41 1    
    79   40   42 1    
    80   40  117 1    
    81   41  118 1    
    82   41  119 1    
    83   41  120 1    
    84   42   43 am   BACKBONE|DICT|INTERRES
    85   42  121 1    
    86   43   44 2    
    87   43   45 1    
    88   45   46 1    
    89   45   47 1    
    90   45  122 1    
    91   46  123 1    
    92   46  124 1    
    93   46  125 1    
    94   47   48 am   BACKBONE|DICT|INTERRES
    95   47  126 1    
    96   48   49 2    
    97   48   50 1    
    98   50   51 1    
    99   50   52 1    
   100   50  127 1    
   101   51  128 1    
   102   51  129 1    
   103   51  130 1    
   104   52   53 am   BACKBONE|DICT|INTERRES
   105   52  131 1    
   106   53   54 2    
   107   53   55 1    
   108   55   56 1    
   109   55   59 1    
   110   55  132 1    
   111   56   57 1    
   112   56  133 1    
   113   56  134 1    
   114   57   58 1    
   115   58  135 1    
   116   58  136 1    
   117   59   60 am   BACKBONE|DICT|INTERRES
   118   59  137 1    
   119   60   61 2    
   120   60   62 1    
   121   62   63 1    
   122   62   64 1    
   123   62  138 1    
   124   63  139 1    
   125   63  140 1    
   126   63  141 1    
   127   64   65 am   BACKBONE|DICT|INTERRES
   128   64  142 1    
   129   65   66 2    
   130   65   67 1    
   131   67   68 1    
   132   67   69 1    
   133   67  143 1    
   134   68  144 1    
   135   68  145 1    
   136   68  146 1    
   137   69   70 am   BACKBONE|DICT|INTERRES
   138   69  147 1    
   139   70   71 2    
   140   70   72 1    
   141   72   73 1    
   142   72   74 1    
   143   72  148 1    
   144   73  149 1    
   145   73  150 1    
   146   73  151 1    
   147   74   75 am   BACKBONE|DICT|INTERRES
   148   74  152 1    
   149   75   76 2    
   150   75   77 1    
   151   77   78 1    
   152   77   79 1    
   153   77  153 1    
   154   78  154 1    
   155   78  155 1    
   156   78  156 1    
   157   79   80 am   BACKBONE|DICT|INTERRES
   158   79  157 1    
   159   80   81 2    
@<TRIPOS>SUBSTRUCTURE
     1 UNK         1 GROUP             0       ****    0 ROOT    
