@<TRIPOS>MOLECULE
3R207
157   159    1
SMALL
USER_CHARGES


@<TRIPOS>ATOM
      1 CA        -44.8129  -30.1747    8.6362 C.3       0 UNK        -0.1975 
      2 C         -45.5328  -30.2150    7.2964 C.2       0 UNK         0.4852 
      3 O         -44.8819  -30.1656    6.2522 O.2       0 UNK        -0.5216 
      4 N         -46.8692  -30.3128    7.3195 N.am      1 UNK        -0.4461 
      5 CA        -47.7361  -30.3556    6.1342 C.3       1 UNK         0.0864 
      6 C6        -49.1775  -30.7960    6.4910 C.3       14 UNK        -0.0898 
      7 S7        -49.9718  -29.7902    7.7969 S.3       14 UNK        -0.2598 
      8 C8        -51.1831  -28.8335    6.8278 C.3       14 UNK         0.0286 
      9 C9        -52.2518  -28.2157    7.7184 C.ar      14 UNK        -0.0844 
     10 C10       -52.4165  -26.8283    7.7923 C.ar      14 UNK        -0.0881 
     11 C11       -53.4290  -26.2781    8.5873 C.ar      14 UNK        -0.0643 
     12 C12       -54.2593  -27.1250    9.3280 C.ar      14 UNK        -0.0930 
     13 C13       -54.1035  -28.5138    9.2656 C.ar      14 UNK        -0.0827 
     14 C14       -53.1040  -29.0480    8.4491 C.ar      14 UNK        -0.1249 
     15 C15       -54.9694  -29.4527   10.0987 C.3       14 UNK         0.0141 
     16 S16       -56.7530  -29.3461    9.7175 S.3       14 UNK        -0.2313 
     17 C17       -57.4245  -27.9798   10.7407 C.3       14 UNK        -0.0915 
     18 CA        -56.7574  -27.7267   12.1272 C.3       13 UNK         0.0968 
     19 C         -57.3424  -26.4876   12.8728 C.2       13 UNK         0.5732 
     20 N         -57.3544  -26.4551   14.2015 N.am      13 UNK        -0.7310 
     21 O         -57.7602  -25.5204   12.2410 O.2       13 UNK        -0.5035 
     22 N         -56.6505  -28.9325   12.9612 N.am      13 UNK        -0.4233 
     23 C         -57.6617  -29.6326   13.4930 C.2       13 UNK         0.4989 
     24 O         -58.8510  -29.4285   13.2475 O.2       13 UNK        -0.4996 
     25 CA        -57.2865  -30.7339   14.5057 C.3       12 UNK         0.0216 
     26 CB        -57.3292  -32.1154   13.8323 C.3       12 UNK        -0.1964 
     27 N         -55.9738  -30.5473   15.1384 N.am      12 UNK        -0.4276 
     28 C         -55.6057  -29.4887   15.8751 C.2       12 UNK         0.5020 
     29 O         -56.3603  -28.5542   16.1528 O.2       12 UNK        -0.5489 
     30 CA        -54.1337  -29.4156   16.3227 C.3       11 UNK         0.0294 
     31 CB        -53.3552  -30.7435   16.1788 C.3       11 UNK        -0.2019 
     32 N         -53.4303  -28.3303   15.6296 N.am      11 UNK        -0.4493 
     33 C         -53.2874  -28.1556   14.3078 C.2       11 UNK         0.4932 
     34 O         -53.7346  -28.9370   13.4683 O.2       11 UNK        -0.5029 
     35 CA        -52.5374  -26.8975   13.8245 C.3       10 UNK         0.0280 
     36 CB        -53.5151  -25.7094   13.7267 C.3       10 UNK        -0.1976 
     37 N         -51.3229  -26.5587   14.5922 N.am      10 UNK        -0.4242 
     38 C         -51.2362  -26.1858   15.8787 C.2       10 UNK         0.5072 
     39 O         -52.2139  -25.9861   16.6013 O.2       10 UNK        -0.5224 
     40 CA        -49.8403  -26.1045   16.5050 C.3       9 UNK         0.0343 
     41 CB        -49.3093  -27.5166   16.8202 C.3       9 UNK        -0.2003 
     42 N         -48.8680  -25.3638   15.6972 N.am      9 UNK        -0.4272 
     43 C         -47.8096  -24.7357   16.2314 C.2       9 UNK         0.4988 
     44 O         -47.5908  -24.6725   17.4427 O.2       9 UNK        -0.5108 
     45 CA        -46.7986  -24.0880   15.2729 C.3       8 UNK         0.0248 
     46 CB        -45.8006  -25.1415   14.7666 C.3       8 UNK        -0.2001 
     47 N         -47.4118  -23.3910   14.1413 N.am      8 UNK        -0.4140 
     48 C         -48.1371  -22.2676   14.2462 C.2       8 UNK         0.5028 
     49 O         -48.3731  -21.6991   15.3133 O.2       8 UNK        -0.5428 
     50 CA        -48.6930  -21.6696   12.9418 C.3       7 UNK         0.0264 
     51 CB        -47.6206  -20.8343   12.2239 C.3       7 UNK        -0.1988 
     52 N         -49.2176  -22.6825   12.0249 N.am      7 UNK        -0.4454 
     53 C         -50.2835  -23.4563   12.2742 C.2       7 UNK         0.5027 
     54 O         -50.9654  -23.3598   13.2934 O.2       7 UNK        -0.5083 
     55 CA        -50.6023  -24.5521   11.2331 C.3       6 UNK         0.0844 
     56 C56       -51.3283  -23.9865    9.9863 C.3       14 UNK        -0.0967 
     57 S57       -53.1397  -24.0034   10.1787 S.3       14 UNK        -0.2604 
     58 C58       -53.6680  -24.7736    8.6145 C.3       14 UNK         0.0134 
     59 N         -49.3995  -25.2960   10.8636 N.am      6 UNK        -0.4116 
     60 C         -48.6663  -26.0489   11.6935 C.2       5 UNK         0.5034 
     61 O         -48.9640  -26.2827   12.8676 O.2       5 UNK        -0.5045 
     62 CA        -47.3518  -26.5919   11.1125 C.3       5 UNK         0.0224 
     63 CB        -47.5879  -27.9369   10.4088 C.3       5 UNK        -0.1978 
     64 N         -46.7342  -25.6430   10.1769 N.am      5 UNK        -0.4737 
     65 C         -46.1475  -24.4970   10.5548 C.2       4 UNK         0.5027 
     66 O         -46.0376  -24.1484   11.7279 O.2       4 UNK        -0.5211 
     67 CA        -45.6428  -23.5564    9.4461 C.3       4 UNK         0.0297 
     68 CB        -44.2445  -23.9847    8.9744 C.3       4 UNK        -0.1993 
     69 N         -46.5465  -23.4818    8.2963 N.am      4 UNK        -0.4486 
     70 C         -47.8155  -23.0514    8.3430 C.2       3 UNK         0.4961 
     71 O         -48.3411  -22.5900    9.3542 O.2       3 UNK        -0.5105 
     72 CA        -48.6655  -23.2123    7.0682 C.3       3 UNK         0.0299 
     73 CB        -48.6881  -21.8979    6.2731 C.3       3 UNK        -0.1972 
     74 N         -48.2400  -24.3092    6.1893 N.am      3 UNK        -0.4305 
     75 C         -48.1308  -25.5948    6.5523 C.2       2 UNK         0.5006 
     76 O         -48.3820  -26.0108    7.6879 O.2       2 UNK        -0.5106 
     77 CA        -47.5967  -26.5572    5.4855 C.3       2 UNK         0.0296 
     78 CB        -46.1520  -26.2046    5.0787 C.3       2 UNK        -0.2002 
     79 N         -47.6290  -27.9091    6.0273 N.am      2 UNK        -0.4032 
     80 C         -47.7288  -29.0415    5.3243 C.2       1 UNK         0.5000 
     81 O         -47.8061  -29.0831    4.0946 O.2       1 UNK        -0.5238 
     82 H82       -44.4197  -29.1754    8.8214 H         1 UNK         0.0889 
     83 H83       -43.9776  -30.8745    8.6347 H         1 UNK         0.0889 
     84 H84       -45.4726  -30.4439    9.4608 H         1 UNK         0.0889 
     85 H85       -47.3539  -30.3588    8.2050 H         1 UNK         0.3028 
     86 H86       -47.3226  -31.1194    5.4716 H         1 UNK         0.0864 
     87 H87       -49.1543  -31.8261    6.8500 H         1 UNK         0.0720 
     88 H88       -49.8047  -30.8214    5.5979 H         1 UNK         0.0720 
     89 H89       -51.6741  -29.4846    6.1034 H         1 UNK         0.0814 
     90 H90       -50.6587  -28.0670    6.2552 H         1 UNK         0.0814 
     91 H91       -51.7705  -26.1792    7.2170 H         1 UNK         0.1469 
     92 H92       -55.0314  -26.6906    9.9433 H         1 UNK         0.1381 
     93 H93       -52.9722  -30.1200    8.3898 H         1 UNK         0.1206 
     94 H94       -54.6728  -30.4858    9.9116 H         1 UNK         0.0813 
     95 H95       -54.7644  -29.2964   11.1526 H         1 UNK         0.0813 
     96 H96       -57.3679  -27.0771   10.1305 H         1 UNK         0.0638 
     97 H97       -58.4903  -28.1706   10.8740 H         1 UNK         0.0638 
     98 H98       -55.7283  -27.4307   11.9407 H         1 UNK         0.0568 
     99 H99       -57.7258  -25.6417   14.6649 H         1 UNK         0.3450 
    100 H100      -57.0122  -27.2337   14.7544 H         1 UNK         0.3450 
    101 H101      -55.7043  -29.1684   13.2423 H         1 UNK         0.2987 
    102 H102      -58.0377  -30.7126   15.2979 H         1 UNK         0.0766 
    103 H103      -57.1536  -32.9154   14.5518 H         1 UNK         0.0798 
    104 H104      -56.5828  -32.2019   13.0414 H         1 UNK         0.0798 
    105 H105      -58.3048  -32.2987   13.3795 H         1 UNK         0.0798 
    106 H106      -55.2726  -31.2462   14.9390 H         1 UNK         0.3198 
    107 H107      -54.1495  -29.1529   17.3816 H         1 UNK         0.0843 
    108 H108      -53.2413  -31.0524   15.1391 H         1 UNK         0.0831 
    109 H109      -53.8507  -31.5526   16.7174 H         1 UNK         0.0831 
    110 H110      -52.3539  -30.6510   16.5997 H         1 UNK         0.0831 
    111 H111      -53.0866  -27.5735   16.2179 H         1 UNK         0.3133 
    112 H112      -52.1879  -27.1192   12.8152 H         1 UNK         0.0566 
    113 H113      -53.0251  -24.8081   13.3678 H         1 UNK         0.0814 
    114 H114      -54.3192  -25.9258   13.0253 H         1 UNK         0.0814 
    115 H115      -53.9781  -25.4764   14.6860 H         1 UNK         0.0814 
    116 H116      -50.4540  -26.6971   14.0838 H         1 UNK         0.3091 
    117 H117      -49.9736  -25.5782   17.4532 H         1 UNK         0.0702 
    118 H118      -50.0399  -28.0940   17.3888 H         1 UNK         0.0785 
    119 H119      -49.0863  -28.0751   15.9103 H         1 UNK         0.0785 
    120 H120      -48.3985  -27.4751   17.4176 H         1 UNK         0.0785 
    121 H121      -48.9803  -25.3849   14.6887 H         1 UNK         0.2998 
    122 H122      -46.2358  -23.3472   15.8451 H         1 UNK         0.0697 
    123 H123      -46.2903  -25.8967   14.1520 H         1 UNK         0.0825 
    124 H124      -45.3221  -25.6592   15.5991 H         1 UNK         0.0825 
    125 H125      -45.0079  -24.6856   14.1734 H         1 UNK         0.0825 
    126 H126      -47.1827  -23.7410   13.2145 H         1 UNK         0.3029 
    127 H127      -49.5183  -21.0060   13.2092 H         1 UNK         0.0897 
    128 H128      -46.7739  -21.4462   11.9113 H         1 UNK         0.0792 
    129 H129      -47.2345  -20.0502   12.8765 H         1 UNK         0.0792 
    130 H130      -48.0258  -20.3482   11.3361 H         1 UNK         0.0792 
    131 H131      -48.7501  -22.7715   11.1239 H         1 UNK         0.3086 
    132 H132      -51.2583  -25.2780   11.7139 H         1 UNK         0.0583 
    133 H133      -51.0051  -22.9719    9.7443 H         1 UNK         0.1020 
    134 H134      -51.0769  -24.5836    9.1092 H         1 UNK         0.1020 
    135 H135      -54.7337  -24.5832    8.4786 H         1 UNK         0.0694 
    136 H136      -53.1668  -24.2827    7.7787 H         1 UNK         0.0694 
    137 H137      -49.0621  -25.1788    9.9182 H         1 UNK         0.2989 
    138 H138      -46.6615  -26.7569   11.9421 H         1 UNK         0.1055 
    139 H139      -47.9753  -28.6787   11.1085 H         1 UNK         0.0806 
    140 H140      -46.6611  -28.3319    9.9961 H         1 UNK         0.0806 
    141 H141      -48.3106  -27.8510    9.5970 H         1 UNK         0.0806 
    142 H142      -46.8680  -25.8233    9.1892 H         1 UNK         0.3061 
    143 H143      -45.5680  -22.5541    9.8732 H         1 UNK         0.0734 
    144 H144      -43.8338  -23.2773    8.2538 H         1 UNK         0.0832 
    145 H145      -43.5483  -24.0295    9.8134 H         1 UNK         0.0832 
    146 H146      -44.2567  -24.9713    8.5092 H         1 UNK         0.0832 
    147 H147      -46.1970  -23.8322    7.4171 H         1 UNK         0.3156 
    148 H148      -49.6859  -23.4322    7.3868 H         1 UNK         0.0589 
    149 H149      -47.6992  -21.6370    5.8939 H         1 UNK         0.0808 
    150 H150      -49.3699  -21.9575    5.4245 H         1 UNK         0.0808 
    151 H151      -49.0259  -21.0697    6.8983 H         1 UNK         0.0808 
    152 H152      -48.0105  -24.0566    5.2384 H         1 UNK         0.3098 
    153 H153      -48.2549  -26.4971    4.6162 H         1 UNK         0.0720 
    154 H154      -45.7683  -26.9068    4.3382 H         1 UNK         0.0791 
    155 H155      -45.4762  -26.2270    5.9348 H         1 UNK         0.0791 
    156 H156      -46.0895  -25.2107    4.6346 H         1 UNK         0.0791 
    157 H157      -47.6669  -27.9520    7.0379 H         1 UNK         0.3028 
@<TRIPOS>BOND
     1    1    2 1    
     2    1   82 1    
     3    1   83 1    
     4    1   84 1    
     5    2    3 2    
     6    2    4 am   BACKBONE|DICT|INTERRES
     7    4    5 1    
     8    4   85 1    
     9    5    6 1    
    10    5   80 1    
    11    5   86 1    
    12    6    7 1    
    13    6   87 1    
    14    6   88 1    
    15    7    8 1    
    16    8    9 1    
    17    8   89 1    
    18    8   90 1    
    19    9   10 ar   
    20    9   14 ar   
    21   10   11 ar   
    22   10   91 1    
    23   11   12 ar   
    24   11   58 1    
    25   12   13 ar   
    26   12   92 1    
    27   13   14 ar   
    28   13   15 1    
    29   14   93 1    
    30   15   16 1    
    31   15   94 1    
    32   15   95 1    
    33   16   17 1    
    34   17   18 1    
    35   17   96 1    
    36   17   97 1    
    37   18   19 1    
    38   18   22 1    
    39   18   98 1    
    40   19   20 am   BACKBONE|DICT|INTERRES
    41   19   21 2    
    42   20   99 1    
    43   20  100 1    
    44   22   23 am   BACKBONE|DICT|INTERRES
    45   22  101 1    
    46   23   24 2    
    47   23   25 1    
    48   25   26 1    
    49   25   27 1    
    50   25  102 1    
    51   26  103 1    
    52   26  104 1    
    53   26  105 1    
    54   27   28 am   BACKBONE|DICT|INTERRES
    55   27  106 1    
    56   28   29 2    
    57   28   30 1    
    58   30   31 1    
    59   30   32 1    
    60   30  107 1    
    61   31  108 1    
    62   31  109 1    
    63   31  110 1    
    64   32   33 am   BACKBONE|DICT|INTERRES
    65   32  111 1    
    66   33   34 2    
    67   33   35 1    
    68   35   36 1    
    69   35   37 1    
    70   35  112 1    
    71   36  113 1    
    72   36  114 1    
    73   36  115 1    
    74   37   38 am   BACKBONE|DICT|INTERRES
    75   37  116 1    
    76   38   39 2    
    77   38   40 1    
    78   40   41 1    
    79   40   42 1    
    80   40  117 1    
    81   41  118 1    
    82   41  119 1    
    83   41  120 1    
    84   42   43 am   BACKBONE|DICT|INTERRES
    85   42  121 1    
    86   43   44 2    
    87   43   45 1    
    88   45   46 1    
    89   45   47 1    
    90   45  122 1    
    91   46  123 1    
    92   46  124 1    
    93   46  125 1    
    94   47   48 am   BACKBONE|DICT|INTERRES
    95   47  126 1    
    96   48   49 2    
    97   48   50 1    
    98   50   51 1    
    99   50   52 1    
   100   50  127 1    
   101   51  128 1    
   102   51  129 1    
   103   51  130 1    
   104   52   53 am   BACKBONE|DICT|INTERRES
   105   52  131 1    
   106   53   54 2    
   107   53   55 1    
   108   55   56 1    
   109   55   59 1    
   110   55  132 1    
   111   56   57 1    
   112   56  133 1    
   113   56  134 1    
   114   57   58 1    
   115   58  135 1    
   116   58  136 1    
   117   59   60 am   BACKBONE|DICT|INTERRES
   118   59  137 1    
   119   60   61 2    
   120   60   62 1    
   121   62   63 1    
   122   62   64 1    
   123   62  138 1    
   124   63  139 1    
   125   63  140 1    
   126   63  141 1    
   127   64   65 am   BACKBONE|DICT|INTERRES
   128   64  142 1    
   129   65   66 2    
   130   65   67 1    
   131   67   68 1    
   132   67   69 1    
   133   67  143 1    
   134   68  144 1    
   135   68  145 1    
   136   68  146 1    
   137   69   70 am   BACKBONE|DICT|INTERRES
   138   69  147 1    
   139   70   71 2    
   140   70   72 1    
   141   72   73 1    
   142   72   74 1    
   143   72  148 1    
   144   73  149 1    
   145   73  150 1    
   146   73  151 1    
   147   74   75 am   BACKBONE|DICT|INTERRES
   148   74  152 1    
   149   75   76 2    
   150   75   77 1    
   151   77   78 1    
   152   77   79 1    
   153   77  153 1    
   154   78  154 1    
   155   78  155 1    
   156   78  156 1    
   157   79   80 am   BACKBONE|DICT|INTERRES
   158   79  157 1    
   159   80   81 2    
@<TRIPOS>SUBSTRUCTURE
     1 UNK         1 GROUP             0       ****    0 ROOT    
