@<TRIPOS>MOLECULE
3R207
157   159    1
SMALL
USER_CHARGES


@<TRIPOS>ATOM
      1 CA        -47.2889  -28.6500    7.7270 C.3       0 UNK        -0.1975 
      2 C         -47.7694  -29.2370    6.4129 C.2       0 UNK         0.4852 
      3 O         -46.9505  -29.5852    5.5604 O.2       0 UNK        -0.5216 
      4 N         -49.0919  -29.3266    6.2225 N.am      1 UNK        -0.4461 
      5 CA        -49.7365  -29.8559    5.0147 C.3       1 UNK         0.0864 
      6 C6        -51.1519  -30.4203    5.3012 C.3       14 UNK        -0.0898 
      7 S7        -51.1410  -31.6968    6.6094 S.3       14 UNK        -0.2598 
      8 C8        -52.3902  -31.0723    7.7808 C.3       14 UNK         0.0286 
      9 C9        -51.9617  -29.7832    8.4702 C.ar      14 UNK        -0.0844 
     10 C10       -51.1097  -29.8202    9.5792 C.ar      14 UNK        -0.0881 
     11 C11       -50.7512  -28.6375   10.2335 C.ar      14 UNK        -0.0643 
     12 C12       -51.2298  -27.4136    9.7593 C.ar      14 UNK        -0.0930 
     13 C13       -52.0893  -27.3634    8.6578 C.ar      14 UNK        -0.0827 
     14 C14       -52.4525  -28.5531    8.0222 C.ar      14 UNK        -0.1249 
     15 C15       -52.6295  -26.0360    8.1353 C.3       14 UNK         0.0141 
     16 S16       -53.1985  -24.9008    9.4452 S.3       14 UNK        -0.2313 
     17 C17       -54.5744  -25.8274   10.2089 C.3       14 UNK        -0.0915 
     18 CA        -54.6646  -25.6057   11.7506 C.3       13 UNK         0.0968 
     19 C         -55.3977  -24.2839   12.1474 C.2       13 UNK         0.5732 
     20 N         -56.2074  -24.2512   13.2004 N.am      13 UNK        -0.7310 
     21 O         -55.2133  -23.2501   11.5107 O.2       13 UNK        -0.5035 
     22 N         -55.1339  -26.7963   12.4768 N.am      13 UNK        -0.4233 
     23 C         -56.3136  -27.4109   12.3004 C.2       13 UNK         0.4989 
     24 O         -57.1116  -27.1316   11.4052 O.2       13 UNK        -0.4996 
     25 CA        -56.6939  -28.5078   13.3156 C.3       12 UNK         0.0216 
     26 CB        -56.2886  -29.8915   12.7816 C.3       12 UNK        -0.1964 
     27 N         -56.1109  -28.3155   14.6481 N.am      12 UNK        -0.4276 
     28 C         -56.2800  -27.2370   15.4276 C.2       12 UNK         0.5020 
     29 O         -57.0411  -26.3096   15.1498 O.2       12 UNK        -0.5489 
     30 CA        -55.4236  -27.1433   16.7058 C.3       11 UNK         0.0294 
     31 CB        -56.2639  -27.5108   17.9396 C.3       11 UNK        -0.2019 
     32 N         -54.1948  -27.9500   16.7019 N.am      11 UNK        -0.4493 
     33 C         -53.2117  -27.8848   15.7933 C.2       11 UNK         0.4932 
     34 O         -53.2448  -27.1721   14.7878 O.2       11 UNK        -0.5029 
     35 CA        -52.0033  -28.7949   16.0421 C.3       10 UNK         0.0280 
     36 CB        -51.5159  -29.4495   14.7408 C.3       10 UNK        -0.1976 
     37 N         -50.9132  -28.0184   16.6243 N.am      10 UNK        -0.4242 
     38 C         -50.7511  -27.7994   17.9357 C.2       10 UNK         0.5072 
     39 O         -51.5177  -28.2254   18.8011 O.2       10 UNK        -0.5224 
     40 CA        -49.5260  -26.9755   18.3550 C.3       9 UNK         0.0343 
     41 CB        -48.2311  -27.7808   18.1501 C.3       9 UNK        -0.2003 
     42 N         -49.4484  -25.7316   17.5909 N.am      9 UNK        -0.4272 
     43 C         -49.7441  -24.5149   18.0703 C.2       9 UNK         0.4988 
     44 O         -50.0817  -24.2986   19.2349 O.2       9 UNK        -0.5108 
     45 CA        -49.6383  -23.3252   17.0954 C.3       8 UNK         0.0248 
     46 CB        -48.2860  -22.6132   17.2633 C.3       8 UNK        -0.2001 
     47 N         -49.8065  -23.7089   15.6925 N.am      8 UNK        -0.4140 
     48 C         -50.9526  -24.1500   15.1553 C.2       8 UNK         0.5028 
     49 O         -52.0253  -24.1619   15.7591 O.2       8 UNK        -0.5428 
     50 CA        -50.8918  -24.6825   13.7112 C.3       7 UNK         0.0264 
     51 CB        -51.4806  -23.6419   12.7471 C.3       7 UNK        -0.1988 
     52 N         -49.5513  -25.0876   13.2525 N.am      7 UNK        -0.4454 
     53 C         -48.8248  -26.0778   13.8027 C.2       7 UNK         0.5027 
     54 O         -49.1913  -26.6886   14.8091 O.2       7 UNK        -0.5083 
     55 CA        -47.4730  -26.4736   13.1661 C.3       6 UNK         0.0844 
     56 C56       -47.4534  -27.9683   12.7407 C.3       14 UNK        -0.0967 
     57 S57       -48.1533  -28.2846   11.0829 S.3       14 UNK        -0.2604 
     58 C58       -49.8799  -28.6678   11.4766 C.3       14 UNK         0.0134 
     59 N         -47.0587  -25.5954   12.0709 N.am      6 UNK        -0.4116 
     60 C         -46.4457  -24.4138   12.1926 C.2       5 UNK         0.5034 
     61 O         -46.1260  -23.9124   13.2706 O.2       5 UNK        -0.5045 
     62 CA        -46.1652  -23.6524   10.8812 C.3       5 UNK         0.0224 
     63 CB        -44.7653  -23.9993   10.3491 C.3       5 UNK        -0.1978 
     64 N         -47.1560  -23.8765    9.8153 N.am      5 UNK        -0.4737 
     65 C         -48.4675  -23.6170    9.9239 C.2       4 UNK         0.5027 
     66 O         -48.9806  -23.2298   10.9714 O.2       4 UNK        -0.5211 
     67 CA        -49.3566  -23.8215    8.6848 C.3       4 UNK         0.0297 
     68 CB        -50.3809  -22.6814    8.5363 C.3       4 UNK        -0.1993 
     69 N         -48.5788  -23.9225    7.4457 N.am      4 UNK        -0.4486 
     70 C         -48.5258  -25.0039    6.6608 C.2       3 UNK         0.4961 
     71 O         -49.0989  -26.0676    6.9051 O.2       3 UNK        -0.5105 
     72 CA        -47.6757  -24.8768    5.3904 C.3       3 UNK         0.0299 
     73 CB        -46.1719  -24.8524    5.7219 C.3       3 UNK        -0.1972 
     74 N         -47.9639  -26.0157    4.5253 N.am      3 UNK        -0.4305 
     75 C         -47.9258  -26.0322    3.1878 C.2       2 UNK         0.5006 
     76 O         -47.6247  -25.0502    2.5074 O.2       2 UNK        -0.5106 
     77 CA        -48.2571  -27.3623    2.4781 C.3       2 UNK         0.0296 
     78 CB        -47.1010  -27.7933    1.5579 C.3       2 UNK        -0.2002 
     79 N         -48.5319  -28.4511    3.4196 N.am      2 UNK        -0.4032 
     80 C         -49.7348  -28.7798    3.9070 C.2       1 UNK         0.5000 
     81 O         -50.7856  -28.2410    3.5533 O.2       1 UNK        -0.5238 
     82 H82       -48.1008  -28.1413    8.2449 H         1 UNK         0.0889 
     83 H83       -46.4957  -27.9240    7.5533 H         1 UNK         0.0889 
     84 H84       -46.9030  -29.4361    8.3752 H         1 UNK         0.0889 
     85 H85       -49.7226  -29.0000    6.9434 H         1 UNK         0.3028 
     86 H86       -49.1360  -30.6900    4.6438 H         1 UNK         0.0864 
     87 H87       -51.5628  -30.8757    4.3984 H         1 UNK         0.0720 
     88 H88       -51.8399  -29.6190    5.5681 H         1 UNK         0.0720 
     89 H89       -52.5773  -31.8392    8.5339 H         1 UNK         0.0814 
     90 H90       -53.3365  -30.9312    7.2560 H         1 UNK         0.0814 
     91 H91       -50.7391  -30.7697    9.9405 H         1 UNK         0.1469 
     92 H92       -50.9455  -26.5003   10.2627 H         1 UNK         0.1381 
     93 H93       -53.1245  -28.5213    7.1756 H         1 UNK         0.1206 
     94 H94       -53.4572  -26.2019    7.4442 H         1 UNK         0.0813 
     95 H95       -51.8440  -25.5449    7.5599 H         1 UNK         0.0813 
     96 H96       -55.5081  -25.5560    9.7136 H         1 UNK         0.0638 
     97 H97       -54.4250  -26.8867    9.9972 H         1 UNK         0.0638 
     98 H98       -53.6485  -25.4776   12.1223 H         1 UNK         0.0568 
     99 H99       -56.3947  -25.0773   13.7589 H         1 UNK         0.3450 
    100 H100      -56.6570  -23.3819   13.4374 H         1 UNK         0.3450 
    101 H101      -54.5523  -27.0723   13.2623 H         1 UNK         0.2987 
    102 H102      -57.7798  -28.4851   13.4280 H         1 UNK         0.0766 
    103 H103      -56.6302  -30.6891   13.4417 H         1 UNK         0.0798 
    104 H104      -55.2068  -29.9821   12.6737 H         1 UNK         0.0798 
    105 H105      -56.7297  -30.0753   11.8006 H         1 UNK         0.0798 
    106 H106      -55.4655  -29.0230   14.9671 H         1 UNK         0.3198 
    107 H107      -55.1163  -26.0993   16.8001 H         1 UNK         0.0843 
    108 H108      -56.5709  -28.5574   17.9221 H         1 UNK         0.0831 
    109 H109      -57.1711  -26.9064   17.9888 H         1 UNK         0.0831 
    110 H110      -55.7125  -27.3361   18.8637 H         1 UNK         0.0831 
    111 H111      -54.0560  -28.5537   17.5011 H         1 UNK         0.3133 
    112 H112      -52.2917  -29.5966   16.7257 H         1 UNK         0.0566 
    113 H113      -50.6737  -30.1177   14.9209 H         1 UNK         0.0814 
    114 H114      -52.3078  -30.0368   14.2744 H         1 UNK         0.0814 
    115 H115      -51.1993  -28.6978   14.0215 H         1 UNK         0.0814 
    116 H116      -50.2657  -27.5889   15.9665 H         1 UNK         0.3091 
    117 H117      -49.6191  -26.7622   19.4220 H         1 UNK         0.0702 
    118 H118      -48.2674  -28.7239   18.6971 H         1 UNK         0.0785 
    119 H119      -48.0581  -28.0182   17.0995 H         1 UNK         0.0785 
    120 H120      -47.3638  -27.2293   18.5133 H         1 UNK         0.0785 
    121 H121      -49.2262  -25.8256   16.6060 H         1 UNK         0.2998 
    122 H122      -50.4319  -22.6196   17.3505 H         1 UNK         0.0697 
    123 H123      -47.4502  -23.2655   17.0064 H         1 UNK         0.0825 
    124 H124      -48.1413  -22.2896   18.2951 H         1 UNK         0.0825 
    125 H125      -48.2242  -21.7238   16.6358 H         1 UNK         0.0825 
    126 H126      -48.9794  -23.7067   15.1129 H         1 UNK         0.3029 
    127 H127      -51.5229  -25.5719   13.6734 H         1 UNK         0.0897 
    128 H128      -51.5099  -24.0183   11.7253 H         1 UNK         0.0792 
    129 H129      -50.9004  -22.7186   12.7483 H         1 UNK         0.0792 
    130 H130      -52.5021  -23.3811   13.0265 H         1 UNK         0.0792 
    131 H131      -49.1855  -24.5838   12.4496 H         1 UNK         0.3086 
    132 H132      -46.7410  -26.3673   13.9695 H         1 UNK         0.0583 
    133 H133      -46.4163  -28.3056   12.7100 H         1 UNK         0.1020 
    134 H134      -47.9347  -28.6121   13.4804 H         1 UNK         0.1020 
    135 H135      -49.9383  -29.6378   11.9726 H         1 UNK         0.0694 
    136 H136      -50.2582  -27.9269   12.1787 H         1 UNK         0.0694 
    137 H137      -47.2827  -25.9275   11.1434 H         1 UNK         0.2989 
    138 H138      -46.1852  -22.5877   11.1245 H         1 UNK         0.1055 
    139 H139      -44.0032  -23.8223   11.1096 H         1 UNK         0.0806 
    140 H140      -44.5046  -23.3868    9.4857 H         1 UNK         0.0806 
    141 H141      -44.6929  -25.0467   10.0532 H         1 UNK         0.0806 
    142 H142      -46.8083  -24.2122    8.9291 H         1 UNK         0.3061 
    143 H143      -49.9089  -24.7453    8.8638 H         1 UNK         0.0734 
    144 H144      -51.0395  -22.8510    7.6845 H         1 UNK         0.0832 
    145 H145      -51.0171  -22.6049    9.4194 H         1 UNK         0.0832 
    146 H146      -49.8943  -21.7152    8.4001 H         1 UNK         0.0832 
    147 H147      -48.0689  -23.0938    7.1703 H         1 UNK         0.3156 
    148 H148      -47.9585  -23.9514    4.8843 H         1 UNK         0.0589 
    149 H149      -45.8612  -25.7547    6.2502 H         1 UNK         0.0808 
    150 H150      -45.5697  -24.7744    4.8165 H         1 UNK         0.0808 
    151 H151      -45.9153  -23.9987    6.3500 H         1 UNK         0.0808 
    152 H152      -48.3162  -26.8246    5.0205 H         1 UNK         0.3098 
    153 H153      -49.1381  -27.1863    1.8574 H         1 UNK         0.0720 
    154 H154      -47.3396  -28.7153    1.0272 H         1 UNK         0.0791 
    155 H155      -46.1795  -27.9570    2.1181 H         1 UNK         0.0791 
    156 H156      -46.8939  -27.0332    0.8033 H         1 UNK         0.0791 
    157 H157      -47.7253  -28.9098    3.8348 H         1 UNK         0.3028 
@<TRIPOS>BOND
     1    1    2 1    
     2    1   82 1    
     3    1   83 1    
     4    1   84 1    
     5    2    3 2    
     6    2    4 am   BACKBONE|DICT|INTERRES
     7    4    5 1    
     8    4   85 1    
     9    5    6 1    
    10    5   80 1    
    11    5   86 1    
    12    6    7 1    
    13    6   87 1    
    14    6   88 1    
    15    7    8 1    
    16    8    9 1    
    17    8   89 1    
    18    8   90 1    
    19    9   10 ar   
    20    9   14 ar   
    21   10   11 ar   
    22   10   91 1    
    23   11   12 ar   
    24   11   58 1    
    25   12   13 ar   
    26   12   92 1    
    27   13   14 ar   
    28   13   15 1    
    29   14   93 1    
    30   15   16 1    
    31   15   94 1    
    32   15   95 1    
    33   16   17 1    
    34   17   18 1    
    35   17   96 1    
    36   17   97 1    
    37   18   19 1    
    38   18   22 1    
    39   18   98 1    
    40   19   20 am   BACKBONE|DICT|INTERRES
    41   19   21 2    
    42   20   99 1    
    43   20  100 1    
    44   22   23 am   BACKBONE|DICT|INTERRES
    45   22  101 1    
    46   23   24 2    
    47   23   25 1    
    48   25   26 1    
    49   25   27 1    
    50   25  102 1    
    51   26  103 1    
    52   26  104 1    
    53   26  105 1    
    54   27   28 am   BACKBONE|DICT|INTERRES
    55   27  106 1    
    56   28   29 2    
    57   28   30 1    
    58   30   31 1    
    59   30   32 1    
    60   30  107 1    
    61   31  108 1    
    62   31  109 1    
    63   31  110 1    
    64   32   33 am   BACKBONE|DICT|INTERRES
    65   32  111 1    
    66   33   34 2    
    67   33   35 1    
    68   35   36 1    
    69   35   37 1    
    70   35  112 1    
    71   36  113 1    
    72   36  114 1    
    73   36  115 1    
    74   37   38 am   BACKBONE|DICT|INTERRES
    75   37  116 1    
    76   38   39 2    
    77   38   40 1    
    78   40   41 1    
    79   40   42 1    
    80   40  117 1    
    81   41  118 1    
    82   41  119 1    
    83   41  120 1    
    84   42   43 am   BACKBONE|DICT|INTERRES
    85   42  121 1    
    86   43   44 2    
    87   43   45 1    
    88   45   46 1    
    89   45   47 1    
    90   45  122 1    
    91   46  123 1    
    92   46  124 1    
    93   46  125 1    
    94   47   48 am   BACKBONE|DICT|INTERRES
    95   47  126 1    
    96   48   49 2    
    97   48   50 1    
    98   50   51 1    
    99   50   52 1    
   100   50  127 1    
   101   51  128 1    
   102   51  129 1    
   103   51  130 1    
   104   52   53 am   BACKBONE|DICT|INTERRES
   105   52  131 1    
   106   53   54 2    
   107   53   55 1    
   108   55   56 1    
   109   55   59 1    
   110   55  132 1    
   111   56   57 1    
   112   56  133 1    
   113   56  134 1    
   114   57   58 1    
   115   58  135 1    
   116   58  136 1    
   117   59   60 am   BACKBONE|DICT|INTERRES
   118   59  137 1    
   119   60   61 2    
   120   60   62 1    
   121   62   63 1    
   122   62   64 1    
   123   62  138 1    
   124   63  139 1    
   125   63  140 1    
   126   63  141 1    
   127   64   65 am   BACKBONE|DICT|INTERRES
   128   64  142 1    
   129   65   66 2    
   130   65   67 1    
   131   67   68 1    
   132   67   69 1    
   133   67  143 1    
   134   68  144 1    
   135   68  145 1    
   136   68  146 1    
   137   69   70 am   BACKBONE|DICT|INTERRES
   138   69  147 1    
   139   70   71 2    
   140   70   72 1    
   141   72   73 1    
   142   72   74 1    
   143   72  148 1    
   144   73  149 1    
   145   73  150 1    
   146   73  151 1    
   147   74   75 am   BACKBONE|DICT|INTERRES
   148   74  152 1    
   149   75   76 2    
   150   75   77 1    
   151   77   78 1    
   152   77   79 1    
   153   77  153 1    
   154   78  154 1    
   155   78  155 1    
   156   78  156 1    
   157   79   80 am   BACKBONE|DICT|INTERRES
   158   79  157 1    
   159   80   81 2    
@<TRIPOS>SUBSTRUCTURE
     1 UNK         1 GROUP             0       ****    0 ROOT    
