@<TRIPOS>MOLECULE
3R207
157   159    1
SMALL
USER_CHARGES


@<TRIPOS>ATOM
      1 CA        -49.5101  -29.8793    2.9967 C.3       0 UNK        -0.1975 
      2 C         -49.7831  -28.3975    2.7856 C.2       0 UNK         0.4852 
      3 O         -49.5290  -27.8763    1.6992 O.2       0 UNK        -0.5216 
      4 N         -50.2952  -27.7146    3.8182 N.am      1 UNK        -0.4461 
      5 CA        -50.6072  -26.2787    3.8067 C.3       1 UNK         0.0864 
      6 C6        -51.6736  -25.9184    4.8735 C.3       14 UNK        -0.0898 
      7 S7        -51.1859  -26.3012    6.5939 S.3       14 UNK        -0.2598 
      8 C8        -52.2909  -27.6883    6.9904 C.3       14 UNK         0.0286 
      9 C9        -52.1891  -28.0831    8.4565 C.ar      14 UNK        -0.0844 
     10 C10       -51.2431  -29.0233    8.8778 C.ar      14 UNK        -0.0881 
     11 C11       -51.1927  -29.4302   10.2158 C.ar      14 UNK        -0.0643 
     12 C12       -52.1044  -28.8943   11.1300 C.ar      14 UNK        -0.0930 
     13 C13       -53.0354  -27.9323   10.7293 C.ar      14 UNK        -0.0827 
     14 C14       -53.0656  -27.5254    9.3911 C.ar      14 UNK        -0.1249 
     15 C15       -53.9772  -27.3192   11.7601 C.3       14 UNK         0.0141 
     16 S16       -55.7087  -27.2218   11.2013 S.3       14 UNK        -0.2313 
     17 C17       -56.1397  -28.9836   11.0066 C.3       14 UNK        -0.0915 
     18 CA        -57.2880  -29.4061   11.9549 C.3       13 UNK         0.0968 
     19 C         -57.8189  -30.8193   11.5912 C.2       13 UNK         0.5732 
     20 N         -58.7356  -30.9081   10.6371 N.am      13 UNK        -0.7310 
     21 O         -57.3868  -31.8344   12.1354 O.2       13 UNK        -0.5035 
     22 N         -56.8800  -29.3169   13.3619 N.am      13 UNK        -0.4233 
     23 C         -57.7182  -29.2841   14.4002 C.2       13 UNK         0.4989 
     24 O         -58.9428  -29.2153   14.2824 O.2       13 UNK        -0.4996 
     25 CA        -57.1151  -29.3284   15.8173 C.3       12 UNK         0.0216 
     26 CB        -57.1052  -30.7733   16.3545 C.3       12 UNK        -0.1964 
     27 N         -55.7960  -28.6965   15.9865 N.am      12 UNK        -0.4276 
     28 C         -54.6061  -29.0500   15.4832 C.2       12 UNK         0.5020 
     29 O         -54.4494  -29.9341   14.6390 O.2       12 UNK        -0.5489 
     30 CA        -53.3904  -28.2641   16.0086 C.3       11 UNK         0.0294 
     31 CB        -52.0807  -29.0564   15.8511 C.3       11 UNK        -0.2019 
     32 N         -53.2322  -26.9632   15.3586 N.am      11 UNK        -0.4493 
     33 C         -54.0363  -25.9033   15.5176 C.2       11 UNK         0.4932 
     34 O         -55.0621  -25.9170   16.2018 O.2       11 UNK        -0.5029 
     35 CA        -53.5689  -24.6032   14.8352 C.3       10 UNK         0.0280 
     36 CB        -54.5070  -23.4056   15.0932 C.3       10 UNK        -0.1976 
     37 N         -52.1832  -24.2786   15.1944 N.am      10 UNK        -0.4242 
     38 C         -51.6895  -24.0628   16.4252 C.2       10 UNK         0.5072 
     39 O         -52.3790  -23.9971   17.4440 O.2       10 UNK        -0.5224 
     40 CA        -50.1617  -23.9289   16.5673 C.3       9 UNK         0.0343 
     41 CB        -49.5845  -25.2020   17.2089 C.3       9 UNK        -0.2003 
     42 N         -49.4680  -23.6767   15.3018 N.am      9 UNK        -0.4272 
     43 C         -49.4689  -22.5034   14.6533 C.2       9 UNK         0.4988 
     44 O         -50.0090  -21.4836   15.0830 O.2       9 UNK        -0.5108 
     45 CA        -48.7754  -22.4675   13.2800 C.3       8 UNK         0.0248 
     46 CB        -47.2578  -22.2848   13.4403 C.3       8 UNK        -0.2001 
     47 N         -49.0416  -23.6570   12.4665 N.am      8 UNK        -0.4140 
     48 C         -50.2523  -24.0447   12.0384 C.2       8 UNK         0.5028 
     49 O         -51.2949  -23.4335   12.2707 O.2       8 UNK        -0.5428 
     50 CA        -50.3161  -25.3684   11.2664 C.3       7 UNK         0.0264 
     51 CB        -49.8300  -25.1987    9.8190 C.3       7 UNK        -0.1988 
     52 N         -49.5365  -26.4098   11.9305 N.am      7 UNK        -0.4454 
     53 C         -49.8922  -27.0154   13.0718 C.2       7 UNK         0.5027 
     54 O         -50.9399  -26.7785   13.6767 O.2       7 UNK        -0.5083 
     55 CA        -48.8925  -28.0365   13.6557 C.3       6 UNK         0.0844 
     56 C56       -49.1279  -29.4707   13.1167 C.3       14 UNK        -0.0967 
     57 S57       -48.6681  -29.7139   11.3604 S.3       14 UNK        -0.2604 
     58 C58       -50.1738  -30.4700   10.6629 C.3       14 UNK         0.0134 
     59 N         -47.4980  -27.6157   13.4952 N.am      6 UNK        -0.4116 
     60 C         -46.9487  -26.5344   14.0648 C.2       5 UNK         0.5034 
     61 O         -47.5483  -25.7787   14.8270 O.2       5 UNK        -0.5045 
     62 CA        -45.4988  -26.2083   13.6685 C.3       5 UNK         0.0224 
     63 CB        -44.5082  -27.0078   14.5296 C.3       5 UNK        -0.1978 
     64 N         -45.2189  -26.4398   12.2461 N.am      5 UNK        -0.4737 
     65 C         -45.8596  -25.8268   11.2424 C.2       4 UNK         0.5027 
     66 O         -46.7702  -25.0131   11.4127 O.2       4 UNK        -0.5211 
     67 CA        -45.4612  -26.2464    9.8205 C.3       4 UNK         0.0297 
     68 CB        -46.1617  -27.5609    9.4378 C.3       4 UNK        -0.1993 
     69 N         -45.8349  -25.2250    8.8463 N.am      4 UNK        -0.4486 
     70 C         -45.2146  -24.0573    8.6509 C.2       3 UNK         0.4961 
     71 O         -44.1673  -23.7383    9.2174 O.2       3 UNK        -0.5105 
     72 CA        -45.8738  -23.1023    7.6298 C.3       3 UNK         0.0299 
     73 CB        -45.0814  -21.7945    7.4440 C.3       3 UNK        -0.1972 
     74 N         -46.0753  -23.7284    6.3164 N.am      3 UNK        -0.4305 
     75 C         -47.0065  -24.6476    6.0289 C.2       2 UNK         0.5006 
     76 O         -47.8217  -25.0669    6.8543 O.2       2 UNK        -0.5106 
     77 CA        -46.9703  -25.2418    4.6116 C.3       2 UNK         0.0296 
     78 CB        -45.8008  -26.2325    4.4747 C.3       2 UNK        -0.2002 
     79 N         -48.2149  -25.9501    4.3161 N.am      2 UNK        -0.4032 
     80 C         -49.3551  -25.3747    3.9106 C.2       1 UNK         0.5000 
     81 O         -49.4478  -24.1802    3.6177 O.2       1 UNK        -0.5238 
     82 H82       -49.7823  -30.2062    4.0001 H         1 UNK         0.0889 
     83 H83       -48.4518  -30.0909    2.8463 H         1 UNK         0.0889 
     84 H84       -50.0809  -30.4709    2.2815 H         1 UNK         0.0889 
     85 H85       -50.4780  -28.1887    4.6907 H         1 UNK         0.3028 
     86 H86       -51.0496  -26.0521    2.8338 H         1 UNK         0.0864 
     87 H87       -51.9162  -24.8553    4.8212 H         1 UNK         0.0720 
     88 H88       -52.6059  -26.4345    4.6396 H         1 UNK         0.0720 
     89 H89       -52.0515  -28.5420    6.3552 H         1 UNK         0.0814 
     90 H90       -53.3195  -27.4101    6.7553 H         1 UNK         0.0814 
     91 H91       -50.5521  -29.4458    8.1613 H         1 UNK         0.1469 
     92 H92       -52.0812  -29.2133   12.1620 H         1 UNK         0.1381 
     93 H93       -53.7833  -26.7821    9.0724 H         1 UNK         0.1206 
     94 H94       -53.6270  -26.3130   11.9872 H         1 UNK         0.0813 
     95 H95       -53.9442  -27.8782   12.6956 H         1 UNK         0.0813 
     96 H96       -55.2602  -29.6096   11.1686 H         1 UNK         0.0638 
     97 H97       -56.4269  -29.1282    9.9635 H         1 UNK         0.0638 
     98 H98       -58.1137  -28.7061   11.8102 H         1 UNK         0.0568 
     99 H99       -59.0899  -30.0849   10.1753 H         1 UNK         0.3450 
    100 H100      -59.0841  -31.8174   10.3766 H         1 UNK         0.3450 
    101 H101      -55.8964  -29.4720   13.5652 H         1 UNK         0.2987 
    102 H102      -57.7915  -28.7513   16.4500 H         1 UNK         0.0766 
    103 H103      -56.4533  -31.4206   15.7667 H         1 UNK         0.0798 
    104 H104      -58.1052  -31.2081   16.3224 H         1 UNK         0.0798 
    105 H105      -56.7697  -30.8099   17.3909 H         1 UNK         0.0798 
    106 H106      -55.7993  -27.8452   16.5403 H         1 UNK         0.3198 
    107 H107      -53.5424  -28.0923   17.0765 H         1 UNK         0.0843 
    108 H108      -51.8547  -29.2457   14.8024 H         1 UNK         0.0831 
    109 H109      -52.1470  -30.0241   16.3500 H         1 UNK         0.0831 
    110 H110      -51.2364  -28.5220   16.2869 H         1 UNK         0.0831 
    111 H111      -52.4102  -26.8569   14.7648 H         1 UNK         0.3133 
    112 H112      -53.5687  -24.7930   13.7620 H         1 UNK         0.0566 
    113 H113      -55.5139  -23.6166   14.7311 H         1 UNK         0.0814 
    114 H114      -54.5874  -23.1706   16.1549 H         1 UNK         0.0814 
    115 H115      -54.1569  -22.5117   14.5770 H         1 UNK         0.0814 
    116 H116      -51.5258  -24.3025   14.4251 H         1 UNK         0.3091 
    117 H117      -49.9675  -23.0901   17.2390 H         1 UNK         0.0702 
    118 H118      -48.5123  -25.1081   17.3820 H         1 UNK         0.0785 
    119 H119      -49.7475  -26.0777   16.5789 H         1 UNK         0.0785 
    120 H120      -50.0513  -25.4026   18.1742 H         1 UNK         0.0785 
    121 H121      -48.9278  -24.4498   14.9210 H         1 UNK         0.2998 
    122 H122      -49.1667  -21.6063   12.7346 H         1 UNK         0.0697 
    123 H123      -46.8054  -23.1231   13.9707 H         1 UNK         0.0825 
    124 H124      -47.0306  -21.3795   14.0046 H         1 UNK         0.0825 
    125 H125      -46.7640  -22.1977   12.4721 H         1 UNK         0.0825 
    126 H126      -48.2326  -24.2104   12.1868 H         1 UNK         0.3029 
    127 H127      -51.3580  -25.6905   11.2356 H         1 UNK         0.0897 
    128 H128      -48.8116  -24.8147    9.7638 H         1 UNK         0.0792 
    129 H129      -50.4689  -24.5029    9.2740 H         1 UNK         0.0792 
    130 H130      -49.8566  -26.1473    9.2828 H         1 UNK         0.0792 
    131 H131      -48.6445  -26.6409   11.5188 H         1 UNK         0.3086 
    132 H132      -49.0849  -28.0654   14.7305 H         1 UNK         0.0583 
    133 H133      -48.5360  -30.1726   13.7062 H         1 UNK         0.1020 
    134 H134      -50.1613  -29.7739   13.2805 H         1 UNK         0.1020 
    135 H135      -49.8827  -31.0874    9.8117 H         1 UNK         0.0694 
    136 H136      -50.6207  -31.1543   11.3856 H         1 UNK         0.0694 
    137 H137      -46.9350  -28.1698   12.8669 H         1 UNK         0.2989 
    138 H138      -45.3414  -25.1457   13.8655 H         1 UNK         0.1055 
    139 H139      -44.6900  -26.8374   15.5919 H         1 UNK         0.0806 
    140 H140      -43.4785  -26.7111   14.3289 H         1 UNK         0.0806 
    141 H141      -44.5896  -28.0811   14.3533 H         1 UNK         0.0806 
    142 H142      -44.4876  -27.1019   12.0268 H         1 UNK         0.3061 
    143 H143      -44.3793  -26.3896    9.7828 H         1 UNK         0.0734 
    144 H144      -45.8780  -27.8832    8.4357 H         1 UNK         0.0832 
    145 H145      -45.8944  -28.3673   10.1218 H         1 UNK         0.0832 
    146 H146      -47.2482  -27.4617    9.4593 H         1 UNK         0.0832 
    147 H147      -46.6985  -25.3732    8.3294 H         1 UNK         0.3156 
    148 H148      -46.8526  -22.8366    8.0355 H         1 UNK         0.0589 
    149 H149      -44.0854  -21.9792    7.0396 H         1 UNK         0.0808 
    150 H150      -45.5968  -21.1098    6.7702 H         1 UNK         0.0808 
    151 H151      -44.9564  -21.2749    8.3950 H         1 UNK         0.0808 
    152 H152      -45.4151  -23.4720    5.5961 H         1 UNK         0.3098 
    153 H153      -46.8368  -24.4304    3.8929 H         1 UNK         0.0720 
    154 H154      -45.7702  -26.6732    3.4778 H         1 UNK         0.0791 
    155 H155      -45.8731  -27.0459    5.1983 H         1 UNK         0.0791 
    156 H156      -44.8420  -25.7384    4.6362 H         1 UNK         0.0791 
    157 H157      -48.2529  -26.9223    4.5817 H         1 UNK         0.3028 
@<TRIPOS>BOND
     1    1    2 1    
     2    1   82 1    
     3    1   83 1    
     4    1   84 1    
     5    2    3 2    
     6    2    4 am   BACKBONE|DICT|INTERRES
     7    4    5 1    
     8    4   85 1    
     9    5    6 1    
    10    5   80 1    
    11    5   86 1    
    12    6    7 1    
    13    6   87 1    
    14    6   88 1    
    15    7    8 1    
    16    8    9 1    
    17    8   89 1    
    18    8   90 1    
    19    9   10 ar   
    20    9   14 ar   
    21   10   11 ar   
    22   10   91 1    
    23   11   12 ar   
    24   11   58 1    
    25   12   13 ar   
    26   12   92 1    
    27   13   14 ar   
    28   13   15 1    
    29   14   93 1    
    30   15   16 1    
    31   15   94 1    
    32   15   95 1    
    33   16   17 1    
    34   17   18 1    
    35   17   96 1    
    36   17   97 1    
    37   18   19 1    
    38   18   22 1    
    39   18   98 1    
    40   19   20 am   BACKBONE|DICT|INTERRES
    41   19   21 2    
    42   20   99 1    
    43   20  100 1    
    44   22   23 am   BACKBONE|DICT|INTERRES
    45   22  101 1    
    46   23   24 2    
    47   23   25 1    
    48   25   26 1    
    49   25   27 1    
    50   25  102 1    
    51   26  103 1    
    52   26  104 1    
    53   26  105 1    
    54   27   28 am   BACKBONE|DICT|INTERRES
    55   27  106 1    
    56   28   29 2    
    57   28   30 1    
    58   30   31 1    
    59   30   32 1    
    60   30  107 1    
    61   31  108 1    
    62   31  109 1    
    63   31  110 1    
    64   32   33 am   BACKBONE|DICT|INTERRES
    65   32  111 1    
    66   33   34 2    
    67   33   35 1    
    68   35   36 1    
    69   35   37 1    
    70   35  112 1    
    71   36  113 1    
    72   36  114 1    
    73   36  115 1    
    74   37   38 am   BACKBONE|DICT|INTERRES
    75   37  116 1    
    76   38   39 2    
    77   38   40 1    
    78   40   41 1    
    79   40   42 1    
    80   40  117 1    
    81   41  118 1    
    82   41  119 1    
    83   41  120 1    
    84   42   43 am   BACKBONE|DICT|INTERRES
    85   42  121 1    
    86   43   44 2    
    87   43   45 1    
    88   45   46 1    
    89   45   47 1    
    90   45  122 1    
    91   46  123 1    
    92   46  124 1    
    93   46  125 1    
    94   47   48 am   BACKBONE|DICT|INTERRES
    95   47  126 1    
    96   48   49 2    
    97   48   50 1    
    98   50   51 1    
    99   50   52 1    
   100   50  127 1    
   101   51  128 1    
   102   51  129 1    
   103   51  130 1    
   104   52   53 am   BACKBONE|DICT|INTERRES
   105   52  131 1    
   106   53   54 2    
   107   53   55 1    
   108   55   56 1    
   109   55   59 1    
   110   55  132 1    
   111   56   57 1    
   112   56  133 1    
   113   56  134 1    
   114   57   58 1    
   115   58  135 1    
   116   58  136 1    
   117   59   60 am   BACKBONE|DICT|INTERRES
   118   59  137 1    
   119   60   61 2    
   120   60   62 1    
   121   62   63 1    
   122   62   64 1    
   123   62  138 1    
   124   63  139 1    
   125   63  140 1    
   126   63  141 1    
   127   64   65 am   BACKBONE|DICT|INTERRES
   128   64  142 1    
   129   65   66 2    
   130   65   67 1    
   131   67   68 1    
   132   67   69 1    
   133   67  143 1    
   134   68  144 1    
   135   68  145 1    
   136   68  146 1    
   137   69   70 am   BACKBONE|DICT|INTERRES
   138   69  147 1    
   139   70   71 2    
   140   70   72 1    
   141   72   73 1    
   142   72   74 1    
   143   72  148 1    
   144   73  149 1    
   145   73  150 1    
   146   73  151 1    
   147   74   75 am   BACKBONE|DICT|INTERRES
   148   74  152 1    
   149   75   76 2    
   150   75   77 1    
   151   77   78 1    
   152   77   79 1    
   153   77  153 1    
   154   78  154 1    
   155   78  155 1    
   156   78  156 1    
   157   79   80 am   BACKBONE|DICT|INTERRES
   158   79  157 1    
   159   80   81 2    
@<TRIPOS>SUBSTRUCTURE
     1 UNK         1 GROUP             0       ****    0 ROOT    
