@<TRIPOS>MOLECULE
3R207
157   159    1
SMALL
USER_CHARGES


@<TRIPOS>ATOM
      1 CA        -51.1493  -28.0234    9.4711 C.3       0 UNK        -0.1975 
      2 C         -50.2536  -29.2211    9.1599 C.2       0 UNK         0.4852 
      3 O         -49.9770  -30.0070   10.0641 O.2       0 UNK        -0.5216 
      4 N         -49.7739  -29.4399    7.9257 N.am      1 UNK        -0.4461 
      5 CA        -49.8774  -28.6492    6.6879 C.3       1 UNK         0.0864 
      6 C6        -51.3063  -28.2076    6.2795 C.3       14 UNK        -0.0898 
      7 S7        -52.5523  -29.5434    6.3244 S.3       14 UNK        -0.2598 
      8 C8        -54.0742  -28.6560    5.8451 C.3       14 UNK         0.0286 
      9 C9        -54.2939  -27.4027    6.6810 C.ar      14 UNK        -0.0844 
     10 C10       -53.8917  -26.1591    6.1863 C.ar      14 UNK        -0.0881 
     11 C11       -54.0038  -25.0109    6.9721 C.ar      14 UNK        -0.0643 
     12 C12       -54.5579  -25.1065    8.2525 C.ar      14 UNK        -0.0930 
     13 C13       -54.9876  -26.3415    8.7510 C.ar      14 UNK        -0.0827 
     14 C14       -54.8553  -27.4868    7.9582 C.ar      14 UNK        -0.1249 
     15 C15       -55.6022  -26.4297   10.1410 C.3       14 UNK         0.0141 
     16 S16       -54.5461  -27.3550   11.3014 S.3       14 UNK        -0.2313 
     17 C17       -55.4915  -28.9109   11.4462 C.3       14 UNK        -0.0915 
     18 CA        -54.7126  -30.0704   12.1222 C.3       13 UNK         0.0968 
     19 C         -53.5468  -30.6059   11.2375 C.2       13 UNK         0.5732 
     20 N         -52.3413  -30.7977   11.7583 N.am      13 UNK        -0.7310 
     21 O         -53.7432  -30.8598   10.0519 O.2       13 UNK        -0.5035 
     22 N         -54.3227  -29.7178   13.4955 N.am      13 UNK        -0.4233 
     23 C         -54.2517  -30.5719   14.5231 C.2       13 UNK         0.4989 
     24 O         -54.6160  -31.7480   14.4650 O.2       13 UNK        -0.4996 
     25 CA        -53.6427  -30.0082   15.8242 C.3       12 UNK         0.0216 
     26 CB        -53.3581  -31.0972   16.8805 C.3       12 UNK        -0.1964 
     27 N         -52.4400  -29.1973   15.5819 N.am      12 UNK        -0.4276 
     28 C         -51.3197  -29.5895   14.9533 C.2       12 UNK         0.5020 
     29 O         -51.1529  -30.7188   14.4925 O.2       12 UNK        -0.5489 
     30 CA        -50.2087  -28.5474   14.7544 C.3       11 UNK         0.0294 
     31 CB        -50.3348  -27.9030   13.3646 C.3       11 UNK        -0.2019 
     32 N         -50.1856  -27.4955   15.7705 N.am      11 UNK        -0.4493 
     33 C         -49.7924  -27.6613   17.0411 C.2       11 UNK         0.4932 
     34 O         -49.4641  -28.7456   17.5229 O.2       11 UNK        -0.5029 
     35 CA        -49.7429  -26.4022   17.9189 C.3       10 UNK         0.0280 
     36 CB        -48.4539  -25.6092   17.6448 C.3       10 UNK        -0.1976 
     37 N         -50.8994  -25.5427   17.6681 N.am      10 UNK        -0.4242 
     38 C         -51.9826  -25.4683   18.4530 C.2       10 UNK         0.5072 
     39 O         -52.0978  -26.0648   19.5248 O.2       10 UNK        -0.5224 
     40 CA        -53.1451  -24.5792   17.9689 C.3       9 UNK         0.0343 
     41 CB        -53.0436  -23.1776   18.5922 C.3       9 UNK        -0.2003 
     42 N         -53.2350  -24.4516   16.5113 N.am      9 UNK        -0.4272 
     43 C         -53.4813  -25.4642   15.6688 C.2       9 UNK         0.4988 
     44 O         -53.6759  -26.6257   16.0263 O.2       9 UNK        -0.5108 
     45 CA        -53.4649  -25.1426   14.1664 C.3       8 UNK         0.0248 
     46 CB        -54.8494  -24.6515   13.7157 C.3       8 UNK        -0.2001 
     47 N         -52.4466  -24.1815   13.7254 N.am      8 UNK        -0.4140 
     48 C         -51.1415  -24.1790   14.0281 C.2       8 UNK         0.5028 
     49 O         -50.6292  -24.9312   14.8585 O.2       8 UNK        -0.5428 
     50 CA        -50.2644  -23.1805   13.2509 C.3       7 UNK         0.0264 
     51 CB        -48.8365  -23.0953   13.8211 C.3       7 UNK        -0.1988 
     52 N         -50.1936  -23.5180   11.8239 N.am      7 UNK        -0.4454 
     53 C         -51.1733  -23.2890   10.9319 C.2       7 UNK         0.5027 
     54 O         -52.2507  -22.7819   11.2550 O.2       7 UNK        -0.5083 
     55 CA        -50.9375  -23.6889    9.4512 C.3       6 UNK         0.0844 
     56 C56       -51.7799  -22.8151    8.4777 C.3       14 UNK        -0.0967 
     57 S57       -51.7448  -23.4176    6.7552 S.3       14 UNK        -0.2604 
     58 C58       -53.5189  -23.6769    6.4248 C.3       14 UNK         0.0134 
     59 N         -49.5117  -23.7462    9.0966 N.am      6 UNK        -0.4116 
     60 C         -48.6505  -22.7160    9.1065 C.2       5 UNK         0.5034 
     61 O         -48.9800  -21.5528    9.3454 O.2       5 UNK        -0.5045 
     62 CA        -47.1667  -23.0351    8.8269 C.3       5 UNK         0.0224 
     63 CB        -46.2161  -22.0468    9.5355 C.3       5 UNK        -0.1978 
     64 N         -46.7635  -24.4160    9.1301 N.am      5 UNK        -0.4737 
     65 C         -46.8772  -25.0703   10.2982 C.2       4 UNK         0.5027 
     66 O         -47.4325  -24.5935   11.2875 O.2       4 UNK        -0.5211 
     67 CA        -46.3154  -26.5029   10.3738 C.3       4 UNK         0.0297 
     68 CB        -47.3310  -27.4588   11.0222 C.3       4 UNK        -0.1993 
     69 N         -45.9643  -27.0133    9.0472 N.am      4 UNK        -0.4486 
     70 C         -44.7190  -27.1148    8.5604 C.2       3 UNK         0.4961 
     71 O         -43.7055  -26.8713    9.2155 O.2       3 UNK        -0.5105 
     72 CA        -44.5674  -27.5387    7.0849 C.3       3 UNK         0.0299 
     73 CB        -44.2546  -29.0407    6.9904 C.3       3 UNK        -0.1972 
     74 N         -45.7400  -27.2391    6.2566 N.am      3 UNK        -0.4305 
     75 C         -46.2091  -26.0093    5.9974 C.2       2 UNK         0.5006 
     76 O         -45.6561  -24.9756    6.3716 O.2       2 UNK        -0.5106 
     77 CA        -47.5579  -25.9120    5.2604 C.3       2 UNK         0.0296 
     78 CB        -47.3338  -25.7343    3.7504 C.3       2 UNK        -0.2002 
     79 N         -48.4588  -27.0496    5.4915 N.am      2 UNK        -0.4032 
     80 C         -48.9135  -27.4448    6.6906 C.2       1 UNK         0.5000 
     81 O         -48.5909  -26.8983    7.7497 O.2       1 UNK        -0.5238 
     82 H82       -52.1581  -28.1997    9.0985 H         1 UNK         0.0889 
     83 H83       -50.7689  -27.1004    9.0414 H         1 UNK         0.0889 
     84 H84       -51.2252  -27.8729   10.5465 H         1 UNK         0.0889 
     85 H85       -49.1959  -30.2612    7.8209 H         1 UNK         0.3028 
     86 H86       -49.5218  -29.3271    5.9101 H         1 UNK         0.0864 
     87 H87       -51.6353  -27.3885    6.9161 H         1 UNK         0.0720 
     88 H88       -51.2977  -27.8041    5.2653 H         1 UNK         0.0720 
     89 H89       -54.9269  -29.3274    5.9560 H         1 UNK         0.0814 
     90 H90       -54.0212  -28.4034    4.7850 H         1 UNK         0.0814 
     91 H91       -53.4514  -26.0894    5.2009 H         1 UNK         0.1469 
     92 H92       -54.6553  -24.2191    8.8621 H         1 UNK         0.1381 
     93 H93       -55.1627  -28.4488    8.3438 H         1 UNK         0.1206 
     94 H94       -55.7659  -25.4315   10.5487 H         1 UNK         0.0813 
     95 H95       -56.5897  -26.8880   10.0731 H         1 UNK         0.0813 
     96 H96       -55.8385  -29.2153   10.4577 H         1 UNK         0.0638 
     97 H97       -56.3948  -28.6987   12.0202 H         1 UNK         0.0638 
     98 H98       -55.4123  -30.9058   12.1829 H         1 UNK         0.0568 
     99 H99       -51.5828  -31.0572   11.1435 H         1 UNK         0.3450 
    100 H100      -52.1568  -30.6737   12.7462 H         1 UNK         0.3450 
    101 H101      -53.9935  -28.7729   13.6239 H         1 UNK         0.2987 
    102 H102      -54.3905  -29.3323   16.2417 H         1 UNK         0.0766 
    103 H103      -54.2711  -31.6291   17.1506 H         1 UNK         0.0798 
    104 H104      -52.9530  -30.6644   17.7953 H         1 UNK         0.0798 
    105 H105      -52.6452  -31.8378   16.5165 H         1 UNK         0.0798 
    106 H106      -52.5168  -28.2266   15.8737 H         1 UNK         0.3198 
    107 H107      -49.2525  -29.0733   14.7994 H         1 UNK         0.0843 
    108 H108      -51.3102  -27.4391   13.2179 H         1 UNK         0.0831 
    109 H109      -50.2061  -28.6518   12.5820 H         1 UNK         0.0831 
    110 H110      -49.5769  -27.1357   13.2091 H         1 UNK         0.0831 
    111 H111      -50.3903  -26.5500   15.4447 H         1 UNK         0.3133 
    112 H112      -49.7251  -26.7206   18.9633 H         1 UNK         0.0566 
    113 H113      -48.3786  -24.7405   18.2989 H         1 UNK         0.0814 
    114 H114      -48.4048  -25.2558   16.6137 H         1 UNK         0.0814 
    115 H115      -47.5715  -26.2256   17.8214 H         1 UNK         0.0814 
    116 H116      -50.9102  -25.0582   16.7750 H         1 UNK         0.3091 
    117 H117      -54.0719  -25.0411   18.3160 H         1 UNK         0.0702 
    118 H118      -53.9076  -22.5645   18.3351 H         1 UNK         0.0785 
    119 H119      -52.1465  -22.6526   18.2612 H         1 UNK         0.0785 
    120 H120      -53.0034  -23.2368   19.6809 H         1 UNK         0.0785 
    121 H121      -53.0738  -23.5345   16.1212 H         1 UNK         0.2998 
    122 H122      -53.2505  -26.0763   13.6461 H         1 UNK         0.0697 
    123 H123      -55.1240  -23.7141   14.2010 H         1 UNK         0.0825 
    124 H124      -55.6214  -25.3843   13.9554 H         1 UNK         0.0825 
    125 H125      -54.8817  -24.4903   12.6385 H         1 UNK         0.0825 
    126 H126      -52.7270  -23.5459   12.9837 H         1 UNK         0.3029 
    127 H127      -50.7198  -22.1933   13.3556 H         1 UNK         0.0897 
    128 H128      -48.3247  -24.0576   13.7736 H         1 UNK         0.0792 
    129 H129      -48.8512  -22.7872   14.8673 H         1 UNK         0.0792 
    130 H130      -48.2330  -22.3697   13.2755 H         1 UNK         0.0792 
    131 H131      -49.3232  -23.9403   11.5109 H         1 UNK         0.3086 
    132 H132      -51.3065  -24.7123    9.3717 H         1 UNK         0.0583 
    133 H133      -52.8184  -22.7692    8.8057 H         1 UNK         0.1020 
    134 H134      -51.4339  -21.7807    8.4866 H         1 UNK         0.1020 
    135 H135      -54.1053  -22.8533    6.8351 H         1 UNK         0.0694 
    136 H136      -53.6776  -23.6461    5.3457 H         1 UNK         0.0694 
    137 H137      -49.1458  -24.6633    8.8764 H         1 UNK         0.2989 
    138 H138      -47.0347  -22.9084    7.7511 H         1 UNK         0.1055 
    139 H139      -46.3379  -22.0790   10.6189 H         1 UNK         0.0806 
    140 H140      -46.4025  -21.0206    9.2166 H         1 UNK         0.0806 
    141 H141      -45.1732  -22.2679    9.3082 H         1 UNK         0.0806 
    142 H142      -46.3046  -24.8970    8.3644 H         1 UNK         0.3061 
    143 H143      -45.4306  -26.4667   11.0123 H         1 UNK         0.0734 
    144 H144      -48.2932  -27.4305   10.5111 H         1 UNK         0.0832 
    145 H145      -46.9758  -28.4892   11.0134 H         1 UNK         0.0832 
    146 H146      -47.5051  -27.1873   12.0635 H         1 UNK         0.0832 
    147 H147      -46.7545  -27.1906    8.4334 H         1 UNK         0.3156 
    148 H148      -43.7208  -26.9861    6.6721 H         1 UNK         0.0589 
    149 H149      -45.0752  -29.6497    7.3720 H         1 UNK         0.0808 
    150 H150      -43.3662  -29.2912    7.5722 H         1 UNK         0.0808 
    151 H151      -44.0598  -29.3430    5.9612 H         1 UNK         0.0808 
    152 H152      -46.2550  -28.0300    5.8989 H         1 UNK         0.3098 
    153 H153      -48.0636  -25.0199    5.6366 H         1 UNK         0.0720 
    154 H154      -46.6867  -24.8790    3.5498 H         1 UNK         0.0791 
    155 H155      -48.2735  -25.5546    3.2276 H         1 UNK         0.0791 
    156 H156      -46.8622  -26.6112    3.3049 H         1 UNK         0.0791 
    157 H157      -48.7691  -27.5446    4.6672 H         1 UNK         0.3028 
@<TRIPOS>BOND
     1    1    2 1    
     2    1   82 1    
     3    1   83 1    
     4    1   84 1    
     5    2    3 2    
     6    2    4 am   BACKBONE|DICT|INTERRES
     7    4    5 1    
     8    4   85 1    
     9    5    6 1    
    10    5   80 1    
    11    5   86 1    
    12    6    7 1    
    13    6   87 1    
    14    6   88 1    
    15    7    8 1    
    16    8    9 1    
    17    8   89 1    
    18    8   90 1    
    19    9   10 ar   
    20    9   14 ar   
    21   10   11 ar   
    22   10   91 1    
    23   11   12 ar   
    24   11   58 1    
    25   12   13 ar   
    26   12   92 1    
    27   13   14 ar   
    28   13   15 1    
    29   14   93 1    
    30   15   16 1    
    31   15   94 1    
    32   15   95 1    
    33   16   17 1    
    34   17   18 1    
    35   17   96 1    
    36   17   97 1    
    37   18   19 1    
    38   18   22 1    
    39   18   98 1    
    40   19   20 am   BACKBONE|DICT|INTERRES
    41   19   21 2    
    42   20   99 1    
    43   20  100 1    
    44   22   23 am   BACKBONE|DICT|INTERRES
    45   22  101 1    
    46   23   24 2    
    47   23   25 1    
    48   25   26 1    
    49   25   27 1    
    50   25  102 1    
    51   26  103 1    
    52   26  104 1    
    53   26  105 1    
    54   27   28 am   BACKBONE|DICT|INTERRES
    55   27  106 1    
    56   28   29 2    
    57   28   30 1    
    58   30   31 1    
    59   30   32 1    
    60   30  107 1    
    61   31  108 1    
    62   31  109 1    
    63   31  110 1    
    64   32   33 am   BACKBONE|DICT|INTERRES
    65   32  111 1    
    66   33   34 2    
    67   33   35 1    
    68   35   36 1    
    69   35   37 1    
    70   35  112 1    
    71   36  113 1    
    72   36  114 1    
    73   36  115 1    
    74   37   38 am   BACKBONE|DICT|INTERRES
    75   37  116 1    
    76   38   39 2    
    77   38   40 1    
    78   40   41 1    
    79   40   42 1    
    80   40  117 1    
    81   41  118 1    
    82   41  119 1    
    83   41  120 1    
    84   42   43 am   BACKBONE|DICT|INTERRES
    85   42  121 1    
    86   43   44 2    
    87   43   45 1    
    88   45   46 1    
    89   45   47 1    
    90   45  122 1    
    91   46  123 1    
    92   46  124 1    
    93   46  125 1    
    94   47   48 am   BACKBONE|DICT|INTERRES
    95   47  126 1    
    96   48   49 2    
    97   48   50 1    
    98   50   51 1    
    99   50   52 1    
   100   50  127 1    
   101   51  128 1    
   102   51  129 1    
   103   51  130 1    
   104   52   53 am   BACKBONE|DICT|INTERRES
   105   52  131 1    
   106   53   54 2    
   107   53   55 1    
   108   55   56 1    
   109   55   59 1    
   110   55  132 1    
   111   56   57 1    
   112   56  133 1    
   113   56  134 1    
   114   57   58 1    
   115   58  135 1    
   116   58  136 1    
   117   59   60 am   BACKBONE|DICT|INTERRES
   118   59  137 1    
   119   60   61 2    
   120   60   62 1    
   121   62   63 1    
   122   62   64 1    
   123   62  138 1    
   124   63  139 1    
   125   63  140 1    
   126   63  141 1    
   127   64   65 am   BACKBONE|DICT|INTERRES
   128   64  142 1    
   129   65   66 2    
   130   65   67 1    
   131   67   68 1    
   132   67   69 1    
   133   67  143 1    
   134   68  144 1    
   135   68  145 1    
   136   68  146 1    
   137   69   70 am   BACKBONE|DICT|INTERRES
   138   69  147 1    
   139   70   71 2    
   140   70   72 1    
   141   72   73 1    
   142   72   74 1    
   143   72  148 1    
   144   73  149 1    
   145   73  150 1    
   146   73  151 1    
   147   74   75 am   BACKBONE|DICT|INTERRES
   148   74  152 1    
   149   75   76 2    
   150   75   77 1    
   151   77   78 1    
   152   77   79 1    
   153   77  153 1    
   154   78  154 1    
   155   78  155 1    
   156   78  156 1    
   157   79   80 am   BACKBONE|DICT|INTERRES
   158   79  157 1    
   159   80   81 2    
@<TRIPOS>SUBSTRUCTURE
     1 UNK         1 GROUP             0       ****    0 ROOT    
