@<TRIPOS>MOLECULE
3R207
157   159    1
SMALL
USER_CHARGES


@<TRIPOS>ATOM
      1 CA        -48.8885  -27.0001   10.9401 C.3       0 UNK        -0.1975 
      2 C         -48.3600  -27.3497    9.5606 C.2       0 UNK         0.4852 
      3 O         -48.6632  -26.6403    8.6011 O.2       0 UNK        -0.5216 
      4 N         -47.5618  -28.4234    9.4735 N.am      1 UNK        -0.4461 
      5 CA        -46.9491  -28.9659    8.2528 C.3       1 UNK         0.0864 
      6 C6        -47.9805  -29.5942    7.2775 C.3       14 UNK        -0.0898 
      7 S7        -48.7367  -31.0807    8.0140 S.3       14 UNK        -0.2598 
      8 C8        -50.3989  -31.0652    7.2756 C.3       14 UNK         0.0286 
      9 C9        -51.3319  -30.0512    7.9253 C.ar      14 UNK        -0.0844 
     10 C10       -51.9454  -29.0634    7.1493 C.ar      14 UNK        -0.0881 
     11 C11       -52.8754  -28.1898    7.7196 C.ar      14 UNK        -0.0643 
     12 C12       -53.1823  -28.3029    9.0775 C.ar      14 UNK        -0.0930 
     13 C13       -52.5498  -29.2609    9.8765 C.ar      14 UNK        -0.0827 
     14 C14       -51.6323  -30.1379    9.2892 C.ar      14 UNK        -0.1249 
     15 C15       -52.8753  -29.3825   11.3613 C.3       14 UNK         0.0141 
     16 S16       -52.6738  -27.8086   12.2570 S.3       14 UNK        -0.2313 
     17 C17       -54.4076  -27.2834   12.4452 C.3       14 UNK        -0.0915 
     18 CA        -54.5412  -26.0240   13.3356 C.3       13 UNK         0.0968 
     19 C         -55.9174  -25.3432   13.1086 C.2       13 UNK         0.5732 
     20 N         -55.9702  -24.3575   12.2228 N.am      13 UNK        -0.7310 
     21 O         -56.9326  -25.7348   13.6805 O.2       13 UNK        -0.5035 
     22 N         -54.2361  -26.3156   14.7431 N.am      13 UNK        -0.4233 
     23 C         -54.2592  -25.4365   15.7538 C.2       13 UNK         0.4989 
     24 O         -54.4691  -24.2307   15.6102 O.2       13 UNK        -0.4996 
     25 CA        -53.9455  -25.9938   17.1569 C.3       12 UNK         0.0216 
     26 CB        -54.3461  -25.0372   18.3007 C.3       12 UNK        -0.1964 
     27 N         -54.4780  -27.3453   17.3700 N.am      12 UNK        -0.4276 
     28 C         -55.7613  -27.7298   17.4242 C.2       12 UNK         0.5020 
     29 O         -56.7125  -26.9485   17.3725 O.2       12 UNK        -0.5489 
     30 CA        -56.0251  -29.2474   17.5411 C.3       11 UNK         0.0294 
     31 CB        -57.4639  -29.6252   17.1402 C.3       11 UNK        -0.2019 
     32 N         -55.0902  -30.0301   16.7265 N.am      11 UNK        -0.4493 
     33 C         -53.9038  -30.5002   17.1329 C.2       11 UNK         0.4932 
     34 O         -53.4768  -30.3654   18.2802 O.2       11 UNK        -0.5029 
     35 CA        -53.0134  -31.1940   16.0793 C.3       10 UNK         0.0280 
     36 CB        -53.6869  -31.3710   14.6970 C.3       10 UNK        -0.1976 
     37 N         -51.7214  -30.5107   15.9238 N.am      10 UNK        -0.4242 
     38 C         -51.5409  -29.2160   15.6232 C.2       10 UNK         0.5072 
     39 O         -52.4680  -28.4204   15.4613 O.2       10 UNK        -0.5224 
     40 CA        -50.0854  -28.7472   15.4462 C.3       9 UNK         0.0343 
     41 CB        -49.5193  -29.2282   14.0995 C.3       9 UNK        -0.2003 
     42 N         -49.9659  -27.2885   15.5095 N.am      9 UNK        -0.4272 
     43 C         -50.0974  -26.5496   16.6159 C.2       9 UNK         0.4988 
     44 O         -50.2616  -27.0319   17.7373 O.2       9 UNK        -0.5108 
     45 CA        -50.0413  -25.0145   16.4736 C.3       8 UNK         0.0248 
     46 CB        -48.5839  -24.5165   16.5356 C.3       8 UNK        -0.2001 
     47 N         -50.7510  -24.4363   15.3182 N.am      8 UNK        -0.4140 
     48 C         -50.4817  -24.5768   14.0129 C.2       8 UNK         0.5028 
     49 O         -49.6008  -25.3129   13.5621 O.2       8 UNK        -0.5428 
     50 CA        -51.3132  -23.7221   13.0485 C.3       7 UNK         0.0264 
     51 CB        -50.7782  -22.2806   12.9950 C.3       7 UNK        -0.1988 
     52 N         -51.2314  -24.3073   11.7133 N.am      7 UNK        -0.4454 
     53 C         -52.2017  -24.3151   10.7913 C.2       7 UNK         0.5027 
     54 O         -53.3246  -23.8390   10.9803 O.2       7 UNK        -0.5083 
     55 CA        -51.8396  -24.9415    9.4230 C.3       6 UNK         0.0844 
     56 C56       -52.9927  -24.8141    8.3885 C.3       14 UNK        -0.0967 
     57 S57       -52.6132  -25.5975    6.7807 S.3       14 UNK        -0.2604 
     58 C58       -53.5683  -27.1430    6.8612 C.3       14 UNK         0.0134 
     59 N         -50.5542  -24.4430    8.9156 N.am      6 UNK        -0.4116 
     60 C         -50.2328  -23.1640    8.6652 C.2       5 UNK         0.5034 
     61 O         -50.9736  -22.2031    8.8771 O.2       5 UNK        -0.5045 
     62 CA        -48.8400  -22.9079    8.0670 C.3       5 UNK         0.0224 
     63 CB        -47.7980  -22.7570    9.1872 C.3       5 UNK        -0.1978 
     64 N         -48.4082  -23.9526    7.1352 N.am      5 UNK        -0.4737 
     65 C         -48.9959  -24.2230    5.9607 C.2       4 UNK         0.5027 
     66 O         -49.9325  -23.5677    5.5003 O.2       4 UNK        -0.5211 
     67 CA        -48.4058  -25.4038    5.1619 C.3       4 UNK         0.0297 
     68 CB        -49.0403  -25.5715    3.7657 C.3       4 UNK        -0.1993 
     69 N         -46.9426  -25.3365    5.0668 N.am      4 UNK        -0.4486 
     70 C         -46.2047  -24.3169    4.5942 C.2       3 UNK         0.4961 
     71 O         -46.6818  -23.3273    4.0362 O.2       3 UNK        -0.5105 
     72 CA        -44.6725  -24.4086    4.7752 C.3       3 UNK         0.0299 
     73 CB        -44.0219  -23.0207    4.9599 C.3       3 UNK        -0.1972 
     74 N         -44.2449  -25.3204    5.8454 N.am      3 UNK        -0.4305 
     75 C         -44.5607  -25.2540    7.1478 C.2       2 UNK         0.5006 
     76 O         -45.2576  -24.3753    7.6565 O.2       2 UNK        -0.5106 
     77 CA        -44.0564  -26.4151    8.0189 C.3       2 UNK         0.0296 
     78 CB        -43.3605  -25.8924    9.2876 C.3       2 UNK        -0.2002 
     79 N         -45.1314  -27.3345    8.4046 N.am      2 UNK        -0.4032 
     80 C         -45.9841  -27.9650    7.5801 C.2       1 UNK         0.5000 
     81 O         -46.0081  -27.8006    6.3573 O.2       1 UNK        -0.5238 
     82 H82       -48.6740  -25.9556   11.1611 H         1 UNK         0.0889 
     83 H83       -48.4287  -27.6055   11.7203 H         1 UNK         0.0889 
     84 H84       -49.9658  -27.1548   10.9817 H         1 UNK         0.0889 
     85 H85       -47.3733  -28.9551   10.3117 H         1 UNK         0.3028 
     86 H86       -46.2969  -29.7748    8.5869 H         1 UNK         0.0864 
     87 H87       -48.7508  -28.8703    7.0062 H         1 UNK         0.0720 
     88 H88       -47.5060  -29.9063    6.3455 H         1 UNK         0.0720 
     89 H89       -50.3118  -30.8925    6.2017 H         1 UNK         0.0814 
     90 H90       -50.8370  -32.0577    7.3885 H         1 UNK         0.0814 
     91 H91       -51.7191  -28.9862    6.0946 H         1 UNK         0.1469 
     92 H92       -53.9093  -27.6340    9.5108 H         1 UNK         0.1381 
     93 H93       -51.1573  -30.9024    9.8889 H         1 UNK         0.1206 
     94 H94       -52.2218  -30.1170   11.8345 H         1 UNK         0.0813 
     95 H95       -53.8908  -29.7621   11.4782 H         1 UNK         0.0813 
     96 H96       -54.9935  -28.1055   12.8601 H         1 UNK         0.0638 
     97 H97       -54.8065  -27.0930   11.4486 H         1 UNK         0.0638 
     98 H98       -53.7817  -25.3168   13.0201 H         1 UNK         0.0568 
     99 H99       -55.1283  -24.0549   11.7415 H         1 UNK         0.3450 
    100 H100      -56.8503  -23.9044   12.0359 H         1 UNK         0.3450 
    101 H101      -53.9066  -27.2559   14.9415 H         1 UNK         0.2987 
    102 H102      -52.8630  -26.0999   17.1956 H         1 UNK         0.0766 
    103 H103      -53.8171  -24.0870   18.2180 H         1 UNK         0.0798 
    104 H104      -54.1004  -25.4590   19.2752 H         1 UNK         0.0798 
    105 H105      -55.4133  -24.8145   18.2894 H         1 UNK         0.0798 
    106 H106      -53.7807  -28.0802   17.3624 H         1 UNK         0.3198 
    107 H107      -55.8959  -29.5094   18.5936 H         1 UNK         0.0843 
    108 H108      -57.6829  -29.3426   16.1097 H         1 UNK         0.0831 
    109 H109      -58.1933  -29.1238   17.7779 H         1 UNK         0.0831 
    110 H110      -57.6359  -30.6971   17.2396 H         1 UNK         0.0831 
    111 H111      -55.3357  -30.1482   15.7540 H         1 UNK         0.3133 
    112 H112      -52.7956  -32.1883   16.4715 H         1 UNK         0.0566 
    113 H113      -53.0342  -31.9162   14.0151 H         1 UNK         0.0814 
    114 H114      -53.9218  -30.4161   14.2246 H         1 UNK         0.0814 
    115 H115      -54.6107  -31.9459   14.7747 H         1 UNK         0.0814 
    116 H116      -50.9036  -31.0847   16.0743 H         1 UNK         0.3091 
    117 H117      -49.4875  -29.1759   16.2530 H         1 UNK         0.0702 
    118 H118      -48.4754  -28.9366   13.9838 H         1 UNK         0.0785 
    119 H119      -50.0769  -28.8147   13.2592 H         1 UNK         0.0785 
    120 H120      -49.5619  -30.3147   14.0148 H         1 UNK         0.0785 
    121 H121      -49.8425  -26.7892   14.6315 H         1 UNK         0.2998 
    122 H122      -50.5536  -24.6125   17.3494 H         1 UNK         0.0697 
    123 H123      -47.9945  -24.8741   15.6906 H         1 UNK         0.0825 
    124 H124      -48.0911  -24.8660   17.4438 H         1 UNK         0.0825 
    125 H125      -48.5363  -23.4276   16.5403 H         1 UNK         0.0825 
    126 H126      -51.5111  -23.8168   15.5646 H         1 UNK         0.3029 
    127 H127      -52.3460  -23.7031   13.3980 H         1 UNK         0.0897 
    128 H128      -49.7369  -22.2497   12.6710 H         1 UNK         0.0792 
    129 H129      -50.8316  -21.8019   13.9736 H         1 UNK         0.0792 
    130 H130      -51.3595  -21.6695   12.3039 H         1 UNK         0.0792 
    131 H131      -50.3581  -24.7821   11.5282 H         1 UNK         0.3086 
    132 H132      -51.6862  -26.0033    9.6150 H         1 UNK         0.0583 
    133 H133      -53.9141  -25.2414    8.7875 H         1 UNK         0.1020 
    134 H134      -53.2137  -23.7618    8.2009 H         1 UNK         0.1020 
    135 H135      -54.5749  -26.9426    7.2313 H         1 UNK         0.0694 
    136 H136      -53.6928  -27.5264    5.8474 H         1 UNK         0.0694 
    137 H137      -49.8680  -25.1583    8.6850 H         1 UNK         0.2989 
    138 H138      -48.8902  -21.9677    7.5133 H         1 UNK         0.1055 
    139 H139      -47.6480  -23.6923    9.7284 H         1 UNK         0.0806 
    140 H140      -48.1073  -22.0034    9.9129 H         1 UNK         0.0806 
    141 H141      -46.8331  -22.4434    8.7887 H         1 UNK         0.0806 
    142 H142      -47.6188  -24.5188    7.4216 H         1 UNK         0.3061 
    143 H143      -48.6341  -26.3027    5.7376 H         1 UNK         0.0734 
    144 H144      -48.8780  -24.6942    3.1387 H         1 UNK         0.0832 
    145 H145      -48.6315  -26.4376    3.2457 H         1 UNK         0.0832 
    146 H146      -50.1181  -25.7196    3.8453 H         1 UNK         0.0832 
    147 H147      -46.4521  -26.1186    5.4954 H         1 UNK         0.3156 
    148 H148      -44.2875  -24.8323    3.8466 H         1 UNK         0.0589 
    149 H149      -42.9409  -23.1002    5.0745 H         1 UNK         0.0808 
    150 H150      -44.2069  -22.3809    4.0962 H         1 UNK         0.0808 
    151 H151      -44.4155  -22.5045    5.8362 H         1 UNK         0.0808 
    152 H152      -43.7097  -26.1205    5.5356 H         1 UNK         0.3098 
    153 H153      -43.3241  -26.9898    7.4483 H         1 UNK         0.0720 
    154 H154      -42.5542  -25.2028    9.0339 H         1 UNK         0.0791 
    155 H155      -42.9196  -26.7057    9.8644 H         1 UNK         0.0791 
    156 H156      -44.0539  -25.3565    9.9375 H         1 UNK         0.0791 
    157 H157      -45.2228  -27.5152    9.3933 H         1 UNK         0.3028 
@<TRIPOS>BOND
     1    1    2 1    
     2    1   82 1    
     3    1   83 1    
     4    1   84 1    
     5    2    3 2    
     6    2    4 am   BACKBONE|DICT|INTERRES
     7    4    5 1    
     8    4   85 1    
     9    5    6 1    
    10    5   80 1    
    11    5   86 1    
    12    6    7 1    
    13    6   87 1    
    14    6   88 1    
    15    7    8 1    
    16    8    9 1    
    17    8   89 1    
    18    8   90 1    
    19    9   10 ar   
    20    9   14 ar   
    21   10   11 ar   
    22   10   91 1    
    23   11   12 ar   
    24   11   58 1    
    25   12   13 ar   
    26   12   92 1    
    27   13   14 ar   
    28   13   15 1    
    29   14   93 1    
    30   15   16 1    
    31   15   94 1    
    32   15   95 1    
    33   16   17 1    
    34   17   18 1    
    35   17   96 1    
    36   17   97 1    
    37   18   19 1    
    38   18   22 1    
    39   18   98 1    
    40   19   20 am   BACKBONE|DICT|INTERRES
    41   19   21 2    
    42   20   99 1    
    43   20  100 1    
    44   22   23 am   BACKBONE|DICT|INTERRES
    45   22  101 1    
    46   23   24 2    
    47   23   25 1    
    48   25   26 1    
    49   25   27 1    
    50   25  102 1    
    51   26  103 1    
    52   26  104 1    
    53   26  105 1    
    54   27   28 am   BACKBONE|DICT|INTERRES
    55   27  106 1    
    56   28   29 2    
    57   28   30 1    
    58   30   31 1    
    59   30   32 1    
    60   30  107 1    
    61   31  108 1    
    62   31  109 1    
    63   31  110 1    
    64   32   33 am   BACKBONE|DICT|INTERRES
    65   32  111 1    
    66   33   34 2    
    67   33   35 1    
    68   35   36 1    
    69   35   37 1    
    70   35  112 1    
    71   36  113 1    
    72   36  114 1    
    73   36  115 1    
    74   37   38 am   BACKBONE|DICT|INTERRES
    75   37  116 1    
    76   38   39 2    
    77   38   40 1    
    78   40   41 1    
    79   40   42 1    
    80   40  117 1    
    81   41  118 1    
    82   41  119 1    
    83   41  120 1    
    84   42   43 am   BACKBONE|DICT|INTERRES
    85   42  121 1    
    86   43   44 2    
    87   43   45 1    
    88   45   46 1    
    89   45   47 1    
    90   45  122 1    
    91   46  123 1    
    92   46  124 1    
    93   46  125 1    
    94   47   48 am   BACKBONE|DICT|INTERRES
    95   47  126 1    
    96   48   49 2    
    97   48   50 1    
    98   50   51 1    
    99   50   52 1    
   100   50  127 1    
   101   51  128 1    
   102   51  129 1    
   103   51  130 1    
   104   52   53 am   BACKBONE|DICT|INTERRES
   105   52  131 1    
   106   53   54 2    
   107   53   55 1    
   108   55   56 1    
   109   55   59 1    
   110   55  132 1    
   111   56   57 1    
   112   56  133 1    
   113   56  134 1    
   114   57   58 1    
   115   58  135 1    
   116   58  136 1    
   117   59   60 am   BACKBONE|DICT|INTERRES
   118   59  137 1    
   119   60   61 2    
   120   60   62 1    
   121   62   63 1    
   122   62   64 1    
   123   62  138 1    
   124   63  139 1    
   125   63  140 1    
   126   63  141 1    
   127   64   65 am   BACKBONE|DICT|INTERRES
   128   64  142 1    
   129   65   66 2    
   130   65   67 1    
   131   67   68 1    
   132   67   69 1    
   133   67  143 1    
   134   68  144 1    
   135   68  145 1    
   136   68  146 1    
   137   69   70 am   BACKBONE|DICT|INTERRES
   138   69  147 1    
   139   70   71 2    
   140   70   72 1    
   141   72   73 1    
   142   72   74 1    
   143   72  148 1    
   144   73  149 1    
   145   73  150 1    
   146   73  151 1    
   147   74   75 am   BACKBONE|DICT|INTERRES
   148   74  152 1    
   149   75   76 2    
   150   75   77 1    
   151   77   78 1    
   152   77   79 1    
   153   77  153 1    
   154   78  154 1    
   155   78  155 1    
   156   78  156 1    
   157   79   80 am   BACKBONE|DICT|INTERRES
   158   79  157 1    
   159   80   81 2    
@<TRIPOS>SUBSTRUCTURE
     1 UNK         1 GROUP             0       ****    0 ROOT    
