@<TRIPOS>MOLECULE
3R207
157   159    1
SMALL
USER_CHARGES


@<TRIPOS>ATOM
      1 CA        -44.5986  -28.2167    4.1096 C.3       0 UNK        -0.1975 
      2 C         -46.0748  -28.4433    4.3989 C.2       0 UNK         0.4852 
      3 O         -46.9180  -28.1631    3.5449 O.2       0 UNK        -0.5216 
      4 N         -46.3996  -28.9405    5.5998 N.am      1 UNK        -0.4461 
      5 CA        -47.7608  -29.2115    6.0777 C.3       1 UNK         0.0864 
      6 C6        -47.7361  -30.3005    7.1839 C.3       14 UNK        -0.0898 
      7 S7        -49.3824  -30.9975    7.5749 S.3       14 UNK        -0.2598 
      8 C8        -49.5048  -30.6441    9.3644 C.3       14 UNK         0.0286 
      9 C9        -50.8706  -30.1268    9.8004 C.ar      14 UNK        -0.0844 
     10 C10       -51.5047  -29.1043    9.0878 C.ar      14 UNK        -0.0881 
     11 C11       -52.6702  -28.5114    9.5766 C.ar      14 UNK        -0.0643 
     12 C12       -53.2220  -28.9668   10.7755 C.ar      14 UNK        -0.0930 
     13 C13       -52.6103  -29.9986   11.4918 C.ar      14 UNK        -0.0827 
     14 C14       -51.4411  -30.5831   10.9936 C.ar      14 UNK        -0.1249 
     15 C15       -53.1492  -30.3913   12.8586 C.3       14 UNK         0.0141 
     16 S16       -54.8614  -31.0083   12.7926 S.3       14 UNK        -0.2313 
     17 C17       -55.5811  -30.2382   14.2873 C.3       14 UNK        -0.0915 
     18 CA        -56.7842  -29.3170   13.9578 C.3       13 UNK         0.0968 
     19 C         -57.4343  -28.7639   15.2528 C.2       13 UNK         0.5732 
     20 N         -58.3725  -29.4988   15.8351 N.am      13 UNK        -0.7310 
     21 O         -57.0745  -27.7030   15.7587 O.2       13 UNK        -0.5035 
     22 N         -56.4214  -28.2389   13.0265 N.am      13 UNK        -0.4233 
     23 C         -57.2824  -27.6726   12.1700 C.2       13 UNK         0.4989 
     24 O         -58.4678  -28.0018   12.0874 O.2       13 UNK        -0.4996 
     25 CA        -56.7319  -26.5993   11.2059 C.3       12 UNK         0.0216 
     26 CB        -57.8297  -25.6653   10.6514 C.3       12 UNK        -0.1964 
     27 N         -55.6097  -25.8251   11.7450 N.am      12 UNK        -0.4276 
     28 C         -55.6183  -25.0179   12.8138 C.2       12 UNK         0.5020 
     29 O         -56.6108  -24.7678   13.5010 O.2       12 UNK        -0.5489 
     30 CA        -54.2634  -24.3892   13.1794 C.3       11 UNK         0.0294 
     31 CB        -54.3544  -22.8537   13.1982 C.3       11 UNK        -0.2019 
     32 N         -53.7435  -24.8640   14.4635 N.am      11 UNK        -0.4493 
     33 C         -53.5621  -26.1457   14.8147 C.2       11 UNK         0.4932 
     34 O         -53.9007  -27.1124   14.1281 O.2       11 UNK        -0.5029 
     35 CA        -52.8420  -26.3646   16.1522 C.3       10 UNK         0.0280 
     36 CB        -53.7039  -27.1414   17.1690 C.3       10 UNK        -0.1976 
     37 N         -51.5228  -26.9567   15.9054 N.am      10 UNK        -0.4242 
     38 C         -51.1904  -28.2397   15.6864 C.2       10 UNK         0.5072 
     39 O         -51.9424  -29.1966   15.8754 O.2       10 UNK        -0.5224 
     40 CA        -49.7633  -28.5283   15.1748 C.3       9 UNK         0.0343 
     41 CB        -49.8002  -29.3475   13.8744 C.3       9 UNK        -0.2003 
     42 N         -48.9761  -27.3182   14.9314 N.am      9 UNK        -0.4272 
     43 C         -48.2223  -26.6943   15.8454 C.2       9 UNK         0.4988 
     44 O         -48.0823  -27.0907   17.0026 O.2       9 UNK        -0.5108 
     45 CA        -47.5139  -25.3999   15.4056 C.3       8 UNK         0.0248 
     46 CB        -46.0899  -25.7146   14.9202 C.3       8 UNK        -0.2001 
     47 N         -48.2284  -24.6489   14.3668 N.am      8 UNK        -0.4140 
     48 C         -49.4464  -24.1065   14.5160 C.2       8 UNK         0.5028 
     49 O         -50.1059  -24.1784   15.5540 O.2       8 UNK        -0.5428 
     50 CA        -50.0597  -23.4177   13.2841 C.3       7 UNK         0.0264 
     51 CB        -49.4415  -22.0290   13.0613 C.3       7 UNK        -0.1988 
     52 N         -49.9492  -24.2116   12.0574 N.am      7 UNK        -0.4454 
     53 C         -50.4448  -25.4493   11.9032 C.2       7 UNK         0.5027 
     54 O         -51.0348  -26.0635   12.7885 O.2       7 UNK        -0.5083 
     55 CA        -50.1817  -26.1421   10.5561 C.3       6 UNK         0.0844 
     56 C56       -51.0850  -25.6200    9.4053 C.3       14 UNK        -0.0967 
     57 S57       -52.8850  -25.7662    9.6975 S.3       14 UNK        -0.2604 
     58 C58       -53.2876  -27.3281    8.8519 C.3       14 UNK         0.0134 
     59 N         -48.7607  -26.0456   10.2215 N.am      6 UNK        -0.4116 
     60 C         -47.7780  -26.7052   10.8513 C.2       5 UNK         0.5034 
     61 O         -47.9626  -27.5281   11.7472 O.2       5 UNK        -0.5045 
     62 CA        -46.3343  -26.3477   10.4554 C.3       5 UNK         0.0224 
     63 CB        -45.8281  -27.2387    9.3108 C.3       5 UNK        -0.1978 
     64 N         -46.1769  -24.9382   10.0874 N.am      5 UNK        -0.4737 
     65 C         -46.2828  -23.9235   10.9566 C.2       4 UNK         0.5027 
     66 O         -46.4929  -24.0728   12.1592 O.2       4 UNK        -0.5211 
     67 CA        -46.1876  -22.5003   10.3837 C.3       4 UNK         0.0297 
     68 CB        -44.7215  -22.0454   10.3154 C.3       4 UNK        -0.1993 
     69 N         -46.8120  -22.3490    9.0658 N.am      4 UNK        -0.4486 
     70 C         -48.0973  -22.6060    8.7860 C.2       3 UNK         0.4961 
     71 O         -48.9007  -23.0370    9.6146 O.2       3 UNK        -0.5105 
     72 CA        -48.5856  -22.3325    7.3520 C.3       3 UNK         0.0299 
     73 CB        -47.5331  -21.6715    6.4308 C.3       3 UNK        -0.1972 
     74 N         -49.1468  -23.5325    6.7212 N.am      3 UNK        -0.4305 
     75 C         -48.5085  -24.6783    6.4382 C.2       2 UNK         0.5006 
     76 O         -47.3322  -24.9053    6.7333 O.2       2 UNK        -0.5106 
     77 CA        -49.3360  -25.7089    5.6425 C.3       2 UNK         0.0296 
     78 CB        -49.6440  -25.1830    4.2284 C.3       2 UNK        -0.2002 
     79 N         -48.6823  -27.0114    5.5065 N.am      2 UNK        -0.4032 
     80 C         -48.4734  -27.8985    6.4860 C.2       1 UNK         0.5000 
     81 O         -48.8075  -27.7052    7.6534 O.2       1 UNK        -0.5238 
     82 H82       -44.4150  -27.1622    3.9055 H         1 UNK         0.0889 
     83 H83       -44.2955  -28.7915    3.2350 H         1 UNK         0.0889 
     84 H84       -43.9679  -28.5151    4.9469 H         1 UNK         0.0889 
     85 H85       -45.6634  -29.1244    6.2664 H         1 UNK         0.3028 
     86 H86       -48.3292  -29.6232    5.2404 H         1 UNK         0.0864 
     87 H87       -47.1218  -31.1389    6.8514 H         1 UNK         0.0720 
     88 H88       -47.2450  -29.9219    8.0807 H         1 UNK         0.0720 
     89 H89       -48.7780  -29.8849    9.6555 H         1 UNK         0.0814 
     90 H90       -49.2391  -31.5491    9.9126 H         1 UNK         0.0814 
     91 H91       -51.0559  -28.7261    8.1811 H         1 UNK         0.1469 
     92 H92       -54.1033  -28.4888   11.1782 H         1 UNK         0.1381 
     93 H93       -50.9403  -31.3502   11.5682 H         1 UNK         0.1206 
     94 H94       -52.5233  -31.1508   13.3285 H         1 UNK         0.0813 
     95 H95       -53.0836  -29.5090   13.4931 H         1 UNK         0.0813 
     96 H96       -55.8977  -31.0485   14.9464 H         1 UNK         0.0638 
     97 H97       -54.8199  -29.6866   14.8415 H         1 UNK         0.0638 
     98 H98       -57.5305  -29.9438   13.4648 H         1 UNK         0.0568 
     99 H99       -58.6695  -30.3771   15.4391 H         1 UNK         0.3450 
    100 H100      -58.7965  -29.1642   16.6861 H         1 UNK         0.3450 
    101 H101      -55.4901  -27.8522   13.1449 H         1 UNK         0.2987 
    102 H102      -56.3267  -27.1544   10.3591 H         1 UNK         0.0766 
    103 H103      -57.4155  -24.9342    9.9571 H         1 UNK         0.0798 
    104 H104      -58.3387  -25.1216   11.4478 H         1 UNK         0.0798 
    105 H105      -58.5885  -26.2299   10.1083 H         1 UNK         0.0798 
    106 H106      -54.7263  -25.9534   11.2662 H         1 UNK         0.3198 
    107 H107      -53.5282  -24.6689   12.4228 H         1 UNK         0.0843 
    108 H108      -55.0335  -22.4998   13.9750 H         1 UNK         0.0831 
    109 H109      -54.7268  -22.4759   12.2449 H         1 UNK         0.0831 
    110 H110      -53.3810  -22.3941   13.3673 H         1 UNK         0.0831 
    111 H111      -53.4466  -24.1497   15.1117 H         1 UNK         0.3133 
    112 H112      -52.6334  -25.3894   16.5954 H         1 UNK         0.0566 
    113 H113      -53.1482  -27.3628   18.0799 H         1 UNK         0.0814 
    114 H114      -54.5805  -26.5576   17.4518 H         1 UNK         0.0814 
    115 H115      -54.0741  -28.0815   16.7589 H         1 UNK         0.0814 
    116 H116      -50.8097  -26.2690   15.6909 H         1 UNK         0.3091 
    117 H117      -49.2663  -29.1330   15.9360 H         1 UNK         0.0702 
    118 H118      -50.3140  -30.2974   14.0216 H         1 UNK         0.0785 
    119 H119      -48.7956  -29.5770   13.5191 H         1 UNK         0.0785 
    120 H120      -50.3195  -28.8092   13.0799 H         1 UNK         0.0785 
    121 H121      -49.0465  -26.9229   14.0019 H         1 UNK         0.2998 
    122 H122      -47.4404  -24.7547   16.2834 H         1 UNK         0.0697 
    123 H123      -46.1002  -26.3250   14.0161 H         1 UNK         0.0825 
    124 H124      -45.5278  -26.2611   15.6788 H         1 UNK         0.0825 
    125 H125      -45.5347  -24.8023   14.7012 H         1 UNK         0.0825 
    126 H126      -47.7328  -24.5091   13.4877 H         1 UNK         0.3029 
    127 H127      -51.1245  -23.2871   13.4840 H         1 UNK         0.0897 
    128 H128      -49.9179  -21.5112   12.2285 H         1 UNK         0.0792 
    129 H129      -48.3741  -22.0913   12.8497 H         1 UNK         0.0792 
    130 H130      -49.5626  -21.4023   13.9459 H         1 UNK         0.0792 
    131 H131      -49.4828  -23.7761   11.2643 H         1 UNK         0.3086 
    132 H132      -50.4032  -27.2002   10.7004 H         1 UNK         0.0583 
    133 H133      -50.8773  -24.5701    9.2005 H         1 UNK         0.1020 
    134 H134      -50.8393  -26.1515    8.4864 H         1 UNK         0.1020 
    135 H135      -54.3710  -27.4474    8.8160 H         1 UNK         0.0694 
    136 H136      -52.9499  -27.2828    7.8152 H         1 UNK         0.0694 
    137 H137      -48.5058  -25.3642    9.5215 H         1 UNK         0.2989 
    138 H138      -45.7096  -26.5388   11.3311 H         1 UNK         0.1055 
    139 H139      -45.9968  -28.2935    9.5317 H         1 UNK         0.0806 
    140 H140      -44.7577  -27.1074    9.1525 H         1 UNK         0.0806 
    141 H141      -46.3330  -27.0132    8.3721 H         1 UNK         0.0806 
    142 H142      -46.0430  -24.7276    9.1072 H         1 UNK         0.3061 
    143 H143      -46.7164  -21.8367   11.0705 H         1 UNK         0.0734 
    144 H144      -44.6419  -21.0021   10.0094 H         1 UNK         0.0832 
    145 H145      -44.2418  -22.1313   11.2916 H         1 UNK         0.0832 
    146 H146      -44.1424  -22.6479    9.6144 H         1 UNK         0.0832 
    147 H147      -46.2228  -22.0102    8.3190 H         1 UNK         0.3156 
    148 H148      -49.4133  -21.6290    7.4527 H         1 UNK         0.0589 
    149 H149      -46.6627  -22.3083    6.2682 H         1 UNK         0.0808 
    150 H150      -47.9596  -21.4493    5.4525 H         1 UNK         0.0808 
    151 H151      -47.1838  -20.7238    6.8431 H         1 UNK         0.0808 
    152 H152      -50.1199  -23.4580    6.4592 H         1 UNK         0.3098 
    153 H153      -50.2791  -25.8631    6.1698 H         1 UNK         0.0720 
    154 H154      -50.2497  -25.8933    3.6650 H         1 UNK         0.0791 
    155 H155      -48.7300  -25.0007    3.6611 H         1 UNK         0.0791 
    156 H156      -50.2009  -24.2459    4.2585 H         1 UNK         0.0791 
    157 H157      -48.2839  -27.2329    4.5989 H         1 UNK         0.3028 
@<TRIPOS>BOND
     1    1    2 1    
     2    1   82 1    
     3    1   83 1    
     4    1   84 1    
     5    2    3 2    
     6    2    4 am   BACKBONE|DICT|INTERRES
     7    4    5 1    
     8    4   85 1    
     9    5    6 1    
    10    5   80 1    
    11    5   86 1    
    12    6    7 1    
    13    6   87 1    
    14    6   88 1    
    15    7    8 1    
    16    8    9 1    
    17    8   89 1    
    18    8   90 1    
    19    9   10 ar   
    20    9   14 ar   
    21   10   11 ar   
    22   10   91 1    
    23   11   12 ar   
    24   11   58 1    
    25   12   13 ar   
    26   12   92 1    
    27   13   14 ar   
    28   13   15 1    
    29   14   93 1    
    30   15   16 1    
    31   15   94 1    
    32   15   95 1    
    33   16   17 1    
    34   17   18 1    
    35   17   96 1    
    36   17   97 1    
    37   18   19 1    
    38   18   22 1    
    39   18   98 1    
    40   19   20 am   BACKBONE|DICT|INTERRES
    41   19   21 2    
    42   20   99 1    
    43   20  100 1    
    44   22   23 am   BACKBONE|DICT|INTERRES
    45   22  101 1    
    46   23   24 2    
    47   23   25 1    
    48   25   26 1    
    49   25   27 1    
    50   25  102 1    
    51   26  103 1    
    52   26  104 1    
    53   26  105 1    
    54   27   28 am   BACKBONE|DICT|INTERRES
    55   27  106 1    
    56   28   29 2    
    57   28   30 1    
    58   30   31 1    
    59   30   32 1    
    60   30  107 1    
    61   31  108 1    
    62   31  109 1    
    63   31  110 1    
    64   32   33 am   BACKBONE|DICT|INTERRES
    65   32  111 1    
    66   33   34 2    
    67   33   35 1    
    68   35   36 1    
    69   35   37 1    
    70   35  112 1    
    71   36  113 1    
    72   36  114 1    
    73   36  115 1    
    74   37   38 am   BACKBONE|DICT|INTERRES
    75   37  116 1    
    76   38   39 2    
    77   38   40 1    
    78   40   41 1    
    79   40   42 1    
    80   40  117 1    
    81   41  118 1    
    82   41  119 1    
    83   41  120 1    
    84   42   43 am   BACKBONE|DICT|INTERRES
    85   42  121 1    
    86   43   44 2    
    87   43   45 1    
    88   45   46 1    
    89   45   47 1    
    90   45  122 1    
    91   46  123 1    
    92   46  124 1    
    93   46  125 1    
    94   47   48 am   BACKBONE|DICT|INTERRES
    95   47  126 1    
    96   48   49 2    
    97   48   50 1    
    98   50   51 1    
    99   50   52 1    
   100   50  127 1    
   101   51  128 1    
   102   51  129 1    
   103   51  130 1    
   104   52   53 am   BACKBONE|DICT|INTERRES
   105   52  131 1    
   106   53   54 2    
   107   53   55 1    
   108   55   56 1    
   109   55   59 1    
   110   55  132 1    
   111   56   57 1    
   112   56  133 1    
   113   56  134 1    
   114   57   58 1    
   115   58  135 1    
   116   58  136 1    
   117   59   60 am   BACKBONE|DICT|INTERRES
   118   59  137 1    
   119   60   61 2    
   120   60   62 1    
   121   62   63 1    
   122   62   64 1    
   123   62  138 1    
   124   63  139 1    
   125   63  140 1    
   126   63  141 1    
   127   64   65 am   BACKBONE|DICT|INTERRES
   128   64  142 1    
   129   65   66 2    
   130   65   67 1    
   131   67   68 1    
   132   67   69 1    
   133   67  143 1    
   134   68  144 1    
   135   68  145 1    
   136   68  146 1    
   137   69   70 am   BACKBONE|DICT|INTERRES
   138   69  147 1    
   139   70   71 2    
   140   70   72 1    
   141   72   73 1    
   142   72   74 1    
   143   72  148 1    
   144   73  149 1    
   145   73  150 1    
   146   73  151 1    
   147   74   75 am   BACKBONE|DICT|INTERRES
   148   74  152 1    
   149   75   76 2    
   150   75   77 1    
   151   77   78 1    
   152   77   79 1    
   153   77  153 1    
   154   78  154 1    
   155   78  155 1    
   156   78  156 1    
   157   79   80 am   BACKBONE|DICT|INTERRES
   158   79  157 1    
   159   80   81 2    
@<TRIPOS>SUBSTRUCTURE
     1 UNK         1 GROUP             0       ****    0 ROOT    
