@<TRIPOS>MOLECULE
3R207
157   159    1
SMALL
USER_CHARGES


@<TRIPOS>ATOM
      1 CA        -50.1697  -24.6929    2.4904 C.3       0 UNK        -0.1975 
      2 C         -50.2907  -25.5587    3.7360 C.2       0 UNK         0.4852 
      3 O         -49.9428  -25.1066    4.8264 O.2       0 UNK        -0.5216 
      4 N         -50.7862  -26.7934    3.5775 N.am      1 UNK        -0.4461 
      5 CA        -50.9399  -27.7916    4.6432 C.3       1 UNK         0.0864 
      6 C6        -51.8077  -28.9855    4.1736 C.3       14 UNK        -0.0898 
      7 S7        -53.5535  -28.4786    4.0036 S.3       14 UNK        -0.2598 
      8 C8        -54.3571  -29.3114    5.4170 C.3       14 UNK         0.0286 
      9 C9        -53.6072  -29.1252    6.7315 C.ar      14 UNK        -0.0844 
     10 C10       -53.4537  -27.8538    7.2934 C.ar      14 UNK        -0.0881 
     11 C11       -52.7271  -27.6858    8.4762 C.ar      14 UNK        -0.0643 
     12 C12       -52.1817  -28.8025    9.1162 C.ar      14 UNK        -0.0930 
     13 C13       -52.3584  -30.0817    8.5819 C.ar      14 UNK        -0.0827 
     14 C14       -53.0584  -30.2339    7.3825 C.ar      14 UNK        -0.1249 
     15 C15       -51.8038  -31.3041    9.2989 C.3       14 UNK         0.0141 
     16 S16       -53.1330  -32.3428    9.9843 S.3       14 UNK        -0.2313 
     17 C17       -53.7073  -31.3413   11.3984 C.3       14 UNK        -0.0915 
     18 CA        -54.8354  -30.3226   11.0638 C.3       13 UNK         0.0968 
     19 C         -56.1388  -30.9890   10.5569 C.2       13 UNK         0.5732 
     20 N         -56.3014  -31.1258    9.2483 N.am      13 UNK        -0.7310 
     21 O         -57.0003  -31.3854   11.3410 O.2       13 UNK        -0.5035 
     22 N         -55.1474  -29.4776   12.2170 N.am      13 UNK        -0.4233 
     23 C         -54.3833  -28.4949   12.7019 C.2       13 UNK         0.4989 
     24 O         -53.3013  -28.1602   12.2183 O.2       13 UNK        -0.4996 
     25 CA        -54.8993  -27.7425   13.9433 C.3       12 UNK         0.0216 
     26 CB        -56.3435  -28.1021   14.3658 C.3       12 UNK        -0.1964 
     27 N         -53.9740  -27.8905   15.0710 N.am      12 UNK        -0.4276 
     28 C         -53.5968  -29.0284   15.6761 C.2       12 UNK         0.5020 
     29 O         -54.0236  -30.1459   15.3821 O.2       12 UNK        -0.5489 
     30 CA        -52.5608  -28.9024   16.8084 C.3       11 UNK         0.0294 
     31 CB        -51.1533  -29.2228   16.2775 C.3       11 UNK        -0.2019 
     32 N         -52.5416  -27.5778   17.4338 N.am      11 UNK        -0.4493 
     33 C         -53.4990  -27.0626   18.2141 C.2       11 UNK         0.4932 
     34 O         -54.5055  -27.6828   18.5567 O.2       11 UNK        -0.5029 
     35 CA        -53.3256  -25.5998   18.6695 C.3       10 UNK         0.0280 
     36 CB        -52.4309  -25.5117   19.9214 C.3       10 UNK        -0.1976 
     37 N         -52.8769  -24.6720   17.6151 N.am      10 UNK        -0.4242 
     38 C         -51.7023  -24.6363   16.9672 C.2       10 UNK         0.5072 
     39 O         -50.7931  -25.4473   17.1645 O.2       10 UNK        -0.5224 
     40 CA        -51.5528  -23.5648   15.8678 C.3       9 UNK         0.0343 
     41 CB        -52.1909  -22.2063   16.2364 C.3       9 UNK        -0.2003 
     42 N         -50.1579  -23.4010   15.4478 N.am      9 UNK        -0.4272 
     43 C         -49.1349  -22.9290   16.1769 C.2       9 UNK         0.4988 
     44 O         -49.2422  -22.4649   17.3134 O.2       9 UNK        -0.5108 
     45 CA        -47.7423  -22.9863   15.5261 C.3       8 UNK         0.0248 
     46 CB        -47.0790  -24.3428   15.8135 C.3       8 UNK        -0.2001 
     47 N         -47.7634  -22.7402   14.0802 N.am      8 UNK        -0.4140 
     48 C         -48.0771  -21.5607   13.5221 C.2       8 UNK         0.5028 
     49 O         -48.3441  -20.5459   14.1675 O.2       8 UNK        -0.5428 
     50 CA        -48.0966  -21.4923   11.9864 C.3       7 UNK         0.0264 
     51 CB        -46.6697  -21.3505   11.4320 C.3       7 UNK        -0.1988 
     52 N         -48.7508  -22.6467   11.3686 N.am      7 UNK        -0.4454 
     53 C         -50.0614  -22.9248   11.4502 C.2       7 UNK         0.5027 
     54 O         -50.8812  -22.2083   12.0256 O.2       7 UNK        -0.5083 
     55 CA        -50.5305  -24.2420   10.7952 C.3       6 UNK         0.0844 
     56 C56       -50.7647  -24.0379    9.2740 C.3       14 UNK        -0.0967 
     57 S57       -51.0202  -25.5628    8.3057 S.3       14 UNK        -0.2604 
     58 C58       -52.5035  -26.2973    9.0513 C.3       14 UNK         0.0134 
     59 N         -49.6238  -25.3508   11.1118 N.am      6 UNK        -0.4116 
     60 C         -49.3988  -25.8152   12.3503 C.2       5 UNK         0.5034 
     61 O         -49.9607  -25.3894   13.3590 O.2       5 UNK        -0.5045 
     62 CA        -48.3269  -26.9022   12.4989 C.3       5 UNK         0.0224 
     63 CB        -48.9250  -28.2966   12.2469 C.3       5 UNK        -0.1978 
     64 N         -47.1932  -26.6654   11.6023 N.am      5 UNK        -0.4737 
     65 C         -46.2895  -25.6903   11.7760 C.2       4 UNK         0.5027 
     66 O         -46.2970  -24.9184   12.7338 O.2       4 UNK        -0.5211 
     67 CA        -45.2250  -25.5158   10.6785 C.3       4 UNK         0.0297 
     68 CB        -44.0664  -26.5031   10.8881 C.3       4 UNK        -0.1993 
     69 N         -45.7635  -25.6682    9.3245 N.am      4 UNK        -0.4486 
     70 C         -46.6881  -24.8632    8.7835 C.2       3 UNK         0.4961 
     71 O         -47.1532  -23.8769    9.3535 O.2       3 UNK        -0.5105 
     72 CA        -47.2173  -25.2348    7.3879 C.3       3 UNK         0.0299 
     73 CB        -46.3415  -24.6002    6.2965 C.3       3 UNK        -0.1972 
     74 N         -47.3760  -26.6691    7.1110 N.am      3 UNK        -0.4305 
     75 C         -47.9746  -27.5755    7.8976 C.2       2 UNK         0.5006 
     76 O         -48.3054  -27.3727    9.0658 O.2       2 UNK        -0.5106 
     77 CA        -48.3392  -28.9077    7.2295 C.3       2 UNK         0.0296 
     78 CB        -48.5804  -30.0309    8.2535 C.3       2 UNK        -0.2002 
     79 N         -49.5599  -28.6813    6.4574 N.am      2 UNK        -0.4032 
     80 C         -49.5762  -28.2645    5.1847 C.2       1 UNK         0.5000 
     81 O         -48.5743  -28.2345    4.4627 O.2       1 UNK        -0.5238 
     82 H82       -49.1296  -24.4098    2.3314 H         1 UNK         0.0889 
     83 H83       -50.7569  -23.7826    2.6084 H         1 UNK         0.0889 
     84 H84       -50.5210  -25.2101    1.5977 H         1 UNK         0.0889 
     85 H85       -51.0457  -27.1060    2.6534 H         1 UNK         0.3028 
     86 H86       -51.4453  -27.2922    5.4722 H         1 UNK         0.0864 
     87 H87       -51.4549  -29.3661    3.2134 H         1 UNK         0.0720 
     88 H88       -51.7434  -29.8280    4.8640 H         1 UNK         0.0720 
     89 H89       -55.3711  -28.9244    5.5257 H         1 UNK         0.0814 
     90 H90       -54.4607  -30.3715    5.1800 H         1 UNK         0.0814 
     91 H91       -53.8702  -26.9913    6.7907 H         1 UNK         0.1469 
     92 H92       -51.6317  -28.6727   10.0387 H         1 UNK         0.1381 
     93 H93       -53.1815  -31.2232    6.9625 H         1 UNK         0.1206 
     94 H94       -51.1180  -31.0183   10.0978 H         1 UNK         0.0813 
     95 H95       -51.2221  -31.8979    8.5926 H         1 UNK         0.0813 
     96 H96       -52.8425  -30.8241   11.8159 H         1 UNK         0.0638 
     97 H97       -54.0442  -32.0251   12.1794 H         1 UNK         0.0638 
     98 H98       -54.4918  -29.6551   10.2744 H         1 UNK         0.0568 
     99 H99       -57.1407  -31.5603    8.8992 H         1 UNK         0.3450 
    100 H100      -55.5835  -30.8243    8.6079 H         1 UNK         0.3450 
    101 H101      -56.0255  -29.6959   12.6681 H         1 UNK         0.2987 
    102 H102      -54.8918  -26.6847   13.6760 H         1 UNK         0.0766 
    103 H103      -56.6636  -27.4916   15.2103 H         1 UNK         0.0798 
    104 H104      -56.4426  -29.1464   14.6641 H         1 UNK         0.0798 
    105 H105      -57.0504  -27.9170   13.5558 H         1 UNK         0.0798 
    106 H106      -53.5217  -27.0420   15.3774 H         1 UNK         0.3198 
    107 H107      -52.8189  -29.6367   17.5744 H         1 UNK         0.0843 
    108 H108      -50.8340  -28.5045   15.5208 H         1 UNK         0.0831 
    109 H109      -51.1243  -30.2129   15.8202 H         1 UNK         0.0831 
    110 H110      -50.4152  -29.2156   17.0797 H         1 UNK         0.0831 
    111 H111      -51.7393  -26.9784   17.2408 H         1 UNK         0.3133 
    112 H112      -54.3174  -25.2481   18.9586 H         1 UNK         0.0566 
    113 H113      -52.3675  -24.4886   20.2919 H         1 UNK         0.0814 
    114 H114      -52.8326  -26.1245   20.7295 H         1 UNK         0.0814 
    115 H115      -51.4163  -25.8604   19.7267 H         1 UNK         0.0814 
    116 H116      -53.5648  -23.9816   17.3468 H         1 UNK         0.3091 
    117 H117      -52.0747  -23.9512   14.9912 H         1 UNK         0.0702 
    118 H118      -53.2769  -22.2778   16.2997 H         1 UNK         0.0785 
    119 H119      -51.8301  -21.8326   17.1954 H         1 UNK         0.0785 
    120 H120      -51.9686  -21.4515   15.4815 H         1 UNK         0.0785 
    121 H121      -49.9338  -23.8538   14.5664 H         1 UNK         0.2998 
    122 H122      -47.1310  -22.2074   15.9868 H         1 UNK         0.0697 
    123 H123      -47.6284  -25.1639   15.3517 H         1 UNK         0.0825 
    124 H124      -47.0401  -24.5396   16.8857 H         1 UNK         0.0825 
    125 H125      -46.0549  -24.3717   15.4411 H         1 UNK         0.0825 
    126 H126      -47.4810  -23.5119   13.4822 H         1 UNK         0.3029 
    127 H127      -48.6600  -20.6004   11.7036 H         1 UNK         0.0897 
    128 H128      -46.6778  -21.2076   10.3512 H         1 UNK         0.0792 
    129 H129      -46.0635  -22.2316   11.6464 H         1 UNK         0.0792 
    130 H130      -46.1632  -20.4891   11.8695 H         1 UNK         0.0792 
    131 H131      -48.1577  -23.2538   10.8055 H         1 UNK         0.3086 
    132 H132      -51.4931  -24.4908   11.2463 H         1 UNK         0.0583 
    133 H133      -51.6210  -23.3806    9.1122 H         1 UNK         0.1020 
    134 H134      -49.9112  -23.5283    8.8220 H         1 UNK         0.1020 
    135 H135      -52.3874  -26.3618   10.1339 H         1 UNK         0.0694 
    136 H136      -53.3673  -25.6585    8.8623 H         1 UNK         0.0694 
    137 H137      -49.1448  -25.7883   10.3326 H         1 UNK         0.2989 
    138 H138      -47.9619  -26.8707   13.5278 H         1 UNK         0.1055 
    139 H139      -49.7359  -28.5024   12.9472 H         1 UNK         0.0806 
    140 H140      -48.1774  -29.0791   12.3760 H         1 UNK         0.0806 
    141 H141      -49.3378  -28.3891   11.2422 H         1 UNK         0.0806 
    142 H142      -47.2036  -27.1709   10.7221 H         1 UNK         0.3061 
    143 H143      -44.8282  -24.5019   10.7648 H         1 UNK         0.0734 
    144 H144      -43.2628  -26.3309   10.1719 H         1 UNK         0.0832 
    145 H145      -43.6380  -26.3931   11.8854 H         1 UNK         0.0832 
    146 H146      -44.3927  -27.5389   10.7867 H         1 UNK         0.0832 
    147 H147      -45.4519  -26.4650    8.7887 H         1 UNK         0.3156 
    148 H148      -48.2141  -24.7982    7.3048 H         1 UNK         0.0589 
    149 H149      -45.3450  -25.0427    6.2695 H         1 UNK         0.0808 
    150 H150      -46.7914  -24.7190    5.3103 H         1 UNK         0.0808 
    151 H151      -46.2197  -23.5292    6.4659 H         1 UNK         0.0808 
    152 H152      -47.1851  -26.9497    6.1585 H         1 UNK         0.3098 
    153 H153      -47.5188  -29.2143    6.5771 H         1 UNK         0.0720 
    154 H154      -48.8725  -30.9593    7.7629 H         1 UNK         0.0791 
    155 H155      -49.3598  -29.7674    8.9676 H         1 UNK         0.0791 
    156 H156      -47.6745  -30.2342    8.8255 H         1 UNK         0.0791 
    157 H157      -50.4192  -28.6482    6.9908 H         1 UNK         0.3028 
@<TRIPOS>BOND
     1    1    2 1    
     2    1   82 1    
     3    1   83 1    
     4    1   84 1    
     5    2    3 2    
     6    2    4 am   BACKBONE|DICT|INTERRES
     7    4    5 1    
     8    4   85 1    
     9    5    6 1    
    10    5   80 1    
    11    5   86 1    
    12    6    7 1    
    13    6   87 1    
    14    6   88 1    
    15    7    8 1    
    16    8    9 1    
    17    8   89 1    
    18    8   90 1    
    19    9   10 ar   
    20    9   14 ar   
    21   10   11 ar   
    22   10   91 1    
    23   11   12 ar   
    24   11   58 1    
    25   12   13 ar   
    26   12   92 1    
    27   13   14 ar   
    28   13   15 1    
    29   14   93 1    
    30   15   16 1    
    31   15   94 1    
    32   15   95 1    
    33   16   17 1    
    34   17   18 1    
    35   17   96 1    
    36   17   97 1    
    37   18   19 1    
    38   18   22 1    
    39   18   98 1    
    40   19   20 am   BACKBONE|DICT|INTERRES
    41   19   21 2    
    42   20   99 1    
    43   20  100 1    
    44   22   23 am   BACKBONE|DICT|INTERRES
    45   22  101 1    
    46   23   24 2    
    47   23   25 1    
    48   25   26 1    
    49   25   27 1    
    50   25  102 1    
    51   26  103 1    
    52   26  104 1    
    53   26  105 1    
    54   27   28 am   BACKBONE|DICT|INTERRES
    55   27  106 1    
    56   28   29 2    
    57   28   30 1    
    58   30   31 1    
    59   30   32 1    
    60   30  107 1    
    61   31  108 1    
    62   31  109 1    
    63   31  110 1    
    64   32   33 am   BACKBONE|DICT|INTERRES
    65   32  111 1    
    66   33   34 2    
    67   33   35 1    
    68   35   36 1    
    69   35   37 1    
    70   35  112 1    
    71   36  113 1    
    72   36  114 1    
    73   36  115 1    
    74   37   38 am   BACKBONE|DICT|INTERRES
    75   37  116 1    
    76   38   39 2    
    77   38   40 1    
    78   40   41 1    
    79   40   42 1    
    80   40  117 1    
    81   41  118 1    
    82   41  119 1    
    83   41  120 1    
    84   42   43 am   BACKBONE|DICT|INTERRES
    85   42  121 1    
    86   43   44 2    
    87   43   45 1    
    88   45   46 1    
    89   45   47 1    
    90   45  122 1    
    91   46  123 1    
    92   46  124 1    
    93   46  125 1    
    94   47   48 am   BACKBONE|DICT|INTERRES
    95   47  126 1    
    96   48   49 2    
    97   48   50 1    
    98   50   51 1    
    99   50   52 1    
   100   50  127 1    
   101   51  128 1    
   102   51  129 1    
   103   51  130 1    
   104   52   53 am   BACKBONE|DICT|INTERRES
   105   52  131 1    
   106   53   54 2    
   107   53   55 1    
   108   55   56 1    
   109   55   59 1    
   110   55  132 1    
   111   56   57 1    
   112   56  133 1    
   113   56  134 1    
   114   57   58 1    
   115   58  135 1    
   116   58  136 1    
   117   59   60 am   BACKBONE|DICT|INTERRES
   118   59  137 1    
   119   60   61 2    
   120   60   62 1    
   121   62   63 1    
   122   62   64 1    
   123   62  138 1    
   124   63  139 1    
   125   63  140 1    
   126   63  141 1    
   127   64   65 am   BACKBONE|DICT|INTERRES
   128   64  142 1    
   129   65   66 2    
   130   65   67 1    
   131   67   68 1    
   132   67   69 1    
   133   67  143 1    
   134   68  144 1    
   135   68  145 1    
   136   68  146 1    
   137   69   70 am   BACKBONE|DICT|INTERRES
   138   69  147 1    
   139   70   71 2    
   140   70   72 1    
   141   72   73 1    
   142   72   74 1    
   143   72  148 1    
   144   73  149 1    
   145   73  150 1    
   146   73  151 1    
   147   74   75 am   BACKBONE|DICT|INTERRES
   148   74  152 1    
   149   75   76 2    
   150   75   77 1    
   151   77   78 1    
   152   77   79 1    
   153   77  153 1    
   154   78  154 1    
   155   78  155 1    
   156   78  156 1    
   157   79   80 am   BACKBONE|DICT|INTERRES
   158   79  157 1    
   159   80   81 2    
@<TRIPOS>SUBSTRUCTURE
     1 UNK         1 GROUP             0       ****    0 ROOT    
