@<TRIPOS>MOLECULE
3R207
157   159    1
SMALL
USER_CHARGES


@<TRIPOS>ATOM
      1 CA        -52.6473  -25.4577    2.0903 C.3       0 UNK        -0.1975 
      2 C         -52.1274  -26.3479    3.2095 C.2       0 UNK         0.4852 
      3 O         -52.8907  -27.1371    3.7652 O.2       0 UNK        -0.5216 
      4 N         -50.8385  -26.2232    3.5408 N.am      1 UNK        -0.4461 
      5 CA        -50.1393  -26.9319    4.6116 C.3       1 UNK         0.0864 
      6 C6        -49.9423  -28.4479    4.3183 C.3       14 UNK        -0.0898 
      7 S7        -49.7496  -29.4638    5.8284 S.3       14 UNK        -0.2598 
      8 C8        -51.4274  -30.1302    6.0930 C.3       14 UNK         0.0286 
      9 C9        -52.1081  -29.4780    7.2884 C.ar      14 UNK        -0.0844 
     10 C10       -52.6798  -28.2103    7.1642 C.ar      14 UNK        -0.0881 
     11 C11       -53.2953  -27.5918    8.2550 C.ar      14 UNK        -0.0643 
     12 C12       -53.3763  -28.2748    9.4715 C.ar      14 UNK        -0.0930 
     13 C13       -52.8249  -29.5533    9.6081 C.ar      14 UNK        -0.0827 
     14 C14       -52.1821  -30.1450    8.5153 C.ar      14 UNK        -0.1249 
     15 C15       -52.9148  -30.2899   10.9371 C.3       14 UNK         0.0141 
     16 S16       -54.6467  -30.5769   11.4215 S.3       14 UNK        -0.2313 
     17 C17       -54.4971  -31.8928   12.6804 C.3       14 UNK        -0.0915 
     18 CA        -54.1014  -31.4242   14.1101 C.3       13 UNK         0.0968 
     19 C         -52.5605  -31.3043   14.2813 C.2       13 UNK         0.5732 
     20 N         -51.8582  -32.4274   14.3516 N.am      13 UNK        -0.7310 
     21 O         -51.9937  -30.2163   14.3216 O.2       13 UNK        -0.5035 
     22 N         -54.8427  -30.2246   14.5258 N.am      13 UNK        -0.4233 
     23 C         -54.8703  -29.7212   15.7650 C.2       13 UNK         0.4989 
     24 O         -54.3704  -30.2834   16.7419 O.2       13 UNK        -0.4996 
     25 CA        -55.5757  -28.3619   15.9319 C.3       12 UNK         0.0216 
     26 CB        -55.5595  -27.8553   17.3865 C.3       12 UNK        -0.1964 
     27 N         -54.9840  -27.3412   15.0602 N.am      12 UNK        -0.4276 
     28 C         -55.3228  -27.1461   13.7765 C.2       12 UNK         0.5020 
     29 O         -56.1507  -27.8527   13.1991 O.2       12 UNK        -0.5489 
     30 CA        -54.6290  -26.0165   12.9833 C.3       11 UNK         0.0294 
     31 CB        -55.6179  -25.2697   12.0642 C.3       11 UNK        -0.2019 
     32 N         -53.8594  -25.0711   13.7991 N.am      11 UNK        -0.4493 
     33 C         -54.3065  -24.2389   14.7523 C.2       11 UNK         0.4932 
     34 O         -55.4966  -24.0923   15.0342 O.2       11 UNK        -0.5029 
     35 CA        -53.2259  -23.4738   15.5493 C.3       10 UNK         0.0280 
     36 CB        -53.7346  -22.9854   16.9218 C.3       10 UNK        -0.1976 
     37 N         -51.9736  -24.2290   15.7076 N.am      10 UNK        -0.4242 
     38 C         -51.8337  -25.4625   16.2251 C.2       10 UNK         0.5072 
     39 O         -52.7724  -26.1056   16.6957 O.2       10 UNK        -0.5224 
     40 CA        -50.4448  -26.1243   16.1663 C.3       9 UNK         0.0343 
     41 CB        -50.5378  -27.5173   15.5224 C.3       9 UNK        -0.2003 
     42 N         -49.4872  -25.3284   15.3995 N.am      9 UNK        -0.4272 
     43 C         -48.5005  -24.5904   15.9239 C.2       9 UNK         0.4988 
     44 O         -48.2450  -24.5406   17.1276 O.2       9 UNK        -0.5108 
     45 CA        -47.6579  -23.7477   14.9474 C.3       8 UNK         0.0248 
     46 CB        -46.3353  -24.4619   14.6319 C.3       8 UNK        -0.2001 
     47 N         -48.3402  -23.4182   13.6910 N.am      8 UNK        -0.4140 
     48 C         -49.4557  -22.6834   13.5947 C.2       8 UNK         0.5028 
     49 O         -50.0535  -22.2145   14.5639 O.2       8 UNK        -0.5428 
     50 CA        -50.0390  -22.4859   12.1882 C.3       7 UNK         0.0264 
     51 CB        -49.2845  -21.3783   11.4347 C.3       7 UNK        -0.1988 
     52 N         -50.0773  -23.7022   11.3689 N.am      7 UNK        -0.4454 
     53 C         -50.7172  -24.8380   11.6859 C.2       7 UNK         0.5027 
     54 O         -51.2067  -25.0616   12.7947 O.2       7 UNK        -0.5083 
     55 CA        -50.8626  -25.8869   10.5678 C.3       6 UNK         0.0844 
     56 C56       -51.3712  -25.2962    9.2235 C.3       14 UNK        -0.0967 
     57 S57       -53.1696  -24.9794    9.2864 S.3       14 UNK        -0.2604 
     58 C58       -53.8647  -26.1857    8.1038 C.3       14 UNK         0.0134 
     59 N         -49.6228  -26.6350   10.3970 N.am      6 UNK        -0.4116 
     60 C         -49.2910  -27.7283   11.0957 C.2       5 UNK         0.5034 
     61 O         -49.9581  -28.1914   12.0188 O.2       5 UNK        -0.5045 
     62 CA        -47.9979  -28.4384   10.6781 C.3       5 UNK         0.0224 
     63 CB        -48.1848  -29.1614    9.3324 C.3       5 UNK        -0.1978 
     64 N         -46.8865  -27.4924   10.5820 N.am      5 UNK        -0.4737 
     65 C         -46.0532  -27.2030   11.5906 C.2       4 UNK         0.5027 
     66 O         -46.1031  -27.7443   12.6946 O.2       4 UNK        -0.5211 
     67 CA        -44.9664  -26.1425   11.3294 C.3       4 UNK         0.0297 
     68 CB        -43.6298  -26.8221   10.9908 C.3       4 UNK        -0.1993 
     69 N         -45.3093  -25.2024   10.2601 N.am      4 UNK        -0.4486 
     70 C         -46.2700  -24.2717   10.3404 C.2       3 UNK         0.4961 
     71 O         -46.9456  -24.0679   11.3470 O.2       3 UNK        -0.5105 
     72 CA        -46.5638  -23.4707    9.0596 C.3       3 UNK         0.0299 
     73 CB        -45.6770  -22.2182    8.9907 C.3       3 UNK        -0.1972 
     74 N         -46.4041  -24.2645    7.8342 N.am      3 UNK        -0.4305 
     75 C         -47.1381  -25.3466    7.5435 C.2       2 UNK         0.5006 
     76 O         -48.0303  -25.7818    8.2762 O.2       2 UNK        -0.5106 
     77 CA        -46.7684  -26.1195    6.2722 C.3       2 UNK         0.0296 
     78 CB        -45.7266  -27.2028    6.5973 C.3       2 UNK        -0.2002 
     79 N         -47.9641  -26.7596    5.7292 N.am      2 UNK        -0.4032 
     80 C         -48.8296  -26.1712    4.8982 C.2       1 UNK         0.5000 
     81 O         -48.6332  -25.0681    4.3761 O.2       1 UNK        -0.5238 
     82 H82       -51.8672  -24.8125    1.6865 H         1 UNK         0.0889 
     83 H83       -53.4541  -24.8249    2.4588 H         1 UNK         0.0889 
     84 H84       -53.0372  -26.0684    1.2765 H         1 UNK         0.0889 
     85 H85       -50.2613  -25.5165    3.0988 H         1 UNK         0.3028 
     86 H86       -50.7431  -26.8156    5.5115 H         1 UNK         0.0864 
     87 H87       -50.7830  -28.8432    3.7482 H         1 UNK         0.0720 
     88 H88       -49.0735  -28.6073    3.6767 H         1 UNK         0.0720 
     89 H89       -51.3497  -31.2073    6.2482 H         1 UNK         0.0814 
     90 H90       -52.0461  -30.0021    5.2041 H         1 UNK         0.0814 
     91 H91       -52.6429  -27.7021    6.2132 H         1 UNK         0.1469 
     92 H92       -53.8667  -27.8089   10.3145 H         1 UNK         0.1381 
     93 H93       -51.7452  -31.1291    8.6163 H         1 UNK         0.1206 
     94 H94       -52.4152  -29.6961   11.7036 H         1 UNK         0.0813 
     95 H95       -52.3877  -31.2437   10.8853 H         1 UNK         0.0813 
     96 H96       -53.8274  -32.6715   12.3108 H         1 UNK         0.0638 
     97 H97       -55.4767  -32.3697   12.7364 H         1 UNK         0.0638 
     98 H98       -54.4095  -32.2141   14.7979 H         1 UNK         0.0568 
     99 H99       -50.8575  -32.3681   14.4529 H         1 UNK         0.3450 
    100 H100      -52.3058  -33.3298   14.3160 H         1 UNK         0.3450 
    101 H101      -55.2599  -29.6784   13.7801 H         1 UNK         0.2987 
    102 H102      -56.6217  -28.5071   15.6530 H         1 UNK         0.0766 
    103 H103      -56.0574  -26.8896   17.4766 H         1 UNK         0.0798 
    104 H104      -54.5433  -27.7444   17.7660 H         1 UNK         0.0798 
    105 H105      -56.0783  -28.5510   18.0472 H         1 UNK         0.0798 
    106 H106      -54.2570  -26.7656   15.4765 H         1 UNK         0.3198 
    107 H107      -53.8944  -26.5096   12.3454 H         1 UNK         0.0843 
    108 H108      -56.4540  -24.8514   12.6250 H         1 UNK         0.0831 
    109 H109      -56.0344  -25.9411   11.3123 H         1 UNK         0.0831 
    110 H110      -55.1299  -24.4533   11.5326 H         1 UNK         0.0831 
    111 H111      -52.8544  -25.0864   13.6274 H         1 UNK         0.3133 
    112 H112      -52.9758  -22.5944   14.9543 H         1 UNK         0.0566 
    113 H113      -52.9620  -22.4338   17.4573 H         1 UNK         0.0814 
    114 H114      -54.5886  -22.3165   16.8089 H         1 UNK         0.0814 
    115 H115      -54.0529  -23.8161   17.5528 H         1 UNK         0.0814 
    116 H116      -51.1490  -23.7661   15.3381 H         1 UNK         0.3091 
    117 H117      -50.1033  -26.2473   17.1958 H         1 UNK         0.0702 
    118 H118      -51.1866  -28.1772   16.1001 H         1 UNK         0.0785 
    119 H119      -49.5611  -27.9974   15.4633 H         1 UNK         0.0785 
    120 H120      -50.9457  -27.4675   14.5115 H         1 UNK         0.0785 
    121 H121      -49.6498  -25.2866   14.4003 H         1 UNK         0.2998 
    122 H122      -47.4263  -22.8059   15.4490 H         1 UNK         0.0697 
    123 H123      -46.5084  -25.4126   14.1274 H         1 UNK         0.0825 
    124 H124      -45.7759  -24.6735   15.5442 H         1 UNK         0.0825 
    125 H125      -45.6961  -23.8523   13.9930 H         1 UNK         0.0825 
    126 H126      -47.9007  -23.7427   12.8290 H         1 UNK         0.3029 
    127 H127      -51.0735  -22.1593   12.3158 H         1 UNK         0.0897 
    128 H128      -49.7544  -21.1570   10.4763 H         1 UNK         0.0792 
    129 H129      -49.2771  -20.4517   12.0106 H         1 UNK         0.0792 
    130 H130      -48.2456  -21.6502   11.2454 H         1 UNK         0.0792 
    131 H131      -49.6476  -23.6360   10.4590 H         1 UNK         0.3086 
    132 H132      -51.6185  -26.5965   10.9105 H         1 UNK         0.0583 
    133 H133      -50.8522  -24.3793    8.9415 H         1 UNK         0.1020 
    134 H134      -51.1615  -25.9908    8.4092 H         1 UNK         0.1020 
    135 H135      -54.9464  -26.2252    8.2379 H         1 UNK         0.0694 
    136 H136      -53.6950  -25.8090    7.0938 H         1 UNK         0.0694 
    137 H137      -49.0061  -26.3236    9.6487 H         1 UNK         0.2989 
    138 H138      -47.7745  -29.1947   11.4346 H         1 UNK         0.1055 
    139 H139      -49.0097  -29.8738    9.3849 H         1 UNK         0.0806 
    140 H140      -47.2914  -29.7206    9.0549 H         1 UNK         0.0806 
    141 H141      -48.4117  -28.4686    8.5221 H         1 UNK         0.0806 
    142 H142      -46.8164  -26.9577    9.7274 H         1 UNK         0.3061 
    143 H143      -44.8340  -25.5724   12.2509 H         1 UNK         0.0734 
    144 H144      -42.8288  -26.0913   10.8780 H         1 UNK         0.0832 
    145 H145      -43.3297  -27.5076   11.7847 H         1 UNK         0.0832 
    146 H146      -43.6919  -27.4009   10.0682 H         1 UNK         0.0832 
    147 H147      -44.7985  -25.2893    9.3940 H         1 UNK         0.3156 
    148 H148      -47.6050  -23.1455    9.1090 H         1 UNK         0.0589 
    149 H149      -44.6194  -22.4728    8.9109 H         1 UNK         0.0808 
    150 H150      -45.9383  -21.5932    8.1366 H         1 UNK         0.0808 
    151 H151      -45.7979  -21.6060    9.8858 H         1 UNK         0.0808 
    152 H152      -45.6851  -23.9700    7.1882 H         1 UNK         0.3098 
    153 H153      -46.3480  -25.4305    5.5365 H         1 UNK         0.0720 
    154 H154      -45.4607  -27.7731    5.7069 H         1 UNK         0.0791 
    155 H155      -46.0903  -27.9074    7.3465 H         1 UNK         0.0791 
    156 H156      -44.8065  -26.7618    6.9827 H         1 UNK         0.0791 
    157 H157      -48.2237  -27.6526    6.1277 H         1 UNK         0.3028 
@<TRIPOS>BOND
     1    1    2 1    
     2    1   82 1    
     3    1   83 1    
     4    1   84 1    
     5    2    3 2    
     6    2    4 am   BACKBONE|DICT|INTERRES
     7    4    5 1    
     8    4   85 1    
     9    5    6 1    
    10    5   80 1    
    11    5   86 1    
    12    6    7 1    
    13    6   87 1    
    14    6   88 1    
    15    7    8 1    
    16    8    9 1    
    17    8   89 1    
    18    8   90 1    
    19    9   10 ar   
    20    9   14 ar   
    21   10   11 ar   
    22   10   91 1    
    23   11   12 ar   
    24   11   58 1    
    25   12   13 ar   
    26   12   92 1    
    27   13   14 ar   
    28   13   15 1    
    29   14   93 1    
    30   15   16 1    
    31   15   94 1    
    32   15   95 1    
    33   16   17 1    
    34   17   18 1    
    35   17   96 1    
    36   17   97 1    
    37   18   19 1    
    38   18   22 1    
    39   18   98 1    
    40   19   20 am   BACKBONE|DICT|INTERRES
    41   19   21 2    
    42   20   99 1    
    43   20  100 1    
    44   22   23 am   BACKBONE|DICT|INTERRES
    45   22  101 1    
    46   23   24 2    
    47   23   25 1    
    48   25   26 1    
    49   25   27 1    
    50   25  102 1    
    51   26  103 1    
    52   26  104 1    
    53   26  105 1    
    54   27   28 am   BACKBONE|DICT|INTERRES
    55   27  106 1    
    56   28   29 2    
    57   28   30 1    
    58   30   31 1    
    59   30   32 1    
    60   30  107 1    
    61   31  108 1    
    62   31  109 1    
    63   31  110 1    
    64   32   33 am   BACKBONE|DICT|INTERRES
    65   32  111 1    
    66   33   34 2    
    67   33   35 1    
    68   35   36 1    
    69   35   37 1    
    70   35  112 1    
    71   36  113 1    
    72   36  114 1    
    73   36  115 1    
    74   37   38 am   BACKBONE|DICT|INTERRES
    75   37  116 1    
    76   38   39 2    
    77   38   40 1    
    78   40   41 1    
    79   40   42 1    
    80   40  117 1    
    81   41  118 1    
    82   41  119 1    
    83   41  120 1    
    84   42   43 am   BACKBONE|DICT|INTERRES
    85   42  121 1    
    86   43   44 2    
    87   43   45 1    
    88   45   46 1    
    89   45   47 1    
    90   45  122 1    
    91   46  123 1    
    92   46  124 1    
    93   46  125 1    
    94   47   48 am   BACKBONE|DICT|INTERRES
    95   47  126 1    
    96   48   49 2    
    97   48   50 1    
    98   50   51 1    
    99   50   52 1    
   100   50  127 1    
   101   51  128 1    
   102   51  129 1    
   103   51  130 1    
   104   52   53 am   BACKBONE|DICT|INTERRES
   105   52  131 1    
   106   53   54 2    
   107   53   55 1    
   108   55   56 1    
   109   55   59 1    
   110   55  132 1    
   111   56   57 1    
   112   56  133 1    
   113   56  134 1    
   114   57   58 1    
   115   58  135 1    
   116   58  136 1    
   117   59   60 am   BACKBONE|DICT|INTERRES
   118   59  137 1    
   119   60   61 2    
   120   60   62 1    
   121   62   63 1    
   122   62   64 1    
   123   62  138 1    
   124   63  139 1    
   125   63  140 1    
   126   63  141 1    
   127   64   65 am   BACKBONE|DICT|INTERRES
   128   64  142 1    
   129   65   66 2    
   130   65   67 1    
   131   67   68 1    
   132   67   69 1    
   133   67  143 1    
   134   68  144 1    
   135   68  145 1    
   136   68  146 1    
   137   69   70 am   BACKBONE|DICT|INTERRES
   138   69  147 1    
   139   70   71 2    
   140   70   72 1    
   141   72   73 1    
   142   72   74 1    
   143   72  148 1    
   144   73  149 1    
   145   73  150 1    
   146   73  151 1    
   147   74   75 am   BACKBONE|DICT|INTERRES
   148   74  152 1    
   149   75   76 2    
   150   75   77 1    
   151   77   78 1    
   152   77   79 1    
   153   77  153 1    
   154   78  154 1    
   155   78  155 1    
   156   78  156 1    
   157   79   80 am   BACKBONE|DICT|INTERRES
   158   79  157 1    
   159   80   81 2    
@<TRIPOS>SUBSTRUCTURE
     1 UNK         1 GROUP             0       ****    0 ROOT    
