@<TRIPOS>MOLECULE
3R207
157   159    1
SMALL
USER_CHARGES


@<TRIPOS>ATOM
      1 CA        -47.3126  -31.5867    4.7847 C.3       0 UNK        -0.1975 
      2 C         -47.8564  -30.2580    4.2806 C.2       0 UNK         0.4852 
      3 O         -47.4806  -29.8155    3.1944 O.2       0 UNK        -0.5216 
      4 N         -48.7361  -29.6176    5.0630 N.am      1 UNK        -0.4461 
      5 CA        -49.3794  -28.3361    4.7354 C.3       1 UNK         0.0864 
      6 C6        -50.6256  -28.0768    5.6185 C.3       14 UNK        -0.0898 
      7 S7        -51.8904  -29.3741    5.4144 S.3       14 UNK        -0.2598 
      8 C8        -53.3798  -28.5237    6.0293 C.3       14 UNK         0.0286 
      9 C9        -53.2758  -28.1768    7.5086 C.ar      14 UNK        -0.0844 
     10 C10       -53.3054  -26.8417    7.9275 C.ar      14 UNK        -0.0881 
     11 C11       -53.2212  -26.5217    9.2873 C.ar      14 UNK        -0.0643 
     12 C12       -53.1042  -27.5510   10.2251 C.ar      14 UNK        -0.0930 
     13 C13       -53.0846  -28.8872    9.8212 C.ar      14 UNK        -0.0827 
     14 C14       -53.1737  -29.1955    8.4618 C.ar      14 UNK        -0.1249 
     15 C15       -52.9850  -29.9892   10.8621 C.3       14 UNK         0.0141 
     16 S16       -54.6018  -30.2771   11.6403 S.3       14 UNK        -0.2313 
     17 C17       -54.1325  -31.3591   13.0298 C.3       14 UNK        -0.0915 
     18 CA        -55.2156  -31.3894   14.1392 C.3       13 UNK         0.0968 
     19 C         -54.8212  -32.3850   15.2640 C.2       13 UNK         0.5732 
     20 N         -55.1820  -33.6524   15.1233 N.am      13 UNK        -0.7310 
     21 O         -54.1576  -32.0291   16.2365 O.2       13 UNK        -0.5035 
     22 N         -55.4999  -30.0400   14.6467 N.am      13 UNK        -0.4233 
     23 C         -56.5207  -29.7094   15.4469 C.2       13 UNK         0.4989 
     24 O         -57.3730  -30.5073   15.8403 O.2       13 UNK        -0.4996 
     25 CA        -56.6229  -28.2348   15.8743 C.3       12 UNK         0.0216 
     26 CB        -56.0626  -28.0473   17.2939 C.3       12 UNK        -0.1964 
     27 N         -55.9350  -27.3230   14.9527 N.am      12 UNK        -0.4276 
     28 C         -56.4515  -26.8992   13.7873 C.2       12 UNK         0.5020 
     29 O         -57.5631  -27.2462   13.3840 O.2       12 UNK        -0.5489 
     30 CA        -55.6016  -25.9502   12.9095 C.3       11 UNK         0.0294 
     31 CB        -56.4632  -24.8939   12.1857 C.3       11 UNK        -0.2019 
     32 N         -54.4781  -25.3135   13.6100 N.am      11 UNK        -0.4493 
     33 C         -54.5291  -24.4875   14.6669 C.2       11 UNK         0.4932 
     34 O         -55.5740  -24.0430   15.1439 O.2       11 UNK        -0.5029 
     35 CA        -53.1766  -24.1411   15.3250 C.3       10 UNK         0.0280 
     36 CB        -53.3199  -23.8005   16.8224 C.3       10 UNK        -0.1976 
     37 N         -52.1469  -25.1735   15.1372 N.am      10 UNK        -0.4242 
     38 C         -52.2100  -26.4703   15.4779 C.2       10 UNK         0.5072 
     39 O         -53.2002  -26.9948   15.9873 O.2       10 UNK        -0.5224 
     40 CA        -50.9967  -27.3533   15.1392 C.3       9 UNK         0.0343 
     41 CB        -51.2877  -28.1849   13.8803 C.3       9 UNK        -0.2003 
     42 N         -49.7596  -26.5951   14.9384 N.am      9 UNK        -0.4272 
     43 C         -49.0563  -26.0169   15.9222 C.2       9 UNK         0.4988 
     44 O         -49.3395  -26.1146   17.1168 O.2       9 UNK        -0.5108 
     45 CA        -47.8434  -25.1696   15.5031 C.3       8 UNK         0.0248 
     46 CB        -46.6250  -26.0662   15.2312 C.3       8 UNK        -0.2001 
     47 N         -48.1089  -24.3172   14.3387 N.am      8 UNK        -0.4140 
     48 C         -48.9971  -23.3114   14.3212 C.2       8 UNK         0.5028 
     49 O         -49.6733  -22.9782   15.2944 O.2       8 UNK        -0.5428 
     50 CA        -49.1908  -22.5613   12.9923 C.3       7 UNK         0.0264 
     51 CB        -48.0649  -21.5376   12.7766 C.3       7 UNK        -0.1988 
     52 N         -49.2856  -23.4499   11.8314 N.am      7 UNK        -0.4454 
     53 C         -50.2517  -24.3636   11.6493 C.2       7 UNK         0.5027 
     54 O         -51.1806  -24.5392   12.4393 O.2       7 UNK        -0.5083 
     55 CA        -50.1217  -25.2920   10.4224 C.3       6 UNK         0.0844 
     56 C56       -50.5138  -24.6136    9.0844 C.3       14 UNK        -0.0967 
     57 S57       -52.1972  -23.9197    8.9057 S.3       14 UNK        -0.2604 
     58 C58       -53.3120  -25.0778    9.7687 C.3       14 UNK         0.0134 
     59 N         -48.7778  -25.8618   10.3237 N.am      6 UNK        -0.4116 
     60 C         -48.1737  -26.6164   11.2510 C.2       5 UNK         0.5034 
     61 O         -48.6993  -26.9776   12.3027 O.2       5 UNK        -0.5045 
     62 CA        -46.7077  -26.9802   10.9765 C.3       5 UNK         0.0224 
     63 CB        -46.6080  -28.1466    9.9797 C.3       5 UNK        -0.1978 
     64 N         -45.9437  -25.8307   10.4827 N.am      5 UNK        -0.4737 
     65 C         -45.6613  -24.7436   11.2153 C.2       4 UNK         0.5027 
     66 O         -45.9875  -24.6089   12.3932 O.2       4 UNK        -0.5211 
     67 CA        -44.9262  -23.5977   10.5024 C.3       4 UNK         0.0297 
     68 CB        -43.4169  -23.8796   10.4370 C.3       4 UNK        -0.1993 
     69 N         -45.4421  -23.3477    9.1546 N.am      4 UNK        -0.4486 
     70 C         -46.6780  -22.9020    8.8878 C.2       3 UNK         0.4961 
     71 O         -47.5134  -22.6318    9.7491 O.2       3 UNK        -0.5105 
     72 CA        -47.0649  -22.7870    7.4047 C.3       3 UNK         0.0299 
     73 CB        -46.5572  -21.4623    6.8138 C.3       3 UNK        -0.1972 
     74 N         -46.5899  -23.9097    6.5888 N.am      3 UNK        -0.4305 
     75 C         -46.9217  -25.1918    6.7911 C.2       2 UNK         0.5006 
     76 O         -47.6227  -25.5843    7.7273 O.2       2 UNK        -0.5106 
     77 CA        -46.3325  -26.2167    5.8117 C.3       2 UNK         0.0296 
     78 CB        -45.0446  -26.8292    6.3863 C.3       2 UNK        -0.2002 
     79 N         -47.2945  -27.2839    5.5391 N.am      2 UNK        -0.4032 
     80 C         -48.4124  -27.1345    4.8126 C.2       1 UNK         0.5000 
     81 O         -48.6996  -26.0956    4.2135 O.2       1 UNK        -0.5238 
     82 H82       -46.2281  -31.5367    4.8803 H         1 UNK         0.0889 
     83 H83       -47.5564  -32.3821    4.0810 H         1 UNK         0.0889 
     84 H84       -47.7270  -31.8556    5.7564 H         1 UNK         0.0889 
     85 H85       -49.0341  -30.0434    5.9296 H         1 UNK         0.3028 
     86 H86       -49.7135  -28.3925    3.6966 H         1 UNK         0.0864 
     87 H87       -50.3516  -28.0172    6.6743 H         1 UNK         0.0720 
     88 H88       -51.0800  -27.1165    5.3642 H         1 UNK         0.0720 
     89 H89       -53.5591  -27.6316    5.4271 H         1 UNK         0.0814 
     90 H90       -54.2436  -29.1726    5.8782 H         1 UNK         0.0814 
     91 H91       -53.4029  -26.0485    7.1987 H         1 UNK         0.1469 
     92 H92       -53.0465  -27.3167   11.2780 H         1 UNK         0.1381 
     93 H93       -53.1635  -30.2286    8.1417 H         1 UNK         0.1206 
     94 H94       -52.6302  -30.9173   10.4114 H         1 UNK         0.0813 
     95 H95       -52.2494  -29.7111   11.6170 H         1 UNK         0.0813 
     96 H96       -53.9620  -32.3607   12.6308 H         1 UNK         0.0638 
     97 H97       -53.1787  -31.0229   13.4409 H         1 UNK         0.0638 
     98 H98       -56.1418  -31.7549   13.6904 H         1 UNK         0.0568 
     99 H99       -54.9221  -34.3166   15.8357 H         1 UNK         0.3450 
    100 H100      -55.7148  -33.9579   14.3238 H         1 UNK         0.3450 
    101 H101      -54.8441  -29.3213   14.3854 H         1 UNK         0.2987 
    102 H102      -57.6827  -27.9712   15.8961 H         1 UNK         0.0766 
    103 H103      -56.1205  -27.0057   17.6114 H         1 UNK         0.0798 
    104 H104      -55.0205  -28.3621   17.3630 H         1 UNK         0.0798 
    105 H105      -56.6272  -28.6391   18.0153 H         1 UNK         0.0798 
    106 H106      -55.0082  -27.0121   15.2343 H         1 UNK         0.3198 
    107 H107      -55.1587  -26.5864   12.1429 H         1 UNK         0.0843 
    108 H108      -57.0264  -24.2803   12.8894 H         1 UNK         0.0831 
    109 H109      -57.1856  -25.3676   11.5200 H         1 UNK         0.0831 
    110 H110      -55.8518  -24.2289   11.5767 H         1 UNK         0.0831 
    111 H111      -53.5540  -25.5834   13.3017 H         1 UNK         0.3133 
    112 H112      -52.8074  -23.2514   14.8134 H         1 UNK         0.0566 
    113 H113      -52.3560  -23.5431   17.2617 H         1 UNK         0.0814 
    114 H114      -53.9805  -22.9455   16.9708 H         1 UNK         0.0814 
    115 H115      -53.7345  -24.6356   17.3879 H         1 UNK         0.0814 
    116 H116      -51.3191  -24.8628   14.6429 H         1 UNK         0.3091 
    117 H117      -50.8495  -28.0393   15.9760 H         1 UNK         0.0702 
    118 H118      -51.3937  -27.5517   12.9992 H         1 UNK         0.0785 
    119 H119      -52.2092  -28.7575   13.9912 H         1 UNK         0.0785 
    120 H120      -50.4852  -28.8959   13.6828 H         1 UNK         0.0785 
    121 H121      -49.4173  -26.5268   13.9820 H         1 UNK         0.2998 
    122 H122      -47.5973  -24.5127   16.3399 H         1 UNK         0.0697 
    123 H123      -46.7882  -26.7204   14.3744 H         1 UNK         0.0825 
    124 H124      -46.4061  -26.7009   16.0909 H         1 UNK         0.0825 
    125 H125      -45.7328  -25.4721   15.0325 H         1 UNK         0.0825 
    126 H126      -47.5423  -24.4886   13.5112 H         1 UNK         0.3029 
    127 H127      -50.1344  -22.0155   13.0610 H         1 UNK         0.0897 
    128 H128      -47.0962  -22.0226   12.6522 H         1 UNK         0.0792 
    129 H129      -47.9848  -20.8585   13.6264 H         1 UNK         0.0792 
    130 H130      -48.2485  -20.9284   11.8913 H         1 UNK         0.0792 
    131 H131      -48.5722  -23.3335   11.1140 H         1 UNK         0.3086 
    132 H132      -50.7882  -26.1365   10.5903 H         1 UNK         0.0583 
    133 H133      -49.8117  -23.8101    8.8591 H         1 UNK         0.1020 
    134 H134      -50.3904  -25.3361    8.2753 H         1 UNK         0.1020 
    135 H135      -53.1373  -25.0103   10.8415 H         1 UNK         0.0694 
    136 H136      -54.3360  -24.7359    9.6153 H         1 UNK         0.0694 
    137 H137      -48.2654  -25.6547    9.4692 H         1 UNK         0.2989 
    138 H138      -46.2638  -27.2997   11.9221 H         1 UNK         0.1055 
    139 H139      -47.1355  -29.0238   10.3572 H         1 UNK         0.0806 
    140 H140      -45.5713  -28.4403    9.8144 H         1 UNK         0.0806 
    141 H141      -47.0464  -27.8973    9.0131 H         1 UNK         0.0806 
    142 H142      -45.6823  -25.8368    9.5080 H         1 UNK         0.3061 
    143 H143      -45.0778  -22.6909   11.0919 H         1 UNK         0.0734 
    144 H144      -42.8733  -23.0355   10.0121 H         1 UNK         0.0832 
    145 H145      -43.0110  -24.0540   11.4346 H         1 UNK         0.0832 
    146 H146      -43.1926  -24.7618    9.8361 H         1 UNK         0.0832 
    147 H147      -44.8249  -23.5435    8.3803 H         1 UNK         0.3156 
    148 H148      -48.1553  -22.7836    7.3494 H         1 UNK         0.0589 
    149 H149      -45.4677  -21.4134    6.7998 H         1 UNK         0.0808 
    150 H150      -46.9133  -21.3201    5.7932 H         1 UNK         0.0808 
    151 H151      -46.9136  -20.6132    7.3991 H         1 UNK         0.0808 
    152 H152      -46.0022  -23.6789    5.8002 H         1 UNK         0.3098 
    153 H153      -46.0948  -25.7177    4.8697 H         1 UNK         0.0720 
    154 H154      -44.6007  -27.5406    5.6896 H         1 UNK         0.0791 
    155 H155      -45.2261  -27.3515    7.3260 H         1 UNK         0.0791 
    156 H156      -44.2962  -26.0595    6.5797 H         1 UNK         0.0791 
    157 H157      -47.1513  -28.1618    6.0145 H         1 UNK         0.3028 
@<TRIPOS>BOND
     1    1    2 1    
     2    1   82 1    
     3    1   83 1    
     4    1   84 1    
     5    2    3 2    
     6    2    4 am   BACKBONE|DICT|INTERRES
     7    4    5 1    
     8    4   85 1    
     9    5    6 1    
    10    5   80 1    
    11    5   86 1    
    12    6    7 1    
    13    6   87 1    
    14    6   88 1    
    15    7    8 1    
    16    8    9 1    
    17    8   89 1    
    18    8   90 1    
    19    9   10 ar   
    20    9   14 ar   
    21   10   11 ar   
    22   10   91 1    
    23   11   12 ar   
    24   11   58 1    
    25   12   13 ar   
    26   12   92 1    
    27   13   14 ar   
    28   13   15 1    
    29   14   93 1    
    30   15   16 1    
    31   15   94 1    
    32   15   95 1    
    33   16   17 1    
    34   17   18 1    
    35   17   96 1    
    36   17   97 1    
    37   18   19 1    
    38   18   22 1    
    39   18   98 1    
    40   19   20 am   BACKBONE|DICT|INTERRES
    41   19   21 2    
    42   20   99 1    
    43   20  100 1    
    44   22   23 am   BACKBONE|DICT|INTERRES
    45   22  101 1    
    46   23   24 2    
    47   23   25 1    
    48   25   26 1    
    49   25   27 1    
    50   25  102 1    
    51   26  103 1    
    52   26  104 1    
    53   26  105 1    
    54   27   28 am   BACKBONE|DICT|INTERRES
    55   27  106 1    
    56   28   29 2    
    57   28   30 1    
    58   30   31 1    
    59   30   32 1    
    60   30  107 1    
    61   31  108 1    
    62   31  109 1    
    63   31  110 1    
    64   32   33 am   BACKBONE|DICT|INTERRES
    65   32  111 1    
    66   33   34 2    
    67   33   35 1    
    68   35   36 1    
    69   35   37 1    
    70   35  112 1    
    71   36  113 1    
    72   36  114 1    
    73   36  115 1    
    74   37   38 am   BACKBONE|DICT|INTERRES
    75   37  116 1    
    76   38   39 2    
    77   38   40 1    
    78   40   41 1    
    79   40   42 1    
    80   40  117 1    
    81   41  118 1    
    82   41  119 1    
    83   41  120 1    
    84   42   43 am   BACKBONE|DICT|INTERRES
    85   42  121 1    
    86   43   44 2    
    87   43   45 1    
    88   45   46 1    
    89   45   47 1    
    90   45  122 1    
    91   46  123 1    
    92   46  124 1    
    93   46  125 1    
    94   47   48 am   BACKBONE|DICT|INTERRES
    95   47  126 1    
    96   48   49 2    
    97   48   50 1    
    98   50   51 1    
    99   50   52 1    
   100   50  127 1    
   101   51  128 1    
   102   51  129 1    
   103   51  130 1    
   104   52   53 am   BACKBONE|DICT|INTERRES
   105   52  131 1    
   106   53   54 2    
   107   53   55 1    
   108   55   56 1    
   109   55   59 1    
   110   55  132 1    
   111   56   57 1    
   112   56  133 1    
   113   56  134 1    
   114   57   58 1    
   115   58  135 1    
   116   58  136 1    
   117   59   60 am   BACKBONE|DICT|INTERRES
   118   59  137 1    
   119   60   61 2    
   120   60   62 1    
   121   62   63 1    
   122   62   64 1    
   123   62  138 1    
   124   63  139 1    
   125   63  140 1    
   126   63  141 1    
   127   64   65 am   BACKBONE|DICT|INTERRES
   128   64  142 1    
   129   65   66 2    
   130   65   67 1    
   131   67   68 1    
   132   67   69 1    
   133   67  143 1    
   134   68  144 1    
   135   68  145 1    
   136   68  146 1    
   137   69   70 am   BACKBONE|DICT|INTERRES
   138   69  147 1    
   139   70   71 2    
   140   70   72 1    
   141   72   73 1    
   142   72   74 1    
   143   72  148 1    
   144   73  149 1    
   145   73  150 1    
   146   73  151 1    
   147   74   75 am   BACKBONE|DICT|INTERRES
   148   74  152 1    
   149   75   76 2    
   150   75   77 1    
   151   77   78 1    
   152   77   79 1    
   153   77  153 1    
   154   78  154 1    
   155   78  155 1    
   156   78  156 1    
   157   79   80 am   BACKBONE|DICT|INTERRES
   158   79  157 1    
   159   80   81 2    
@<TRIPOS>SUBSTRUCTURE
     1 UNK         1 GROUP             0       ****    0 ROOT    
