@<TRIPOS>MOLECULE
3R207
157   159    1
SMALL
USER_CHARGES


@<TRIPOS>ATOM
      1 CA        -51.6229  -23.7626    6.4661 C.3       0 UNK        -0.1975 
      2 C         -51.0851  -25.1854    6.4776 C.2       0 UNK         0.4852 
      3 O         -50.4774  -25.5977    7.4639 O.2       0 UNK        -0.5216 
      4 N         -51.3123  -25.9373    5.3931 N.am      1 UNK        -0.4461 
      5 CA        -50.8049  -27.2987    5.2130 C.3       1 UNK         0.0864 
      6 C6        -51.7042  -28.1093    4.2422 C.3       14 UNK        -0.0898 
      7 S7        -51.5099  -29.9151    4.4407 S.3       14 UNK        -0.2598 
      8 C8        -52.8818  -30.3215    5.5717 C.3       14 UNK         0.0286 
      9 C9        -52.6988  -29.6454    6.9212 C.ar      14 UNK        -0.0844 
     10 C10       -51.7967  -30.1682    7.8529 C.ar      14 UNK        -0.0881 
     11 C11       -51.5650  -29.5049    9.0607 C.ar      14 UNK        -0.0643 
     12 C12       -52.2422  -28.3135    9.3303 C.ar      14 UNK        -0.0930 
     13 C13       -53.1634  -27.7933    8.4187 C.ar      14 UNK        -0.0827 
     14 C14       -53.3962  -28.4704    7.2193 C.ar      14 UNK        -0.1249 
     15 C15       -53.8784  -26.4820    8.7069 C.3       14 UNK         0.0141 
     16 S16       -55.4400  -26.7310    9.6093 S.3       14 UNK        -0.2313 
     17 C17       -54.8580  -26.9722   11.3215 C.3       14 UNK        -0.0915 
     18 CA        -55.4211  -28.2498   11.9950 C.3       13 UNK         0.0968 
     19 C         -54.7482  -29.5535   11.4785 C.2       13 UNK         0.5732 
     20 N         -55.2707  -30.1430   10.4124 N.am      13 UNK        -0.7310 
     21 O         -53.7513  -30.0225   12.0248 O.2       13 UNK        -0.5035 
     22 N         -55.3209  -28.1199   13.4519 N.am      13 UNK        -0.4233 
     23 C         -55.9630  -28.8798   14.3465 C.2       13 UNK         0.4989 
     24 O         -56.7834  -29.7483   14.0464 O.2       13 UNK        -0.4996 
     25 CA        -55.6446  -28.6304   15.8327 C.3       12 UNK         0.0216 
     26 CB        -54.7543  -29.7555   16.3852 C.3       12 UNK        -0.1964 
     27 N         -55.0004  -27.3362   16.0905 N.am      12 UNK        -0.4276 
     28 C         -55.6285  -26.1495   16.0362 C.2       12 UNK         0.5020 
     29 O         -56.8210  -26.0325   15.7477 O.2       12 UNK        -0.5489 
     30 CA        -54.7926  -24.8848   16.3376 C.3       11 UNK         0.0294 
     31 CB        -55.6483  -23.7150   16.8693 C.3       11 UNK        -0.2019 
     32 N         -53.6459  -25.1384   17.2178 N.am      11 UNK        -0.4493 
     33 C         -53.6681  -25.6252   18.4689 C.2       11 UNK         0.4932 
     34 O         -54.7012  -25.8053   19.1151 O.2       11 UNK        -0.5029 
     35 CA        -52.3071  -26.0007   19.0953 C.3       10 UNK         0.0280 
     36 CB        -52.4221  -27.2214   20.0329 C.3       10 UNK        -0.1976 
     37 N         -51.2233  -26.2133   18.1231 N.am      10 UNK        -0.4242 
     38 C         -51.1813  -27.0901   17.1088 C.2       10 UNK         0.5072 
     39 O         -52.1253  -27.8172   16.7931 O.2       10 UNK        -0.5224 
     40 CA        -49.8821  -27.1005   16.2796 C.3       9 UNK         0.0343 
     41 CB        -49.7365  -28.3844   15.4435 C.3       9 UNK        -0.2003 
     42 N         -49.7965  -25.9346   15.3945 N.am      9 UNK        -0.4272 
     43 C         -49.5702  -24.6743   15.7977 C.2       9 UNK         0.4988 
     44 O         -49.3733  -24.3758   16.9775 O.2       9 UNK        -0.5108 
     45 CA        -49.5505  -23.5452   14.7477 C.3       8 UNK         0.0248 
     46 CB        -48.1819  -22.8439   14.7401 C.3       8 UNK        -0.2001 
     47 N         -49.8776  -23.9616   13.3821 N.am      8 UNK        -0.4140 
     48 C         -51.0932  -24.3186   12.9470 C.2       8 UNK         0.5028 
     49 O         -52.0977  -24.3430   13.6593 O.2       8 UNK        -0.5428 
     50 CA        -51.1929  -24.7616   11.4766 C.3       7 UNK         0.0264 
     51 CB        -51.3523  -23.5492   10.5467 C.3       7 UNK        -0.1988 
     52 N         -50.0496  -25.5696   11.0390 N.am      7 UNK        -0.4454 
     53 C         -49.7371  -26.7743   11.5409 C.2       7 UNK         0.5027 
     54 O         -50.4022  -27.3388   12.4076 O.2       7 UNK        -0.5083 
     55 CA        -48.4487  -27.4354   11.0145 C.3       6 UNK         0.0844 
     56 C56       -48.6484  -28.0504    9.5991 C.3       14 UNK        -0.0967 
     57 S57       -48.8530  -29.8626    9.6137 S.3       14 UNK        -0.2604 
     58 C58       -50.5993  -30.0812   10.0849 C.3       14 UNK         0.0134 
     59 N         -47.3436  -26.4753   11.0555 N.am      6 UNK        -0.4116 
     60 C         -46.7426  -26.0482   12.1774 C.2       5 UNK         0.5034 
     61 O         -46.9958  -26.4865   13.2991 O.2       5 UNK        -0.5045 
     62 CA        -45.6897  -24.9305   12.0386 C.3       5 UNK         0.0224 
     63 CB        -44.2776  -25.5333   11.9665 C.3       5 UNK        -0.1978 
     64 N         -45.8976  -24.0585   10.8795 N.am      5 UNK        -0.4737 
     65 C         -46.9765  -23.2900   10.6719 C.2       4 UNK         0.5027 
     66 O         -47.8893  -23.1649   11.4860 O.2       4 UNK        -0.5211 
     67 CA        -47.0904  -22.6054    9.2961 C.3       4 UNK         0.0297 
     68 CB        -46.5512  -21.1686    9.3674 C.3       4 UNK        -0.1993 
     69 N         -46.4184  -23.3312    8.2073 N.am      4 UNK        -0.4486 
     70 C         -46.6821  -24.5983    7.8600 C.2       3 UNK         0.4961 
     71 O         -47.5156  -25.3043    8.4323 O.2       3 UNK        -0.5105 
     72 CA        -45.8221  -25.2076    6.7500 C.3       3 UNK         0.0299 
     73 CB        -44.4282  -25.5760    7.2995 C.3       3 UNK        -0.1972 
     74 N         -46.5152  -26.3967    6.2656 N.am      3 UNK        -0.4305 
     75 C         -46.2074  -27.1242    5.1871 C.2       2 UNK         0.5006 
     76 O         -45.2621  -26.8778    4.4366 O.2       2 UNK        -0.5106 
     77 CA        -47.1057  -28.3389    4.8893 C.3       2 UNK         0.0296 
     78 CB        -46.5552  -29.5939    5.5868 C.3       2 UNK        -0.2002 
     79 N         -48.5114  -28.1600    5.2673 N.am      2 UNK        -0.4032 
     80 C         -49.3424  -27.2535    4.7337 C.2       1 UNK         0.5000 
     81 O         -49.0087  -26.4317    3.8749 O.2       1 UNK        -0.5238 
     82 H82       -50.8381  -23.0639    6.7551 H         1 UNK         0.0889 
     83 H83       -52.4438  -23.6669    7.1758 H         1 UNK         0.0889 
     84 H84       -51.9880  -23.4732    5.4810 H         1 UNK         0.0889 
     85 H85       -51.7789  -25.5338    4.5938 H         1 UNK         0.3028 
     86 H86       -50.8229  -27.7845    6.1906 H         1 UNK         0.0864 
     87 H87       -51.5031  -27.8443    3.2022 H         1 UNK         0.0720 
     88 H88       -52.7544  -27.8632    4.4048 H         1 UNK         0.0720 
     89 H89       -52.9249  -31.4033    5.7064 H         1 UNK         0.0814 
     90 H90       -53.8304  -30.0321    5.1167 H         1 UNK         0.0814 
     91 H91       -51.2579  -31.0791    7.6298 H         1 UNK         0.1469 
     92 H92       -52.0550  -27.7967   10.2584 H         1 UNK         0.1381 
     93 H93       -54.0949  -28.0619    6.5024 H         1 UNK         0.1206 
     94 H94       -54.0996  -25.9739    7.7672 H         1 UNK         0.0813 
     95 H95       -53.2271  -25.8062    9.2619 H         1 UNK         0.0813 
     96 H96       -55.1838  -26.0889   11.8737 H         1 UNK         0.0638 
     97 H97       -53.7711  -26.9602   11.3733 H         1 UNK         0.0638 
     98 H98       -56.4864  -28.3116   11.7637 H         1 UNK         0.0568 
     99 H99       -54.8332  -30.9750   10.0516 H         1 UNK         0.3450 
    100 H100      -56.0600  -29.7405    9.9330 H         1 UNK         0.3450 
    101 H101      -54.6361  -27.4645   13.7946 H         1 UNK         0.2987 
    102 H102      -56.5920  -28.6503   16.3755 H         1 UNK         0.0766 
    103 H103      -54.5480  -29.6149   17.4465 H         1 UNK         0.0798 
    104 H104      -53.7980  -29.8052   15.8623 H         1 UNK         0.0798 
    105 H105      -55.2373  -30.7272   16.2740 H         1 UNK         0.0798 
    106 H106      -54.0161  -27.3662   16.3476 H         1 UNK         0.3198 
    107 H107      -54.3722  -24.5733   15.3798 H         1 UNK         0.0843 
    108 H108      -55.0381  -22.8333   17.0652 H         1 UNK         0.0831 
    109 H109      -56.1661  -23.9779   17.7921 H         1 UNK         0.0831 
    110 H110      -56.4088  -23.4250   16.1432 H         1 UNK         0.0831 
    111 H111      -52.7393  -25.0317   16.7843 H         1 UNK         0.3133 
    112 H112      -52.0074  -25.1436   19.6998 H         1 UNK         0.0566 
    113 H113      -51.4613  -27.4668   20.4855 H         1 UNK         0.0814 
    114 H114      -53.1205  -27.0289   20.8482 H         1 UNK         0.0814 
    115 H115      -52.7783  -28.1048   19.5014 H         1 UNK         0.0814 
    116 H116      -50.4318  -25.5805   18.2009 H         1 UNK         0.3091 
    117 H117      -49.0415  -27.0660   16.9760 H         1 UNK         0.0702 
    118 H118      -48.8129  -28.3794   14.8639 H         1 UNK         0.0785 
    119 H119      -50.5668  -28.5119   14.7480 H         1 UNK         0.0785 
    120 H120      -49.7153  -29.2657   16.0856 H         1 UNK         0.0785 
    121 H121      -49.9639  -26.1073   14.4117 H         1 UNK         0.2998 
    122 H122      -50.3003  -22.8147   15.0582 H         1 UNK         0.0697 
    123 H123      -48.1653  -22.0088   14.0395 H         1 UNK         0.0825 
    124 H124      -47.9383  -22.4424   15.7247 H         1 UNK         0.0825 
    125 H125      -47.3837  -23.5320   14.4626 H         1 UNK         0.0825 
    126 H126      -49.1248  -23.8989   12.6995 H         1 UNK         0.3029 
    127 H127      -52.0870  -25.3784   11.3861 H         1 UNK         0.0897 
    128 H128      -51.4865  -23.8610    9.5115 H         1 UNK         0.0792 
    129 H129      -52.2260  -22.9577   10.8238 H         1 UNK         0.0792 
    130 H130      -50.4846  -22.8897   10.5871 H         1 UNK         0.0792 
    131 H131      -49.4606  -25.1771   10.3158 H         1 UNK         0.3086 
    132 H132      -48.1907  -28.2375   11.7099 H         1 UNK         0.0583 
    133 H133      -49.4627  -27.5817    9.0421 H         1 UNK         0.1020 
    134 H134      -47.7622  -27.8724    8.9889 H         1 UNK         0.1020 
    135 H135      -50.7980  -31.1479   10.1974 H         1 UNK         0.0694 
    136 H136      -50.7704  -29.6434   11.0690 H         1 UNK         0.0694 
    137 H137      -47.1240  -26.0190   10.1753 H         1 UNK         0.2989 
    138 H138      -45.7522  -24.3109   12.9350 H         1 UNK         0.1055 
    139 H139      -44.0803  -26.1693   12.8309 H         1 UNK         0.0806 
    140 H140      -43.5131  -24.7560   11.9589 H         1 UNK         0.0806 
    141 H141      -44.1441  -26.1463   11.0741 H         1 UNK         0.0806 
    142 H142      -45.1980  -24.0931   10.1527 H         1 UNK         0.3061 
    143 H143      -48.1533  -22.5606    9.0488 H         1 UNK         0.0734 
    144 H144      -46.7189  -20.6333    8.4327 H         1 UNK         0.0832 
    145 H145      -47.0521  -20.6038   10.1553 H         1 UNK         0.0832 
    146 H146      -45.4819  -21.1477    9.5819 H         1 UNK         0.0832 
    147 H147      -45.7078  -22.8257    7.6967 H         1 UNK         0.3156 
    148 H148      -45.7312  -24.4888    5.9334 H         1 UNK         0.0589 
    149 H149      -44.4948  -26.3090    8.1048 H         1 UNK         0.0808 
    150 H150      -43.7864  -25.9931    6.5237 H         1 UNK         0.0808 
    151 H151      -43.9139  -24.6999    7.6959 H         1 UNK         0.0808 
    152 H152      -47.3323  -26.6342    6.8161 H         1 UNK         0.3098 
    153 H153      -47.0759  -28.5078    3.8108 H         1 UNK         0.0720 
    154 H154      -46.5946  -29.5030    6.6734 H         1 UNK         0.0791 
    155 H155      -45.5140  -29.7688    5.3118 H         1 UNK         0.0791 
    156 H156      -47.1166  -30.4846    5.3037 H         1 UNK         0.0791 
    157 H157      -48.8807  -28.8104    5.9463 H         1 UNK         0.3028 
@<TRIPOS>BOND
     1    1    2 1    
     2    1   82 1    
     3    1   83 1    
     4    1   84 1    
     5    2    3 2    
     6    2    4 am   BACKBONE|DICT|INTERRES
     7    4    5 1    
     8    4   85 1    
     9    5    6 1    
    10    5   80 1    
    11    5   86 1    
    12    6    7 1    
    13    6   87 1    
    14    6   88 1    
    15    7    8 1    
    16    8    9 1    
    17    8   89 1    
    18    8   90 1    
    19    9   10 ar   
    20    9   14 ar   
    21   10   11 ar   
    22   10   91 1    
    23   11   12 ar   
    24   11   58 1    
    25   12   13 ar   
    26   12   92 1    
    27   13   14 ar   
    28   13   15 1    
    29   14   93 1    
    30   15   16 1    
    31   15   94 1    
    32   15   95 1    
    33   16   17 1    
    34   17   18 1    
    35   17   96 1    
    36   17   97 1    
    37   18   19 1    
    38   18   22 1    
    39   18   98 1    
    40   19   20 am   BACKBONE|DICT|INTERRES
    41   19   21 2    
    42   20   99 1    
    43   20  100 1    
    44   22   23 am   BACKBONE|DICT|INTERRES
    45   22  101 1    
    46   23   24 2    
    47   23   25 1    
    48   25   26 1    
    49   25   27 1    
    50   25  102 1    
    51   26  103 1    
    52   26  104 1    
    53   26  105 1    
    54   27   28 am   BACKBONE|DICT|INTERRES
    55   27  106 1    
    56   28   29 2    
    57   28   30 1    
    58   30   31 1    
    59   30   32 1    
    60   30  107 1    
    61   31  108 1    
    62   31  109 1    
    63   31  110 1    
    64   32   33 am   BACKBONE|DICT|INTERRES
    65   32  111 1    
    66   33   34 2    
    67   33   35 1    
    68   35   36 1    
    69   35   37 1    
    70   35  112 1    
    71   36  113 1    
    72   36  114 1    
    73   36  115 1    
    74   37   38 am   BACKBONE|DICT|INTERRES
    75   37  116 1    
    76   38   39 2    
    77   38   40 1    
    78   40   41 1    
    79   40   42 1    
    80   40  117 1    
    81   41  118 1    
    82   41  119 1    
    83   41  120 1    
    84   42   43 am   BACKBONE|DICT|INTERRES
    85   42  121 1    
    86   43   44 2    
    87   43   45 1    
    88   45   46 1    
    89   45   47 1    
    90   45  122 1    
    91   46  123 1    
    92   46  124 1    
    93   46  125 1    
    94   47   48 am   BACKBONE|DICT|INTERRES
    95   47  126 1    
    96   48   49 2    
    97   48   50 1    
    98   50   51 1    
    99   50   52 1    
   100   50  127 1    
   101   51  128 1    
   102   51  129 1    
   103   51  130 1    
   104   52   53 am   BACKBONE|DICT|INTERRES
   105   52  131 1    
   106   53   54 2    
   107   53   55 1    
   108   55   56 1    
   109   55   59 1    
   110   55  132 1    
   111   56   57 1    
   112   56  133 1    
   113   56  134 1    
   114   57   58 1    
   115   58  135 1    
   116   58  136 1    
   117   59   60 am   BACKBONE|DICT|INTERRES
   118   59  137 1    
   119   60   61 2    
   120   60   62 1    
   121   62   63 1    
   122   62   64 1    
   123   62  138 1    
   124   63  139 1    
   125   63  140 1    
   126   63  141 1    
   127   64   65 am   BACKBONE|DICT|INTERRES
   128   64  142 1    
   129   65   66 2    
   130   65   67 1    
   131   67   68 1    
   132   67   69 1    
   133   67  143 1    
   134   68  144 1    
   135   68  145 1    
   136   68  146 1    
   137   69   70 am   BACKBONE|DICT|INTERRES
   138   69  147 1    
   139   70   71 2    
   140   70   72 1    
   141   72   73 1    
   142   72   74 1    
   143   72  148 1    
   144   73  149 1    
   145   73  150 1    
   146   73  151 1    
   147   74   75 am   BACKBONE|DICT|INTERRES
   148   74  152 1    
   149   75   76 2    
   150   75   77 1    
   151   77   78 1    
   152   77   79 1    
   153   77  153 1    
   154   78  154 1    
   155   78  155 1    
   156   78  156 1    
   157   79   80 am   BACKBONE|DICT|INTERRES
   158   79  157 1    
   159   80   81 2    
@<TRIPOS>SUBSTRUCTURE
     1 UNK         1 GROUP             0       ****    0 ROOT    
