@<TRIPOS>MOLECULE
3R207
157   159    1
SMALL
USER_CHARGES


@<TRIPOS>ATOM
      1 CA        -50.5013  -30.3163   10.1998 C.3       0 UNK        -0.1975 
      2 C         -49.6928  -30.7413    8.9858 C.2       0 UNK         0.4852 
      3 O         -48.6514  -31.3787    9.1464 O.2       0 UNK        -0.5216 
      4 N         -50.1510  -30.3921    7.7729 N.am      1 UNK        -0.4461 
      5 CA        -49.4571  -30.7176    6.5176 C.3       1 UNK         0.0864 
      6 C6        -50.4073  -30.7510    5.2922 C.3       14 UNK        -0.0898 
      7 S7        -51.0309  -29.1278    4.7309 S.3       14 UNK        -0.2598 
      8 C8        -52.8119  -29.2649    5.0860 C.3       14 UNK         0.0286 
      9 C9        -53.0896  -29.1208    6.5728 C.ar      14 UNK        -0.0844 
     10 C10       -52.8222  -27.9052    7.2048 C.ar      14 UNK        -0.0881 
     11 C11       -53.0354  -27.7625    8.5741 C.ar      14 UNK        -0.0643 
     12 C12       -53.5390  -28.8353    9.3114 C.ar      14 UNK        -0.0930 
     13 C13       -53.8387  -30.0540    8.6901 C.ar      14 UNK        -0.0827 
     14 C14       -53.6015  -30.1892    7.3172 C.ar      14 UNK        -0.1249 
     15 C15       -54.3684  -31.2541    9.4769 C.3       14 UNK         0.0141 
     16 S16       -55.2975  -30.8378   10.9956 S.3       14 UNK        -0.2313 
     17 C17       -56.8644  -30.1861   10.3181 C.3       14 UNK        -0.0915 
     18 CA        -56.9469  -28.6294   10.2917 C.3       13 UNK         0.0968 
     19 C         -58.2660  -28.1099    9.6423 C.2       13 UNK         0.5732 
     20 N         -58.7933  -26.9604   10.0474 N.am      13 UNK        -0.7310 
     21 O         -58.8077  -28.7365    8.7342 O.2       13 UNK        -0.5035 
     22 N         -56.6047  -28.0002   11.5812 N.am      13 UNK        -0.4233 
     23 C         -57.2671  -28.1246   12.7374 C.2       13 UNK         0.4989 
     24 O         -58.2875  -28.8014   12.8780 O.2       13 UNK        -0.4996 
     25 CA        -56.6744  -27.3615   13.9412 C.3       12 UNK         0.0216 
     26 CB        -57.5674  -27.4434   15.1939 C.3       12 UNK        -0.1964 
     27 N         -55.3284  -27.8272   14.2899 N.am      12 UNK        -0.4276 
     28 C         -54.2099  -27.5568   13.6070 C.2       12 UNK         0.5020 
     29 O         -54.1810  -26.8509   12.5963 O.2       12 UNK        -0.5489 
     30 CA        -52.9106  -28.1580   14.1586 C.3       11 UNK         0.0294 
     31 CB        -51.9416  -28.5686   13.0370 C.3       11 UNK        -0.2019 
     32 N         -52.2535  -27.1907   15.0339 N.am      11 UNK        -0.4493 
     33 C         -52.5182  -27.0365   16.3378 C.2       11 UNK         0.4932 
     34 O         -53.3721  -27.6879   16.9429 O.2       11 UNK        -0.5029 
     35 CA        -51.6603  -25.9918   17.0795 C.3       10 UNK         0.0280 
     36 CB        -51.8156  -26.0446   18.6143 C.3       10 UNK        -0.1976 
     37 N         -50.2502  -26.0669   16.6757 N.am      10 UNK        -0.4242 
     38 C         -49.4039  -27.0956   16.8436 C.2       10 UNK         0.5072 
     39 O         -49.6628  -28.1061   17.4985 O.2       10 UNK        -0.5224 
     40 CA        -48.0420  -27.0077   16.1294 C.3       9 UNK         0.0343 
     41 CB        -48.0741  -27.8295   14.8299 C.3       9 UNK        -0.2003 
     42 N         -47.6171  -25.6412   15.8145 N.am      9 UNK        -0.4272 
     43 C         -47.2054  -24.7405   16.7186 C.2       9 UNK         0.4988 
     44 O         -47.1398  -24.9605   17.9283 O.2       9 UNK        -0.5108 
     45 CA        -46.8058  -23.3587   16.1800 C.3       8 UNK         0.0248 
     46 CB        -45.3821  -23.3887   15.5989 C.3       8 UNK        -0.2001 
     47 N         -47.7450  -22.8910   15.1597 N.am      8 UNK        -0.4140 
     48 C         -48.9180  -22.2992   15.4258 C.2       8 UNK         0.5028 
     49 O         -49.3052  -22.0233   16.5616 O.2       8 UNK        -0.5428 
     50 CA        -49.8224  -21.9682   14.2250 C.3       7 UNK         0.0264 
     51 CB        -49.5144  -20.5613   13.6883 C.3       7 UNK        -0.1988 
     52 N         -49.7082  -22.9374   13.1329 N.am      7 UNK        -0.4454 
     53 C         -50.1211  -24.2122   13.2056 C.2       7 UNK         0.5027 
     54 O         -50.6794  -24.6972   14.1895 O.2       7 UNK        -0.5083 
     55 CA        -49.8393  -25.1218   11.9949 C.3       6 UNK         0.0844 
     56 C56       -51.0668  -25.1314   11.0602 C.3       14 UNK        -0.0967 
     57 S57       -50.9757  -26.4711    9.8356 S.3       14 UNK        -0.2604 
     58 C58       -52.6992  -26.4581    9.2657 C.3       14 UNK         0.0134 
     59 N         -48.5985  -24.7793   11.2903 N.am      6 UNK        -0.4116 
     60 C         -47.3790  -24.7445   11.8521 C.2       5 UNK         0.5034 
     61 O         -47.1683  -25.0332   13.0309 O.2       5 UNK        -0.5045 
     62 CA        -46.1971  -24.2662   10.9902 C.3       5 UNK         0.0224 
     63 CB        -45.2928  -25.4471   10.6166 C.3       5 UNK        -0.1978 
     64 N         -46.5992  -23.5499    9.7755 N.am      5 UNK        -0.4737 
     65 C         -47.1784  -22.3397    9.7745 C.2       4 UNK         0.5027 
     66 O         -47.4148  -21.7023   10.8015 O.2       4 UNK        -0.5211 
     67 CA        -47.5984  -21.7513    8.4150 C.3       4 UNK         0.0297 
     68 CB        -46.5324  -20.7676    7.9074 C.3       4 UNK        -0.1993 
     69 N         -47.8652  -22.7523    7.3765 N.am      4 UNK        -0.4486 
     70 C         -48.8075  -23.7040    7.4388 C.2       3 UNK         0.4961 
     71 O         -49.5521  -23.8532    8.4057 O.2       3 UNK        -0.5105 
     72 CA        -48.9419  -24.6523    6.2290 C.3       3 UNK         0.0299 
     73 CB        -48.3027  -24.0983    4.9355 C.3       3 UNK        -0.1972 
     74 N         -48.4405  -26.0093    6.4878 N.am      3 UNK        -0.4305 
     75 C         -47.2379  -26.3563    6.9757 C.2       2 UNK         0.5006 
     76 O         -46.4020  -25.5447    7.3790 O.2       2 UNK        -0.5106 
     77 CA        -46.8914  -27.8573    6.9794 C.3       2 UNK         0.0296 
     78 CB        -45.9756  -28.2694    8.1475 C.3       2 UNK        -0.2002 
     79 N         -48.0771  -28.7179    6.9730 N.am      2 UNK        -0.4032 
     80 C         -48.1928  -29.8593    6.2766 C.2       1 UNK         0.5000 
     81 O         -47.3409  -30.2633    5.4819 O.2       1 UNK        -0.5238 
     82 H82       -50.9844  -29.3577   10.0321 H         1 UNK         0.0889 
     83 H83       -49.8558  -30.2109   11.0714 H         1 UNK         0.0889 
     84 H84       -51.2651  -31.0583   10.4282 H         1 UNK         0.0889 
     85 H85       -51.0247  -29.8879    7.6819 H         1 UNK         0.3028 
     86 H86       -49.0866  -31.7397    6.6266 H         1 UNK         0.0864 
     87 H87       -49.8913  -31.2077    4.4457 H         1 UNK         0.0720 
     88 H88       -51.2482  -31.4136    5.5025 H         1 UNK         0.0720 
     89 H89       -53.1970  -30.2091    4.6977 H         1 UNK         0.0814 
     90 H90       -53.3402  -28.4760    4.5487 H         1 UNK         0.0814 
     91 H91       -52.4232  -27.0773    6.6341 H         1 UNK         0.1469 
     92 H92       -53.6832  -28.7121   10.3753 H         1 UNK         0.1381 
     93 H93       -53.8085  -31.1316    6.8282 H         1 UNK         0.1206 
     94 H94       -53.5191  -31.8773    9.7579 H         1 UNK         0.0813 
     95 H95       -55.0010  -31.8731    8.8388 H         1 UNK         0.0813 
     96 H96       -57.6798  -30.5956   10.9160 H         1 UNK         0.0638 
     97 H97       -57.0007  -30.5907    9.3139 H         1 UNK         0.0638 
     98 H98       -56.1781  -28.2849    9.6023 H         1 UNK         0.0568 
     99 H99       -59.6403  -26.6271    9.6149 H         1 UNK         0.3450 
    100 H100      -58.3552  -26.4263   10.7799 H         1 UNK         0.3450 
    101 H101      -55.7516  -27.4486   11.5983 H         1 UNK         0.2987 
    102 H102      -56.6099  -26.3100   13.6527 H         1 UNK         0.0766 
    103 H103      -57.1636  -26.8424   16.0091 H         1 UNK         0.0798 
    104 H104      -57.6702  -28.4687   15.5518 H         1 UNK         0.0798 
    105 H105      -58.5703  -27.0686   14.9846 H         1 UNK         0.0798 
    106 H106      -55.2523  -28.3985   15.1205 H         1 UNK         0.3198 
    107 H107      -53.1531  -29.0592   14.7267 H         1 UNK         0.0843 
    108 H108      -52.4035  -29.3053   12.3789 H         1 UNK         0.0831 
    109 H109      -51.0340  -29.0178   13.4402 H         1 UNK         0.0831 
    110 H110      -51.6496  -27.7195   12.4214 H         1 UNK         0.0831 
    111 H111      -51.6073  -26.5392   14.6027 H         1 UNK         0.3133 
    112 H112      -52.0169  -25.0153   16.7483 H         1 UNK         0.0566 
    113 H113      -51.1932  -25.2940   19.1014 H         1 UNK         0.0814 
    114 H114      -52.8480  -25.8496   18.9069 H         1 UNK         0.0814 
    115 H115      -51.5447  -27.0200   19.0190 H         1 UNK         0.0814 
    116 H116      -49.9540  -25.3247   16.0523 H         1 UNK         0.3091 
    117 H117      -47.2951  -27.4482   16.7933 H         1 UNK         0.0702 
    118 H118      -47.1054  -27.8217   14.3297 H         1 UNK         0.0785 
    119 H119      -48.8155  -27.4453   14.1296 H         1 UNK         0.0785 
    120 H120      -48.3270  -28.8712   15.0320 H         1 UNK         0.0785 
    121 H121      -47.5730  -25.3940   14.8287 H         1 UNK         0.2998 
    122 H122      -46.8114  -22.6565   17.0167 H         1 UNK         0.0697 
    123 H123      -45.2975  -24.0756   14.7561 H         1 UNK         0.0825 
    124 H124      -44.6621  -23.7099   16.3528 H         1 UNK         0.0825 
    125 H125      -45.0730  -22.4006   15.2576 H         1 UNK         0.0825 
    126 H126      -47.5250  -23.1222   14.2004 H         1 UNK         0.3029 
    127 H127      -50.8555  -21.9812   14.5800 H         1 UNK         0.0897 
    128 H128      -50.2061  -20.2793   12.8942 H         1 UNK         0.0792 
    129 H129      -49.6063  -19.8134   14.4773 H         1 UNK         0.0792 
    130 H130      -48.5011  -20.4932   13.2896 H         1 UNK         0.0792 
    131 H131      -49.2459  -22.6219   12.2897 H         1 UNK         0.3086 
    132 H132      -49.7069  -26.1304   12.3893 H         1 UNK         0.0583 
    133 H133      -51.9827  -25.2714   11.6398 H         1 UNK         0.1020 
    134 H134      -51.1752  -24.1771   10.5411 H         1 UNK         0.1020 
    135 H135      -53.3771  -26.3081   10.1066 H         1 UNK         0.0694 
    136 H136      -52.8505  -25.6136    8.5915 H         1 UNK         0.0694 
    137 H137      -48.6991  -24.5270   10.3134 H         1 UNK         0.2989 
    138 H138      -45.6148  -23.5773   11.6064 H         1 UNK         0.1055 
    139 H139      -44.9184  -25.9524   11.5082 H         1 UNK         0.0806 
    140 H140      -44.4278  -25.1229   10.0378 H         1 UNK         0.0806 
    141 H141      -45.8351  -26.1838   10.0283 H         1 UNK         0.0806 
    142 H142      -46.4704  -24.0332    8.8915 H         1 UNK         0.3061 
    143 H143      -48.5249  -21.1968    8.5786 H         1 UNK         0.0734 
    144 H144      -46.3319  -19.9929    8.6491 H         1 UNK         0.0832 
    145 H145      -45.5869  -21.2697    7.6981 H         1 UNK         0.0832 
    146 H146      -46.8561  -20.2637    6.9965 H         1 UNK         0.0832 
    147 H147      -47.2743  -22.7270    6.5582 H         1 UNK         0.3156 
    148 H148      -50.0131  -24.7521    6.0466 H         1 UNK         0.0589 
    149 H149      -47.2149  -24.0489    4.9987 H         1 UNK         0.0808 
    150 H150      -48.5497  -24.7279    4.0806 H         1 UNK         0.0808 
    151 H151      -48.6720  -23.0973    4.7072 H         1 UNK         0.0808 
    152 H152      -49.0538  -26.7551    6.1918 H         1 UNK         0.3098 
    153 H153      -46.3324  -28.0096    6.0539 H         1 UNK         0.0720 
    154 H154      -45.0814  -27.6468    8.1965 H         1 UNK         0.0791 
    155 H155      -45.6386  -29.3001    8.0353 H         1 UNK         0.0791 
    156 H156      -46.4923  -28.1955    9.1045 H         1 UNK         0.0791 
    157 H157      -48.8204  -28.4720    7.6122 H         1 UNK         0.3028 
@<TRIPOS>BOND
     1    1    2 1    
     2    1   82 1    
     3    1   83 1    
     4    1   84 1    
     5    2    3 2    
     6    2    4 am   BACKBONE|DICT|INTERRES
     7    4    5 1    
     8    4   85 1    
     9    5    6 1    
    10    5   80 1    
    11    5   86 1    
    12    6    7 1    
    13    6   87 1    
    14    6   88 1    
    15    7    8 1    
    16    8    9 1    
    17    8   89 1    
    18    8   90 1    
    19    9   10 ar   
    20    9   14 ar   
    21   10   11 ar   
    22   10   91 1    
    23   11   12 ar   
    24   11   58 1    
    25   12   13 ar   
    26   12   92 1    
    27   13   14 ar   
    28   13   15 1    
    29   14   93 1    
    30   15   16 1    
    31   15   94 1    
    32   15   95 1    
    33   16   17 1    
    34   17   18 1    
    35   17   96 1    
    36   17   97 1    
    37   18   19 1    
    38   18   22 1    
    39   18   98 1    
    40   19   20 am   BACKBONE|DICT|INTERRES
    41   19   21 2    
    42   20   99 1    
    43   20  100 1    
    44   22   23 am   BACKBONE|DICT|INTERRES
    45   22  101 1    
    46   23   24 2    
    47   23   25 1    
    48   25   26 1    
    49   25   27 1    
    50   25  102 1    
    51   26  103 1    
    52   26  104 1    
    53   26  105 1    
    54   27   28 am   BACKBONE|DICT|INTERRES
    55   27  106 1    
    56   28   29 2    
    57   28   30 1    
    58   30   31 1    
    59   30   32 1    
    60   30  107 1    
    61   31  108 1    
    62   31  109 1    
    63   31  110 1    
    64   32   33 am   BACKBONE|DICT|INTERRES
    65   32  111 1    
    66   33   34 2    
    67   33   35 1    
    68   35   36 1    
    69   35   37 1    
    70   35  112 1    
    71   36  113 1    
    72   36  114 1    
    73   36  115 1    
    74   37   38 am   BACKBONE|DICT|INTERRES
    75   37  116 1    
    76   38   39 2    
    77   38   40 1    
    78   40   41 1    
    79   40   42 1    
    80   40  117 1    
    81   41  118 1    
    82   41  119 1    
    83   41  120 1    
    84   42   43 am   BACKBONE|DICT|INTERRES
    85   42  121 1    
    86   43   44 2    
    87   43   45 1    
    88   45   46 1    
    89   45   47 1    
    90   45  122 1    
    91   46  123 1    
    92   46  124 1    
    93   46  125 1    
    94   47   48 am   BACKBONE|DICT|INTERRES
    95   47  126 1    
    96   48   49 2    
    97   48   50 1    
    98   50   51 1    
    99   50   52 1    
   100   50  127 1    
   101   51  128 1    
   102   51  129 1    
   103   51  130 1    
   104   52   53 am   BACKBONE|DICT|INTERRES
   105   52  131 1    
   106   53   54 2    
   107   53   55 1    
   108   55   56 1    
   109   55   59 1    
   110   55  132 1    
   111   56   57 1    
   112   56  133 1    
   113   56  134 1    
   114   57   58 1    
   115   58  135 1    
   116   58  136 1    
   117   59   60 am   BACKBONE|DICT|INTERRES
   118   59  137 1    
   119   60   61 2    
   120   60   62 1    
   121   62   63 1    
   122   62   64 1    
   123   62  138 1    
   124   63  139 1    
   125   63  140 1    
   126   63  141 1    
   127   64   65 am   BACKBONE|DICT|INTERRES
   128   64  142 1    
   129   65   66 2    
   130   65   67 1    
   131   67   68 1    
   132   67   69 1    
   133   67  143 1    
   134   68  144 1    
   135   68  145 1    
   136   68  146 1    
   137   69   70 am   BACKBONE|DICT|INTERRES
   138   69  147 1    
   139   70   71 2    
   140   70   72 1    
   141   72   73 1    
   142   72   74 1    
   143   72  148 1    
   144   73  149 1    
   145   73  150 1    
   146   73  151 1    
   147   74   75 am   BACKBONE|DICT|INTERRES
   148   74  152 1    
   149   75   76 2    
   150   75   77 1    
   151   77   78 1    
   152   77   79 1    
   153   77  153 1    
   154   78  154 1    
   155   78  155 1    
   156   78  156 1    
   157   79   80 am   BACKBONE|DICT|INTERRES
   158   79  157 1    
   159   80   81 2    
@<TRIPOS>SUBSTRUCTURE
     1 UNK         1 GROUP             0       ****    0 ROOT    
