@<TRIPOS>MOLECULE
3R207
157   159    1
SMALL
USER_CHARGES


@<TRIPOS>ATOM
      1 CA        -47.7611  -30.2141    7.4246 C.3       0 UNK        -0.1975 
      2 C         -48.3823  -29.5643    6.1966 C.2       0 UNK         0.4852 
      3 O         -47.6596  -29.0811    5.3255 O.2       0 UNK        -0.5216 
      4 N         -49.7189  -29.5550    6.1217 N.am      1 UNK        -0.4461 
      5 CA        -50.4915  -29.0141    4.9967 C.3       1 UNK         0.0864 
      6 C6        -51.8793  -29.6948    4.9005 C.3       14 UNK        -0.0898 
      7 S7        -51.8170  -31.3810    4.1972 S.3       14 UNK        -0.2598 
      8 C8        -51.1349  -32.4253    5.5357 C.3       14 UNK         0.0286 
      9 C9        -51.7709  -32.2074    6.9058 C.ar      14 UNK        -0.0844 
     10 C10       -50.9600  -32.1419    8.0441 C.ar      14 UNK        -0.0881 
     11 C11       -51.5199  -31.9432    9.3097 C.ar      14 UNK        -0.0643 
     12 C12       -52.9080  -31.8237    9.4328 C.ar      14 UNK        -0.0930 
     13 C13       -53.7286  -31.8805    8.3044 C.ar      14 UNK        -0.0827 
     14 C14       -53.1572  -32.0907    7.0476 C.ar      14 UNK        -0.1249 
     15 C15       -55.2313  -31.7019    8.4337 C.3       14 UNK         0.0141 
     16 S16       -55.6970  -29.9489    8.2809 S.3       14 UNK        -0.2313 
     17 C17       -55.3708  -29.3158    9.9681 C.3       14 UNK        -0.0915 
     18 CA        -54.1761  -28.3327   10.2165 C.3       13 UNK         0.0968 
     19 C         -53.5397  -27.6976    8.9430 C.2       13 UNK         0.5732 
     20 N         -53.9569  -26.5024    8.5388 N.am      13 UNK        -0.7310 
     21 O         -52.6433  -28.2756    8.3340 O.2       13 UNK        -0.5035 
     22 N         -54.5679  -27.3263   11.2168 N.am      13 UNK        -0.4233 
     23 C         -53.7391  -26.6661   12.0329 C.2       13 UNK         0.4989 
     24 O         -52.5282  -26.8766   12.1202 O.2       13 UNK        -0.4996 
     25 CA        -54.4053  -25.6103   12.9237 C.3       12 UNK         0.0216 
     26 CB        -55.1369  -26.2644   14.1098 C.3       12 UNK        -0.1964 
     27 N         -53.4153  -24.6677   13.4411 N.am      12 UNK        -0.4276 
     28 C         -53.5670  -23.3375   13.4692 C.2       12 UNK         0.5020 
     29 O         -54.5473  -22.7451   13.0130 O.2       12 UNK        -0.5489 
     30 CA        -52.4429  -22.5498   14.1647 C.3       11 UNK         0.0294 
     31 CB        -52.6411  -21.0193   14.1377 C.3       11 UNK        -0.2019 
     32 N         -52.2472  -23.0516   15.5261 N.am      11 UNK        -0.4493 
     33 C         -53.1070  -23.0194   16.5559 C.2       11 UNK         0.4932 
     34 O         -54.1579  -22.3786   16.5688 O.2       11 UNK        -0.5029 
     35 CA        -52.7492  -23.8820   17.7776 C.3       10 UNK         0.0280 
     36 CB        -53.4577  -25.2439   17.6793 C.3       10 UNK        -0.1976 
     37 N         -51.3062  -24.1073   17.8872 N.am      10 UNK        -0.4242 
     38 C         -50.4749  -23.3893   18.6548 C.2       10 UNK         0.5072 
     39 O         -50.8414  -22.4845   19.4061 O.2       10 UNK        -0.5224 
     40 CA        -48.9759  -23.7379   18.5802 C.3       9 UNK         0.0343 
     41 CB        -48.6115  -24.7727   19.6571 C.3       9 UNK        -0.2003 
     42 N         -48.5611  -24.2412   17.2681 N.am      9 UNK        -0.4272 
     43 C         -48.5016  -23.4995   16.1526 C.2       9 UNK         0.4988 
     44 O         -48.7255  -22.2895   16.1225 O.2       9 UNK        -0.5108 
     45 CA        -48.1517  -24.2290   14.8428 C.3       8 UNK         0.0248 
     46 CB        -46.6382  -24.1600   14.5885 C.3       8 UNK        -0.2001 
     47 N         -48.5858  -25.6303   14.7705 N.am      8 UNK        -0.4140 
     48 C         -49.8342  -26.0821   14.9476 C.2       8 UNK         0.5028 
     49 O         -50.7848  -25.3690   15.2708 O.2       8 UNK        -0.5428 
     50 CA        -50.0481  -27.5861   14.7353 C.3       7 UNK         0.0264 
     51 CB        -51.4147  -28.0683   15.2546 C.3       7 UNK        -0.1988 
     52 N         -49.9304  -27.9283   13.3196 N.am      7 UNK        -0.4454 
     53 C         -48.7752  -28.1657   12.6845 C.2       7 UNK         0.5027 
     54 O         -47.6789  -28.0235   13.2325 O.2       7 UNK        -0.5083 
     55 CA        -48.8329  -28.6708   11.2223 C.3       6 UNK         0.0844 
     56 C56       -50.2382  -29.0762   10.7003 C.3       14 UNK        -0.0967 
     57 S57       -50.9763  -30.4715   11.6238 S.3       14 UNK        -0.2604 
     58 C58       -50.6256  -31.8954   10.5427 C.3       14 UNK         0.0134 
     59 N         -48.2169  -27.6711   10.3533 N.am      6 UNK        -0.4116 
     60 C         -46.9081  -27.5752   10.0810 C.2       5 UNK         0.5034 
     61 O         -46.0642  -28.3961   10.4416 O.2       5 UNK        -0.5045 
     62 CA        -46.4564  -26.3579    9.2606 C.3       5 UNK         0.0224 
     63 CB        -46.5672  -26.6411    7.7547 C.3       5 UNK        -0.1978 
     64 N         -47.2353  -25.1611    9.5899 N.am      5 UNK        -0.4737 
     65 C         -46.8488  -24.2317   10.4745 C.2       4 UNK         0.5027 
     66 O         -45.7821  -24.2821   11.0862 O.2       4 UNK        -0.5211 
     67 CA        -47.7751  -23.0225   10.7030 C.3       4 UNK         0.0297 
     68 CB        -47.1479  -21.7499   10.1097 C.3       4 UNK        -0.1993 
     69 N         -49.1104  -23.1994   10.1286 N.am      4 UNK        -0.4486 
     70 C         -50.1336  -23.7966   10.7527 C.2       3 UNK         0.4961 
     71 O         -50.0791  -24.2409   11.8969 O.2       3 UNK        -0.5105 
     72 CA        -51.4380  -23.9347    9.9491 C.3       3 UNK         0.0299 
     73 CB        -52.2750  -22.6504   10.0630 C.3       3 UNK        -0.1972 
     74 N         -51.2456  -24.2508    8.5294 N.am      3 UNK        -0.4305 
     75 C         -50.5713  -25.3039    8.0519 C.2       2 UNK         0.5006 
     76 O         -49.9482  -26.1069    8.7519 O.2       2 UNK        -0.5106 
     77 CA        -50.5523  -25.4619    6.5314 C.3       2 UNK         0.0296 
     78 CB        -49.4139  -24.6323    5.9070 C.3       2 UNK        -0.2002 
     79 N         -50.3881  -26.8800    6.2368 N.am      2 UNK        -0.4032 
     80 C         -50.6443  -27.4785    5.0682 C.2       1 UNK         0.5000 
     81 O         -51.0025  -26.8672    4.0591 O.2       1 UNK        -0.5238 
     82 H82       -48.4338  -30.1901    8.2801 H         1 UNK         0.0889 
     83 H83       -46.8437  -29.7006    7.7083 H         1 UNK         0.0889 
     84 H84       -47.5110  -31.2528    7.2110 H         1 UNK         0.0889 
     85 H85       -50.2730  -29.9656    6.8609 H         1 UNK         0.3028 
     86 H86       -49.9485  -29.2195    4.0713 H         1 UNK         0.0864 
     87 H87       -52.3822  -29.7003    5.8688 H         1 UNK         0.0720 
     88 H88       -52.5387  -29.1298    4.2384 H         1 UNK         0.0720 
     89 H89       -50.0571  -32.2644    5.5799 H         1 UNK         0.0814 
     90 H90       -51.2690  -33.4712    5.2571 H         1 UNK         0.0814 
     91 H91       -49.8898  -32.2605    7.9475 H         1 UNK         0.1469 
     92 H92       -53.3476  -31.6730   10.4087 H         1 UNK         0.1381 
     93 H93       -53.7927  -32.1402    6.1740 H         1 UNK         0.1206 
     94 H94       -55.7377  -32.2664    7.6492 H         1 UNK         0.0813 
     95 H95       -55.5918  -32.1116    9.3783 H         1 UNK         0.0813 
     96 H96       -55.2855  -30.1563   10.6575 H         1 UNK         0.0638 
     97 H97       -56.3069  -28.8323   10.2522 H         1 UNK         0.0638 
     98 H98       -53.3774  -28.9294   10.6593 H         1 UNK         0.0568 
     99 H99       -53.5569  -26.1028    7.7078 H         1 UNK         0.3450 
    100 H100      -54.6941  -26.0211    9.0261 H         1 UNK         0.3450 
    101 H101      -55.5479  -27.0867   11.2309 H         1 UNK         0.2987 
    102 H102      -55.1359  -25.0813   12.3080 H         1 UNK         0.0766 
    103 H103      -55.6353  -25.5149   14.7253 H         1 UNK         0.0798 
    104 H104      -54.4539  -26.8188   14.7532 H         1 UNK         0.0798 
    105 H105      -55.9028  -26.9620   13.7692 H         1 UNK         0.0798 
    106 H106      -52.5465  -25.0765   13.7704 H         1 UNK         0.3198 
    107 H107      -51.5221  -22.7710   13.6232 H         1 UNK         0.0843 
    108 H108      -53.5732  -20.7170   14.6156 H         1 UNK         0.0831 
    109 H109      -52.6723  -20.6520   13.1115 H         1 UNK         0.0831 
    110 H110      -51.8225  -20.5063   14.6424 H         1 UNK         0.0831 
    111 H111      -51.4813  -23.7168   15.6058 H         1 UNK         0.3133 
    112 H112      -53.1177  -23.3712   18.6696 H         1 UNK         0.0566 
    113 H113      -53.1429  -25.8004   16.7956 H         1 UNK         0.0814 
    114 H114      -53.2547  -25.8611   18.5546 H         1 UNK         0.0814 
    115 H115      -54.5393  -25.1177   17.6151 H         1 UNK         0.0814 
    116 H116      -50.9133  -24.7974   17.2573 H         1 UNK         0.3091 
    117 H117      -48.4152  -22.8229   18.7835 H         1 UNK         0.0702 
    118 H118      -47.5397  -24.9713   19.6706 H         1 UNK         0.0785 
    119 H119      -49.1282  -25.7204   19.4998 H         1 UNK         0.0785 
    120 H120      -48.8849  -24.4138   20.6505 H         1 UNK         0.0785 
    121 H121      -48.3425  -25.2245   17.2015 H         1 UNK         0.2998 
    122 H122      -48.6592  -23.6967   14.0373 H         1 UNK         0.0697 
    123 H123      -46.0730  -24.6581   15.3772 H         1 UNK         0.0825 
    124 H124      -46.2958  -23.1252   14.5431 H         1 UNK         0.0825 
    125 H125      -46.3727  -24.6299   13.6423 H         1 UNK         0.0825 
    126 H126      -47.8985  -26.3038   14.4505 H         1 UNK         0.3029 
    127 H127      -49.2779  -28.1142   15.3020 H         1 UNK         0.0897 
    128 H128      -51.5251  -29.1463   15.1361 H         1 UNK         0.0792 
    129 H129      -51.5323  -27.8437   16.3154 H         1 UNK         0.0792 
    130 H130      -52.2376  -27.5897   14.7257 H         1 UNK         0.0792 
    131 H131      -50.7991  -27.9665   12.7966 H         1 UNK         0.3086 
    132 H132      -48.2191  -29.5736   11.1925 H         1 UNK         0.0583 
    133 H133      -50.9181  -28.2251   10.7211 H         1 UNK         0.1020 
    134 H134      -50.1809  -29.3519    9.6472 H         1 UNK         0.1020 
    135 H135      -49.5702  -31.8788   10.2661 H         1 UNK         0.0694 
    136 H136      -50.7798  -32.8110   11.1148 H         1 UNK         0.0694 
    137 H137      -48.8444  -26.9707    9.9667 H         1 UNK         0.2989 
    138 H138      -45.4013  -26.1853    9.4863 H         1 UNK         0.1055 
    139 H139      -45.9358  -27.4830    7.4693 H         1 UNK         0.0806 
    140 H140      -46.2398  -25.7843    7.1658 H         1 UNK         0.0806 
    141 H141      -47.5881  -26.8828    7.4597 H         1 UNK         0.0806 
    142 H142      -48.1553  -25.0866    9.1750 H         1 UNK         0.3061 
    143 H143      -47.8644  -22.8823   11.7825 H         1 UNK         0.0734 
    144 H144      -47.7629  -20.8726   10.3114 H         1 UNK         0.0832 
    145 H145      -46.1653  -21.5597   10.5442 H         1 UNK         0.0832 
    146 H146      -47.0157  -21.8286    9.0299 H         1 UNK         0.0832 
    147 H147      -49.2539  -22.8572    9.1895 H         1 UNK         0.3156 
    148 H148      -52.0042  -24.7554   10.3928 H         1 UNK         0.0589 
    149 H149      -51.8315  -21.8264    9.5027 H         1 UNK         0.0808 
    150 H150      -53.2885  -22.8040    9.6918 H         1 UNK         0.0808 
    151 H151      -52.3584  -22.3204   11.0974 H         1 UNK         0.0808 
    152 H152      -51.7033  -23.6353    7.8720 H         1 UNK         0.3098 
    153 H153      -51.5125  -25.1304    6.1308 H         1 UNK         0.0720 
    154 H154      -49.4017  -24.7249    4.8210 H         1 UNK         0.0791 
    155 H155      -48.4366  -24.9407    6.2762 H         1 UNK         0.0791 
    156 H156      -49.5291  -23.5720    6.1351 H         1 UNK         0.0791 
    157 H157      -50.1515  -27.4448    7.0429 H         1 UNK         0.3028 
@<TRIPOS>BOND
     1    1    2 1    
     2    1   82 1    
     3    1   83 1    
     4    1   84 1    
     5    2    3 2    
     6    2    4 am   BACKBONE|DICT|INTERRES
     7    4    5 1    
     8    4   85 1    
     9    5    6 1    
    10    5   80 1    
    11    5   86 1    
    12    6    7 1    
    13    6   87 1    
    14    6   88 1    
    15    7    8 1    
    16    8    9 1    
    17    8   89 1    
    18    8   90 1    
    19    9   10 ar   
    20    9   14 ar   
    21   10   11 ar   
    22   10   91 1    
    23   11   12 ar   
    24   11   58 1    
    25   12   13 ar   
    26   12   92 1    
    27   13   14 ar   
    28   13   15 1    
    29   14   93 1    
    30   15   16 1    
    31   15   94 1    
    32   15   95 1    
    33   16   17 1    
    34   17   18 1    
    35   17   96 1    
    36   17   97 1    
    37   18   19 1    
    38   18   22 1    
    39   18   98 1    
    40   19   20 am   BACKBONE|DICT|INTERRES
    41   19   21 2    
    42   20   99 1    
    43   20  100 1    
    44   22   23 am   BACKBONE|DICT|INTERRES
    45   22  101 1    
    46   23   24 2    
    47   23   25 1    
    48   25   26 1    
    49   25   27 1    
    50   25  102 1    
    51   26  103 1    
    52   26  104 1    
    53   26  105 1    
    54   27   28 am   BACKBONE|DICT|INTERRES
    55   27  106 1    
    56   28   29 2    
    57   28   30 1    
    58   30   31 1    
    59   30   32 1    
    60   30  107 1    
    61   31  108 1    
    62   31  109 1    
    63   31  110 1    
    64   32   33 am   BACKBONE|DICT|INTERRES
    65   32  111 1    
    66   33   34 2    
    67   33   35 1    
    68   35   36 1    
    69   35   37 1    
    70   35  112 1    
    71   36  113 1    
    72   36  114 1    
    73   36  115 1    
    74   37   38 am   BACKBONE|DICT|INTERRES
    75   37  116 1    
    76   38   39 2    
    77   38   40 1    
    78   40   41 1    
    79   40   42 1    
    80   40  117 1    
    81   41  118 1    
    82   41  119 1    
    83   41  120 1    
    84   42   43 am   BACKBONE|DICT|INTERRES
    85   42  121 1    
    86   43   44 2    
    87   43   45 1    
    88   45   46 1    
    89   45   47 1    
    90   45  122 1    
    91   46  123 1    
    92   46  124 1    
    93   46  125 1    
    94   47   48 am   BACKBONE|DICT|INTERRES
    95   47  126 1    
    96   48   49 2    
    97   48   50 1    
    98   50   51 1    
    99   50   52 1    
   100   50  127 1    
   101   51  128 1    
   102   51  129 1    
   103   51  130 1    
   104   52   53 am   BACKBONE|DICT|INTERRES
   105   52  131 1    
   106   53   54 2    
   107   53   55 1    
   108   55   56 1    
   109   55   59 1    
   110   55  132 1    
   111   56   57 1    
   112   56  133 1    
   113   56  134 1    
   114   57   58 1    
   115   58  135 1    
   116   58  136 1    
   117   59   60 am   BACKBONE|DICT|INTERRES
   118   59  137 1    
   119   60   61 2    
   120   60   62 1    
   121   62   63 1    
   122   62   64 1    
   123   62  138 1    
   124   63  139 1    
   125   63  140 1    
   126   63  141 1    
   127   64   65 am   BACKBONE|DICT|INTERRES
   128   64  142 1    
   129   65   66 2    
   130   65   67 1    
   131   67   68 1    
   132   67   69 1    
   133   67  143 1    
   134   68  144 1    
   135   68  145 1    
   136   68  146 1    
   137   69   70 am   BACKBONE|DICT|INTERRES
   138   69  147 1    
   139   70   71 2    
   140   70   72 1    
   141   72   73 1    
   142   72   74 1    
   143   72  148 1    
   144   73  149 1    
   145   73  150 1    
   146   73  151 1    
   147   74   75 am   BACKBONE|DICT|INTERRES
   148   74  152 1    
   149   75   76 2    
   150   75   77 1    
   151   77   78 1    
   152   77   79 1    
   153   77  153 1    
   154   78  154 1    
   155   78  155 1    
   156   78  156 1    
   157   79   80 am   BACKBONE|DICT|INTERRES
   158   79  157 1    
   159   80   81 2    
@<TRIPOS>SUBSTRUCTURE
     1 UNK         1 GROUP             0       ****    0 ROOT    
