@<TRIPOS>MOLECULE
3R207
157   159    1
SMALL
USER_CHARGES


@<TRIPOS>ATOM
      1 CA        -46.8094  -33.3517    7.4357 C.3       0 UNK        -0.1975 
      2 C         -48.0287  -32.4690    7.2125 C.2       0 UNK         0.4852 
      3 O         -49.0692  -32.9617    6.7749 O.2       0 UNK        -0.5216 
      4 N         -47.9070  -31.1710    7.5071 N.am      1 UNK        -0.4461 
      5 CA        -48.9417  -30.1545    7.3365 C.3       1 UNK         0.0864 
      6 C6        -49.9433  -30.1608    8.5199 C.3       14 UNK        -0.0898 
      7 S7        -51.4726  -29.2224    8.1910 S.3       14 UNK        -0.2598 
      8 C8        -51.3891  -28.0110    9.5401 C.3       14 UNK         0.0286 
      9 C9        -52.5229  -27.0066    9.4847 C.ar      14 UNK        -0.0844 
     10 C10       -52.4052  -25.8874    8.6607 C.ar      14 UNK        -0.0881 
     11 C11       -53.3810  -24.8891    8.6798 C.ar      14 UNK        -0.0643 
     12 C12       -54.5154  -25.0482    9.4803 C.ar      14 UNK        -0.0930 
     13 C13       -54.6588  -26.1806   10.2870 C.ar      14 UNK        -0.0827 
     14 C14       -53.6501  -27.1506   10.2979 C.ar      14 UNK        -0.1249 
     15 C15       -55.8808  -26.3252   11.1820 C.3       14 UNK         0.0141 
     16 S16       -57.3307  -26.9776   10.2923 S.3       14 UNK        -0.2313 
     17 C17       -56.8273  -28.6845    9.8830 C.3       14 UNK        -0.0915 
     18 CA        -57.3630  -29.7400   10.8852 C.3       13 UNK         0.0968 
     19 C         -57.1376  -31.1825   10.3410 C.2       13 UNK         0.5732 
     20 N         -56.3554  -32.0326   10.9961 N.am      13 UNK        -0.7310 
     21 O         -57.6939  -31.5403    9.3053 O.2       13 UNK        -0.5035 
     22 N         -56.8473  -29.5116   12.2462 N.am      13 UNK        -0.4233 
     23 C         -57.3991  -29.9936   13.3653 C.2       13 UNK         0.4989 
     24 O         -58.4319  -30.6658   13.3828 O.2       13 UNK        -0.4996 
     25 CA        -56.6476  -29.6956   14.6766 C.3       12 UNK         0.0216 
     26 CB        -57.3523  -30.2860   15.9133 C.3       12 UNK        -0.1964 
     27 N         -55.2724  -30.2019   14.6261 N.am      12 UNK        -0.4276 
     28 C         -54.2299  -29.5356   14.1175 C.2       12 UNK         0.5020 
     29 O         -54.3135  -28.4167   13.6084 O.2       12 UNK        -0.5489 
     30 CA        -52.8772  -30.2478   14.1338 C.3       11 UNK         0.0294 
     31 CB        -52.5897  -30.9059   12.7728 C.3       11 UNK        -0.2019 
     32 N         -51.8464  -29.2567   14.4270 N.am      11 UNK        -0.4493 
     33 C         -50.7875  -29.4644   15.2172 C.2       11 UNK         0.4932 
     34 O         -50.5350  -30.5496   15.7426 O.2       11 UNK        -0.5029 
     35 CA        -49.8336  -28.2840   15.4719 C.3       10 UNK         0.0280 
     36 CB        -48.4970  -28.5027   14.7455 C.3       10 UNK        -0.1976 
     37 N         -50.3710  -26.9718   15.1015 N.am      10 UNK        -0.4242 
     38 C         -51.2478  -26.2695   15.8324 C.2       10 UNK         0.5072 
     39 O         -51.8211  -26.7122   16.8298 O.2       10 UNK        -0.5224 
     40 CA        -51.4604  -24.8069   15.3896 C.3       9 UNK         0.0343 
     41 CB        -52.3437  -23.9938   16.3588 C.3       9 UNK        -0.2003 
     42 N         -50.1782  -24.1300   15.1465 N.am      9 UNK        -0.4272 
     43 C         -49.1693  -23.9516   16.0159 C.2       9 UNK         0.4988 
     44 O         -49.2393  -24.2121   17.2176 O.2       9 UNK        -0.5108 
     45 CA        -47.8304  -23.4350   15.4547 C.3       8 UNK         0.0248 
     46 CB        -46.8323  -24.5963   15.3198 C.3       8 UNK        -0.2001 
     47 N         -47.9474  -22.7557   14.1618 N.am      8 UNK        -0.4140 
     48 C         -48.4659  -21.5305   14.0004 C.2       8 UNK         0.5028 
     49 O         -48.8619  -20.8244   14.9288 O.2       8 UNK        -0.5428 
     50 CA        -48.5811  -21.0112   12.5584 C.3       7 UNK         0.0264 
     51 CB        -47.2383  -20.4389   12.0766 C.3       7 UNK        -0.1988 
     52 N         -49.0440  -22.0297   11.6132 N.am      7 UNK        -0.4454 
     53 C         -50.2474  -22.6233   11.6470 C.2       7 UNK         0.5027 
     54 O         -51.1060  -22.3890   12.4979 O.2       7 UNK        -0.5083 
     55 CA        -50.5143  -23.6879   10.5642 C.3       6 UNK         0.0844 
     56 C56       -50.7135  -23.0325    9.1680 C.3       14 UNK        -0.0967 
     57 S57       -52.3830  -22.3356    8.9182 S.3       14 UNK        -0.2604 
     58 C58       -53.1762  -23.6109    7.8862 C.3       14 UNK         0.0134 
     59 N         -49.4571  -24.7076   10.5563 N.am      6 UNK        -0.4116 
     60 C         -49.1377  -25.5106   11.5843 C.2       5 UNK         0.5034 
     61 O         -49.7863  -25.5924   12.6264 O.2       5 UNK        -0.5045 
     62 CA        -47.8438  -26.3335   11.4671 C.3       5 UNK         0.0224 
     63 CB        -48.1082  -27.7464   10.9359 C.3       5 UNK        -0.1978 
     64 N         -46.8341  -25.6855   10.6332 N.am      5 UNK        -0.4737 
     65 C         -46.1419  -24.6001   11.0001 C.2       4 UNK         0.5027 
     66 O         -46.2564  -24.0507   12.0960 O.2       4 UNK        -0.5211 
     67 CA        -45.2171  -23.9990    9.9304 C.3       4 UNK         0.0297 
     68 CB        -43.9343  -24.8325    9.7818 C.3       4 UNK        -0.1993 
     69 N         -45.8865  -23.8772    8.6308 N.am      4 UNK        -0.4486 
     70 C         -46.9412  -23.0812    8.4093 C.2       3 UNK         0.4961 
     71 O         -47.4371  -22.3527    9.2681 O.2       3 UNK        -0.5105 
     72 CA        -47.5691  -23.1065    7.0076 C.3       3 UNK         0.0299 
     73 CB        -46.8755  -22.0794    6.0989 C.3       3 UNK        -0.1972 
     74 N         -47.5786  -24.4141    6.3441 N.am      3 UNK        -0.4305 
     75 C         -48.1492  -25.5417    6.7949 C.2       2 UNK         0.5006 
     76 O         -48.6439  -25.6625    7.9181 O.2       2 UNK        -0.5106 
     77 CA        -48.2241  -26.6895    5.7680 C.3       2 UNK         0.0296 
     78 CB        -46.8731  -26.9393    5.0562 C.3       2 UNK        -0.2002 
     79 N         -48.7866  -27.9445    6.2873 N.am      2 UNK        -0.4032 
     80 C         -48.2101  -28.8132    7.1299 C.2       1 UNK         0.5000 
     81 O         -47.1234  -28.6270    7.6877 O.2       1 UNK        -0.5238 
     82 H82       -46.5089  -33.8209    6.4992 H         1 UNK         0.0889 
     83 H83       -47.0425  -34.1387    8.1524 H         1 UNK         0.0889 
     84 H84       -45.9608  -32.7851    7.8188 H         1 UNK         0.0889 
     85 H85       -47.0227  -30.7892    7.8228 H         1 UNK         0.3028 
     86 H86       -49.4830  -30.3826    6.4151 H         1 UNK         0.0864 
     87 H87       -50.2568  -31.1848    8.7284 H         1 UNK         0.0720 
     88 H88       -49.4624  -29.8164    9.4358 H         1 UNK         0.0720 
     89 H89       -50.4499  -27.4670    9.4615 H         1 UNK         0.0814 
     90 H90       -51.3794  -28.5253   10.5022 H         1 UNK         0.0814 
     91 H91       -51.5241  -25.7741    8.0442 H         1 UNK         0.1469 
     92 H92       -55.2739  -24.2775    9.4961 H         1 UNK         0.1381 
     93 H93       -53.7366  -28.0103   10.9481 H         1 UNK         0.1206 
     94 H94       -55.6599  -26.9589   12.0381 H         1 UNK         0.0813 
     95 H95       -56.1400  -25.3505   11.5979 H         1 UNK         0.0813 
     96 H96       -57.2142  -28.8842    8.8820 H         1 UNK         0.0638 
     97 H97       -55.7441  -28.7549    9.7961 H         1 UNK         0.0638 
     98 H98       -58.4469  -29.6178   10.9304 H         1 UNK         0.0568 
     99 H99       -55.9088  -31.7593   11.8546 H         1 UNK         0.3450 
    100 H100      -56.2266  -32.9629   10.6310 H         1 UNK         0.3450 
    101 H101      -55.9862  -28.9860   12.3275 H         1 UNK         0.2987 
    102 H102      -56.6292  -28.6098   14.7962 H         1 UNK         0.0766 
    103 H103      -56.8272  -30.0229   16.8317 H         1 UNK         0.0798 
    104 H104      -57.4173  -31.3737   15.8635 H         1 UNK         0.0798 
    105 H105      -58.3694  -29.9020   16.0041 H         1 UNK         0.0798 
    106 H106      -55.1253  -31.1329   14.9908 H         1 UNK         0.3198 
    107 H107      -52.8950  -31.0150   14.9113 H         1 UNK         0.0843 
    108 H108      -52.5977  -30.1773   11.9613 H         1 UNK         0.0831 
    109 H109      -53.3372  -31.6644   12.5378 H         1 UNK         0.0831 
    110 H110      -51.6172  -31.3984   12.7691 H         1 UNK         0.0831 
    111 H111      -52.0377  -28.3248   14.0816 H         1 UNK         0.3133 
    112 H112      -49.6272  -28.2691   16.5442 H         1 UNK         0.0566 
    113 H113      -47.7859  -27.7077   14.9688 H         1 UNK         0.0814 
    114 H114      -48.0349  -29.4419   15.0525 H         1 UNK         0.0814 
    115 H115      -48.6305  -28.5467   13.6664 H         1 UNK         0.0814 
    116 H116      -50.0011  -26.5330   14.2613 H         1 UNK         0.3091 
    117 H117      -51.9735  -24.8464   14.4272 H         1 UNK         0.0702 
    118 H118      -53.3333  -24.4427   16.4518 H         1 UNK         0.0785 
    119 H119      -52.4822  -22.9727   16.0035 H         1 UNK         0.0785 
    120 H120      -51.9137  -23.9459   17.3596 H         1 UNK         0.0785 
    121 H121      -50.0010  -23.9040   14.1759 H         1 UNK         0.2998 
    122 H122      -47.4265  -22.7239   16.1785 H         1 UNK         0.0697 
    123 H123      -47.1746  -25.3354   14.5961 H         1 UNK         0.0825 
    124 H124      -46.6948  -25.1100   16.2722 H         1 UNK         0.0825 
    125 H125      -45.8526  -24.2426   14.9976 H         1 UNK         0.0825 
    126 H126      -47.5674  -23.2383   13.3515 H         1 UNK         0.3029 
    127 H127      -49.3163  -20.2036   12.5580 H         1 UNK         0.0897 
    128 H128      -47.3328  -19.9855   11.0896 H         1 UNK         0.0792 
    129 H129      -46.4693  -21.2102   12.0154 H         1 UNK         0.0792 
    130 H130      -46.8752  -19.6663   12.7558 H         1 UNK         0.0792 
    131 H131      -48.4061  -22.2627   10.8535 H         1 UNK         0.3086 
    132 H132      -51.4345  -24.2089   10.8370 H         1 UNK         0.0583 
    133 H133      -49.9962  -22.2294    8.9969 H         1 UNK         0.1020 
    134 H134      -50.5189  -23.7541    8.3759 H         1 UNK         0.1020 
    135 H135      -54.1376  -23.2355    7.5324 H         1 UNK         0.0694 
    136 H136      -52.5729  -23.7980    6.9963 H         1 UNK         0.0694 
    137 H137      -48.9081  -24.7880    9.7073 H         1 UNK         0.2989 
    138 H138      -47.4403  -26.4301   12.4769 H         1 UNK         0.1055 
    139 H139      -48.9764  -28.2021   11.4123 H         1 UNK         0.0806 
    140 H140      -47.2552  -28.4006   11.1167 H         1 UNK         0.0806 
    141 H141      -48.2861  -27.7320    9.8634 H         1 UNK         0.0806 
    142 H142      -46.7174  -26.0441    9.6952 H         1 UNK         0.3061 
    143 H143      -44.9366  -22.9965   10.2611 H         1 UNK         0.0734 
    144 H144      -43.2360  -24.3650    9.0875 H         1 UNK         0.0832 
    145 H145      -43.4205  -24.9281   10.7395 H         1 UNK         0.0832 
    146 H146      -44.1418  -25.8410    9.4219 H         1 UNK         0.0832 
    147 H147      -45.5414  -24.4460    7.8714 H         1 UNK         0.3156 
    148 H148      -48.6105  -22.8005    7.1133 H         1 UNK         0.0589 
    149 H149      -45.8364  -22.3476    5.9034 H         1 UNK         0.0808 
    150 H150      -47.3856  -21.9868    5.1399 H         1 UNK         0.0808 
    151 H151      -46.8751  -21.0893    6.5577 H         1 UNK         0.0808 
    152 H152      -47.2009  -24.4288    5.4077 H         1 UNK         0.3098 
    153 H153      -48.9335  -26.3571    5.0087 H         1 UNK         0.0720 
    154 H154      -46.9327  -27.7964    4.3852 H         1 UNK         0.0791 
    155 H155      -46.0677  -27.1300    5.7665 H         1 UNK         0.0791 
    156 H156      -46.5734  -26.0866    4.4467 H         1 UNK         0.0791 
    157 H157      -49.7062  -28.1752    5.9373 H         1 UNK         0.3028 
@<TRIPOS>BOND
     1    1    2 1    
     2    1   82 1    
     3    1   83 1    
     4    1   84 1    
     5    2    3 2    
     6    2    4 am   BACKBONE|DICT|INTERRES
     7    4    5 1    
     8    4   85 1    
     9    5    6 1    
    10    5   80 1    
    11    5   86 1    
    12    6    7 1    
    13    6   87 1    
    14    6   88 1    
    15    7    8 1    
    16    8    9 1    
    17    8   89 1    
    18    8   90 1    
    19    9   10 ar   
    20    9   14 ar   
    21   10   11 ar   
    22   10   91 1    
    23   11   12 ar   
    24   11   58 1    
    25   12   13 ar   
    26   12   92 1    
    27   13   14 ar   
    28   13   15 1    
    29   14   93 1    
    30   15   16 1    
    31   15   94 1    
    32   15   95 1    
    33   16   17 1    
    34   17   18 1    
    35   17   96 1    
    36   17   97 1    
    37   18   19 1    
    38   18   22 1    
    39   18   98 1    
    40   19   20 am   BACKBONE|DICT|INTERRES
    41   19   21 2    
    42   20   99 1    
    43   20  100 1    
    44   22   23 am   BACKBONE|DICT|INTERRES
    45   22  101 1    
    46   23   24 2    
    47   23   25 1    
    48   25   26 1    
    49   25   27 1    
    50   25  102 1    
    51   26  103 1    
    52   26  104 1    
    53   26  105 1    
    54   27   28 am   BACKBONE|DICT|INTERRES
    55   27  106 1    
    56   28   29 2    
    57   28   30 1    
    58   30   31 1    
    59   30   32 1    
    60   30  107 1    
    61   31  108 1    
    62   31  109 1    
    63   31  110 1    
    64   32   33 am   BACKBONE|DICT|INTERRES
    65   32  111 1    
    66   33   34 2    
    67   33   35 1    
    68   35   36 1    
    69   35   37 1    
    70   35  112 1    
    71   36  113 1    
    72   36  114 1    
    73   36  115 1    
    74   37   38 am   BACKBONE|DICT|INTERRES
    75   37  116 1    
    76   38   39 2    
    77   38   40 1    
    78   40   41 1    
    79   40   42 1    
    80   40  117 1    
    81   41  118 1    
    82   41  119 1    
    83   41  120 1    
    84   42   43 am   BACKBONE|DICT|INTERRES
    85   42  121 1    
    86   43   44 2    
    87   43   45 1    
    88   45   46 1    
    89   45   47 1    
    90   45  122 1    
    91   46  123 1    
    92   46  124 1    
    93   46  125 1    
    94   47   48 am   BACKBONE|DICT|INTERRES
    95   47  126 1    
    96   48   49 2    
    97   48   50 1    
    98   50   51 1    
    99   50   52 1    
   100   50  127 1    
   101   51  128 1    
   102   51  129 1    
   103   51  130 1    
   104   52   53 am   BACKBONE|DICT|INTERRES
   105   52  131 1    
   106   53   54 2    
   107   53   55 1    
   108   55   56 1    
   109   55   59 1    
   110   55  132 1    
   111   56   57 1    
   112   56  133 1    
   113   56  134 1    
   114   57   58 1    
   115   58  135 1    
   116   58  136 1    
   117   59   60 am   BACKBONE|DICT|INTERRES
   118   59  137 1    
   119   60   61 2    
   120   60   62 1    
   121   62   63 1    
   122   62   64 1    
   123   62  138 1    
   124   63  139 1    
   125   63  140 1    
   126   63  141 1    
   127   64   65 am   BACKBONE|DICT|INTERRES
   128   64  142 1    
   129   65   66 2    
   130   65   67 1    
   131   67   68 1    
   132   67   69 1    
   133   67  143 1    
   134   68  144 1    
   135   68  145 1    
   136   68  146 1    
   137   69   70 am   BACKBONE|DICT|INTERRES
   138   69  147 1    
   139   70   71 2    
   140   70   72 1    
   141   72   73 1    
   142   72   74 1    
   143   72  148 1    
   144   73  149 1    
   145   73  150 1    
   146   73  151 1    
   147   74   75 am   BACKBONE|DICT|INTERRES
   148   74  152 1    
   149   75   76 2    
   150   75   77 1    
   151   77   78 1    
   152   77   79 1    
   153   77  153 1    
   154   78  154 1    
   155   78  155 1    
   156   78  156 1    
   157   79   80 am   BACKBONE|DICT|INTERRES
   158   79  157 1    
   159   80   81 2    
@<TRIPOS>SUBSTRUCTURE
     1 UNK         1 GROUP             0       ****    0 ROOT    
