@<TRIPOS>MOLECULE
3R207
157   159    1
SMALL
USER_CHARGES


@<TRIPOS>ATOM
      1 CA        -45.7172  -30.6533    8.2841 C.3       0 UNK        -0.1975 
      2 C         -46.1082  -30.3764    6.8403 C.2       0 UNK         0.4852 
      3 O         -45.2454  -30.0514    6.0241 O.2       0 UNK        -0.5216 
      4 N         -47.4019  -30.5084    6.5183 N.am      1 UNK        -0.4461 
      5 CA        -47.9610  -30.2927    5.1774 C.3       1 UNK         0.0864 
      6 C6        -49.3341  -30.9914    5.0016 C.3       14 UNK        -0.0898 
      7 S7        -50.5619  -30.5597    6.2826 S.3       14 UNK        -0.2598 
      8 C8        -51.6629  -29.4457    5.3584 C.3       14 UNK         0.0286 
      9 C9        -52.7398  -28.8841    6.2714 C.ar      14 UNK        -0.0844 
     10 C10       -52.4467  -27.8054    7.1099 C.ar      14 UNK        -0.0881 
     11 C11       -53.4149  -27.3048    7.9842 C.ar      14 UNK        -0.0643 
     12 C12       -54.6909  -27.8733    8.0004 C.ar      14 UNK        -0.0930 
     13 C13       -54.9954  -28.9523    7.1664 C.ar      14 UNK        -0.0827 
     14 C14       -54.0170  -29.4538    6.3014 C.ar      14 UNK        -0.1249 
     15 C15       -56.3773  -29.5824    7.2179 C.3       14 UNK         0.0141 
     16 S16       -56.4716  -30.8262    8.5475 S.3       14 UNK        -0.2313 
     17 C17       -57.9778  -30.3358    9.4629 C.3       14 UNK        -0.0915 
     18 CA        -57.7620  -30.1665   10.9918 C.3       13 UNK         0.0968 
     19 C         -57.5538  -31.5287   11.7190 C.2       13 UNK         0.5732 
     20 N         -56.4374  -31.7587   12.4006 N.am      13 UNK        -0.7310 
     21 O         -58.4323  -32.3871   11.6777 O.2       13 UNK        -0.5035 
     22 N         -56.7541  -29.1356   11.2939 N.am      13 UNK        -0.4233 
     23 C         -56.7117  -28.4300   12.4304 C.2       13 UNK         0.4989 
     24 O         -57.5365  -28.5372   13.3426 O.2       13 UNK        -0.4996 
     25 CA        -55.5695  -27.4158   12.5619 C.3       12 UNK         0.0216 
     26 CB        -55.8595  -26.1469   11.7388 C.3       12 UNK        -0.1964 
     27 N         -55.4161  -27.0565   13.9704 N.am      12 UNK        -0.4276 
     28 C         -54.2686  -26.7099   14.5587 C.2       12 UNK         0.5020 
     29 O         -53.1837  -26.6623   13.9773 O.2       12 UNK        -0.5489 
     30 CA        -54.3317  -26.3742   16.0523 C.3       11 UNK         0.0294 
     31 CB        -54.3047  -27.6563   16.9059 C.3       11 UNK        -0.2019 
     32 N         -53.1816  -25.5340   16.3717 N.am      11 UNK        -0.4493 
     33 C         -53.0424  -24.7501   17.4468 C.2       11 UNK         0.4932 
     34 O         -53.9048  -24.6277   18.3188 O.2       11 UNK        -0.5029 
     35 CA        -51.7116  -23.9786   17.5570 C.3       10 UNK         0.0280 
     36 CB        -51.4632  -23.3740   18.9554 C.3       10 UNK        -0.1976 
     37 N         -50.5710  -24.7849   17.1084 N.am      10 UNK        -0.4242 
     38 C         -50.1046  -25.9194   17.6518 C.2       10 UNK         0.5072 
     39 O         -50.5112  -26.4029   18.7093 O.2       10 UNK        -0.5224 
     40 CA        -49.0138  -26.6669   16.8647 C.3       9 UNK         0.0343 
     41 CB        -49.6588  -27.7289   15.9587 C.3       9 UNK        -0.2003 
     42 N         -48.1635  -25.7903   16.0533 N.am      9 UNK        -0.4272 
     43 C         -47.2630  -24.9300   16.5510 C.2       9 UNK         0.4988 
     44 O         -47.0306  -24.8007   17.7536 O.2       9 UNK        -0.5108 
     45 CA        -46.4913  -24.0633   15.5400 C.3       8 UNK         0.0248 
     46 CB        -45.3452  -24.8619   14.8982 C.3       8 UNK        -0.2001 
     47 N         -47.3525  -23.5028   14.4955 N.am      8 UNK        -0.4140 
     48 C         -48.3023  -22.5802   14.7116 C.2       8 UNK         0.5028 
     49 O         -48.5121  -22.0533   15.8046 O.2       8 UNK        -0.5428 
     50 CA        -49.1944  -22.2009   13.5164 C.3       7 UNK         0.0264 
     51 CB        -48.4979  -21.1664   12.6185 C.3       7 UNK        -0.1988 
     52 N         -49.5984  -23.3595   12.7163 N.am      7 UNK        -0.4454 
     53 C         -50.3391  -24.3792   13.1760 C.2       7 UNK         0.5027 
     54 O         -50.8089  -24.4195   14.3130 O.2       7 UNK        -0.5083 
     55 CA        -50.5481  -25.5764   12.2309 C.3       6 UNK         0.0844 
     56 C56       -51.7443  -25.3369   11.2814 C.3       14 UNK        -0.0967 
     57 S57       -52.1583  -26.8534   10.3652 S.3       14 UNK        -0.2604 
     58 C58       -53.0606  -26.1819    8.9410 C.3       14 UNK         0.0134 
     59 N         -49.3163  -25.9219   11.5159 N.am      6 UNK        -0.4116 
     60 C         -48.2071  -26.3968   12.0983 C.2       5 UNK         0.5034 
     61 O         -48.1049  -26.6275   13.3022 O.2       5 UNK        -0.5045 
     62 CA        -46.9847  -26.5911   11.1906 C.3       5 UNK         0.0224 
     63 CB        -47.0750  -27.9173   10.4202 C.3       5 UNK        -0.1978 
     64 N         -46.8251  -25.4774   10.2532 N.am      5 UNK        -0.4737 
     65 C         -46.4733  -24.2370   10.6251 C.2       4 UNK         0.5027 
     66 O         -46.2031  -23.9248   11.7844 O.2       4 UNK        -0.5211 
     67 CA        -46.4654  -23.1519    9.5340 C.3       4 UNK         0.0297 
     68 CB        -45.0929  -23.0940    8.8456 C.3       4 UNK        -0.1993 
     69 N         -47.5107  -23.3389    8.5248 N.am      4 UNK        -0.4486 
     70 C         -48.8275  -23.3509    8.7766 C.2       3 UNK         0.4961 
     71 O         -49.3126  -23.1444    9.8885 O.2       3 UNK        -0.5105 
     72 CA        -49.7637  -23.6968    7.6063 C.3       3 UNK         0.0299 
     73 CB        -50.3281  -22.4159    6.9733 C.3       3 UNK        -0.1972 
     74 N         -49.1501  -24.5306    6.5655 N.am      3 UNK        -0.4305 
     75 C         -48.6716  -25.7686    6.7517 C.2       2 UNK         0.5006 
     76 O         -48.6642  -26.3509    7.8393 O.2       2 UNK        -0.5106 
     77 CA        -48.0485  -26.4403    5.5256 C.3       2 UNK         0.0296 
     78 CB        -46.6176  -25.9208    5.2887 C.3       2 UNK        -0.2002 
     79 N         -48.0198  -27.8849    5.7318 N.am      2 UNK        -0.4032 
     80 C         -48.0118  -28.8060    4.7594 C.2       1 UNK         0.5000 
     81 O         -48.0384  -28.5254    3.5591 O.2       1 UNK        -0.5238 
     82 H82       -45.0449  -29.8772    8.6482 H         1 UNK         0.0889 
     83 H83       -45.1993  -31.6094    8.3538 H         1 UNK         0.0889 
     84 H84       -46.5859  -30.6863    8.9415 H         1 UNK         0.0889 
     85 H85       -48.0723  -30.7826    7.2236 H         1 UNK         0.3028 
     86 H86       -47.2777  -30.7684    4.4700 H         1 UNK         0.0864 
     87 H87       -49.1898  -32.0719    5.0477 H         1 UNK         0.0720 
     88 H88       -49.7455  -30.8008    4.0083 H         1 UNK         0.0720 
     89 H89       -52.1125  -29.9863    4.5239 H         1 UNK         0.0814 
     90 H90       -51.0838  -28.6288    4.9249 H         1 UNK         0.0814 
     91 H91       -51.4528  -27.3779    7.1104 H         1 UNK         0.1469 
     92 H92       -55.4422  -27.4915    8.6765 H         1 UNK         0.1381 
     93 H93       -54.2449  -30.2975    5.6640 H         1 UNK         0.1206 
     94 H94       -57.1257  -28.8003    7.3474 H         1 UNK         0.0813 
     95 H95       -56.6103  -30.0647    6.2673 H         1 UNK         0.0813 
     96 H96       -58.3705  -29.4019    9.0606 H         1 UNK         0.0638 
     97 H97       -58.7526  -31.0786    9.2645 H         1 UNK         0.0638 
     98 H98       -58.7115  -29.7964   11.3838 H         1 UNK         0.0568 
     99 H99       -56.3212  -32.6422   12.8709 H         1 UNK         0.3450 
    100 H100      -55.7085  -31.0657   12.4396 H         1 UNK         0.3450 
    101 H101      -56.0309  -29.0150   10.6004 H         1 UNK         0.2987 
    102 H102      -54.6523  -27.8863   12.1995 H         1 UNK         0.0766 
    103 H103      -56.0024  -26.3807   10.6843 H         1 UNK         0.0798 
    104 H104      -55.0352  -25.4373   11.8028 H         1 UNK         0.0798 
    105 H105      -56.7619  -25.6414   12.0849 H         1 UNK         0.0798 
    106 H106      -56.2606  -27.1615   14.5201 H         1 UNK         0.3198 
    107 H107      -55.2486  -25.8142   16.2482 H         1 UNK         0.0843 
    108 H108      -53.3895  -28.2268   16.7411 H         1 UNK         0.0831 
    109 H109      -55.1452  -28.3082   16.6649 H         1 UNK         0.0831 
    110 H110      -54.3684  -27.4292   17.9702 H         1 UNK         0.0831 
    111 H111      -52.4612  -25.5382   15.6546 H         1 UNK         0.3133 
    112 H112      -51.7837  -23.1498   16.8513 H         1 UNK         0.0566 
    113 H113      -50.5135  -22.8402   18.9921 H         1 UNK         0.0814 
    114 H114      -52.2462  -22.6607   19.2153 H         1 UNK         0.0814 
    115 H115      -51.4506  -24.1374   19.7335 H         1 UNK         0.0814 
    116 H116      -50.2220  -24.5377   16.1869 H         1 UNK         0.3091 
    117 H117      -48.3763  -27.1783   17.5890 H         1 UNK         0.0702 
    118 H118      -50.2782  -28.4149   16.5381 H         1 UNK         0.0785 
    119 H119      -50.2978  -27.2757   15.1992 H         1 UNK         0.0785 
    120 H120      -48.9038  -28.3263   15.4474 H         1 UNK         0.0785 
    121 H121      -48.2396  -25.8920   15.0438 H         1 UNK         0.2998 
    122 H122      -46.0512  -23.2284   16.0895 H         1 UNK         0.0697 
    123 H123      -45.7158  -25.6987   14.3055 H         1 UNK         0.0825 
    124 H124      -44.6791  -25.2700   15.6594 H         1 UNK         0.0825 
    125 H125      -44.7425  -24.2321   14.2435 H         1 UNK         0.0825 
    126 H126      -47.1960  -23.8324   13.5477 H         1 UNK         0.3029 
    127 H127      -50.1039  -21.7468   13.9156 H         1 UNK         0.0897 
    128 H128      -49.1399  -20.8610   11.7919 H         1 UNK         0.0792 
    129 H129      -47.5719  -21.5564   12.1964 H         1 UNK         0.0792 
    130 H130      -48.2453  -20.2682   13.1835 H         1 UNK         0.0792 
    131 H131      -49.3105  -23.3682   11.7396 H         1 UNK         0.3086 
    132 H132      -50.7931  -26.4316   12.8639 H         1 UNK         0.0583 
    133 H133      -52.6283  -25.0365   11.8469 H         1 UNK         0.1020 
    134 H134      -51.5321  -24.5262   10.5824 H         1 UNK         0.1020 
    135 H135      -53.9578  -25.6662    9.2861 H         1 UNK         0.0694 
    136 H136      -52.4527  -25.4400    8.4260 H         1 UNK         0.0694 
    137 H137      -49.3097  -25.7582   10.5195 H         1 UNK         0.2989 
    138 H138      -46.0987  -26.6271   11.8288 H         1 UNK         0.1055 
    139 H139      -47.0986  -28.7639   11.1078 H         1 UNK         0.0806 
    140 H140      -46.2128  -28.0511    9.7681 H         1 UNK         0.0806 
    141 H141      -47.9740  -27.9742    9.8058 H         1 UNK         0.0806 
    142 H142      -47.0950  -25.6458    9.2919 H         1 UNK         0.3061 
    143 H143      -46.6449  -22.1917   10.0214 H         1 UNK         0.0734 
    144 H144      -44.2983  -22.9354    9.5763 H         1 UNK         0.0832 
    145 H145      -45.0404  -22.2727    8.1307 H         1 UNK         0.0832 
    146 H146      -44.8662  -24.0193    8.3143 H         1 UNK         0.0832 
    147 H147      -47.2068  -23.5093    7.5778 H         1 UNK         0.3156 
    148 H148      -50.5949  -24.2619    8.0266 H         1 UNK         0.0589 
    149 H149      -49.5457  -21.8164    6.5061 H         1 UNK         0.0808 
    150 H150      -51.0771  -22.6438    6.2147 H         1 UNK         0.0808 
    151 H151      -50.8124  -21.7903    7.7248 H         1 UNK         0.0808 
    152 H152      -49.1018  -24.1282    5.6398 H         1 UNK         0.3098 
    153 H153      -48.6722  -26.2124    4.6585 H         1 UNK         0.0720 
    154 H154      -46.1703  -26.3803    4.4071 H         1 UNK         0.0791 
    155 H155      -45.9676  -26.1325    6.1389 H         1 UNK         0.0791 
    156 H156      -46.6074  -24.8423    5.1270 H         1 UNK         0.0791 
    157 H157      -48.0572  -28.1765    6.7003 H         1 UNK         0.3028 
@<TRIPOS>BOND
     1    1    2 1    
     2    1   82 1    
     3    1   83 1    
     4    1   84 1    
     5    2    3 2    
     6    2    4 am   BACKBONE|DICT|INTERRES
     7    4    5 1    
     8    4   85 1    
     9    5    6 1    
    10    5   80 1    
    11    5   86 1    
    12    6    7 1    
    13    6   87 1    
    14    6   88 1    
    15    7    8 1    
    16    8    9 1    
    17    8   89 1    
    18    8   90 1    
    19    9   10 ar   
    20    9   14 ar   
    21   10   11 ar   
    22   10   91 1    
    23   11   12 ar   
    24   11   58 1    
    25   12   13 ar   
    26   12   92 1    
    27   13   14 ar   
    28   13   15 1    
    29   14   93 1    
    30   15   16 1    
    31   15   94 1    
    32   15   95 1    
    33   16   17 1    
    34   17   18 1    
    35   17   96 1    
    36   17   97 1    
    37   18   19 1    
    38   18   22 1    
    39   18   98 1    
    40   19   20 am   BACKBONE|DICT|INTERRES
    41   19   21 2    
    42   20   99 1    
    43   20  100 1    
    44   22   23 am   BACKBONE|DICT|INTERRES
    45   22  101 1    
    46   23   24 2    
    47   23   25 1    
    48   25   26 1    
    49   25   27 1    
    50   25  102 1    
    51   26  103 1    
    52   26  104 1    
    53   26  105 1    
    54   27   28 am   BACKBONE|DICT|INTERRES
    55   27  106 1    
    56   28   29 2    
    57   28   30 1    
    58   30   31 1    
    59   30   32 1    
    60   30  107 1    
    61   31  108 1    
    62   31  109 1    
    63   31  110 1    
    64   32   33 am   BACKBONE|DICT|INTERRES
    65   32  111 1    
    66   33   34 2    
    67   33   35 1    
    68   35   36 1    
    69   35   37 1    
    70   35  112 1    
    71   36  113 1    
    72   36  114 1    
    73   36  115 1    
    74   37   38 am   BACKBONE|DICT|INTERRES
    75   37  116 1    
    76   38   39 2    
    77   38   40 1    
    78   40   41 1    
    79   40   42 1    
    80   40  117 1    
    81   41  118 1    
    82   41  119 1    
    83   41  120 1    
    84   42   43 am   BACKBONE|DICT|INTERRES
    85   42  121 1    
    86   43   44 2    
    87   43   45 1    
    88   45   46 1    
    89   45   47 1    
    90   45  122 1    
    91   46  123 1    
    92   46  124 1    
    93   46  125 1    
    94   47   48 am   BACKBONE|DICT|INTERRES
    95   47  126 1    
    96   48   49 2    
    97   48   50 1    
    98   50   51 1    
    99   50   52 1    
   100   50  127 1    
   101   51  128 1    
   102   51  129 1    
   103   51  130 1    
   104   52   53 am   BACKBONE|DICT|INTERRES
   105   52  131 1    
   106   53   54 2    
   107   53   55 1    
   108   55   56 1    
   109   55   59 1    
   110   55  132 1    
   111   56   57 1    
   112   56  133 1    
   113   56  134 1    
   114   57   58 1    
   115   58  135 1    
   116   58  136 1    
   117   59   60 am   BACKBONE|DICT|INTERRES
   118   59  137 1    
   119   60   61 2    
   120   60   62 1    
   121   62   63 1    
   122   62   64 1    
   123   62  138 1    
   124   63  139 1    
   125   63  140 1    
   126   63  141 1    
   127   64   65 am   BACKBONE|DICT|INTERRES
   128   64  142 1    
   129   65   66 2    
   130   65   67 1    
   131   67   68 1    
   132   67   69 1    
   133   67  143 1    
   134   68  144 1    
   135   68  145 1    
   136   68  146 1    
   137   69   70 am   BACKBONE|DICT|INTERRES
   138   69  147 1    
   139   70   71 2    
   140   70   72 1    
   141   72   73 1    
   142   72   74 1    
   143   72  148 1    
   144   73  149 1    
   145   73  150 1    
   146   73  151 1    
   147   74   75 am   BACKBONE|DICT|INTERRES
   148   74  152 1    
   149   75   76 2    
   150   75   77 1    
   151   77   78 1    
   152   77   79 1    
   153   77  153 1    
   154   78  154 1    
   155   78  155 1    
   156   78  156 1    
   157   79   80 am   BACKBONE|DICT|INTERRES
   158   79  157 1    
   159   80   81 2    
@<TRIPOS>SUBSTRUCTURE
     1 UNK         1 GROUP             0       ****    0 ROOT    
