@<TRIPOS>MOLECULE
3R207
157   159    1
SMALL
USER_CHARGES


@<TRIPOS>ATOM
      1 CA        -46.4079  -31.8369    5.2933 C.3       0 UNK        -0.1975 
      2 C         -47.2940  -30.6433    4.9687 C.2       0 UNK         0.4852 
      3 O         -47.1499  -30.0466    3.9007 O.2       0 UNK        -0.5216 
      4 N         -48.2151  -30.2988    5.8772 N.am      1 UNK        -0.4461 
      5 CA        -49.1038  -29.1374    5.7883 C.3       1 UNK         0.0864 
      6 C6        -50.3199  -29.2440    6.7491 C.3       14 UNK        -0.0898 
      7 S7        -49.9539  -29.9414    8.4016 S.3       14 UNK        -0.2598 
      8 C8        -51.5529  -30.7050    8.8484 C.3       14 UNK         0.0286 
      9 C9        -52.7089  -29.7133    8.7910 C.ar      14 UNK        -0.0844 
     10 C10       -52.6116  -28.4820    9.4418 C.ar      14 UNK        -0.0881 
     11 C11       -53.6187  -27.5239    9.3105 C.ar      14 UNK        -0.0643 
     12 C12       -54.7651  -27.8274    8.5702 C.ar      14 UNK        -0.0930 
     13 C13       -54.9026  -29.0796    7.9624 C.ar      14 UNK        -0.0827 
     14 C14       -53.8652  -30.0128    8.0650 C.ar      14 UNK        -0.1249 
     15 C15       -56.1586  -29.4150    7.1687 C.3       14 UNK         0.0141 
     16 S16       -57.6083  -29.7025    8.2375 S.3       14 UNK        -0.2313 
     17 C17       -57.0978  -31.1666    9.2059 C.3       14 UNK        -0.0915 
     18 CA        -57.1190  -30.9241   10.7402 C.3       13 UNK         0.0968 
     19 C         -56.6903  -32.2080   11.5087 C.2       13 UNK         0.5732 
     20 N         -55.5850  -32.2082   12.2446 N.am      13 UNK        -0.7310 
     21 O         -57.3801  -33.2227   11.4397 O.2       13 UNK        -0.5035 
     22 N         -56.3916  -29.7003   11.1159 N.am      13 UNK        -0.4233 
     23 C         -56.5558  -29.0359   12.2656 C.2       13 UNK         0.4989 
     24 O         -57.3010  -29.3948   13.1809 O.2       13 UNK        -0.4996 
     25 CA        -55.7835  -27.7207   12.3901 C.3       12 UNK         0.0216 
     26 CB        -56.5181  -26.5855   11.6526 C.3       12 UNK        -0.1964 
     27 N         -55.6326  -27.3578   13.7967 N.am      12 UNK        -0.4276 
     28 C         -54.5705  -26.7308   14.3110 C.2       12 UNK         0.5020 
     29 O         -53.5766  -26.4074   13.6538 O.2       12 UNK        -0.5489 
     30 CA        -54.6178  -26.4116   15.8107 C.3       11 UNK         0.0294 
     31 CB        -54.5069  -27.6928   16.6605 C.3       11 UNK        -0.2019 
     32 N         -53.5003  -25.5229   16.1064 N.am      11 UNK        -0.4493 
     33 C         -53.3514  -24.7344   17.1758 C.2       11 UNK         0.4932 
     34 O         -54.2013  -24.6083   18.0592 O.2       11 UNK        -0.5029 
     35 CA        -52.0054  -23.9848   17.2680 C.3       10 UNK         0.0280 
     36 CB        -51.7481  -23.3493   18.6508 C.3       10 UNK        -0.1976 
     37 N         -50.8841  -24.8379   16.8512 N.am      10 UNK        -0.4242 
     38 C         -50.4981  -25.9938   17.4164 C.2       10 UNK         0.5072 
     39 O         -50.9443  -26.4328   18.4774 O.2       10 UNK        -0.5224 
     40 CA        -49.4686  -26.8346   16.6460 C.3       9 UNK         0.0343 
     41 CB        -50.1921  -27.7865   15.6787 C.3       9 UNK        -0.2003 
     42 N         -48.4917  -26.0320   15.9066 N.am      9 UNK        -0.4272 
     43 C         -47.4945  -25.3454   16.4835 C.2       9 UNK         0.4988 
     44 O         -47.2981  -25.3134   17.6991 O.2       9 UNK        -0.5108 
     45 CA        -46.5458  -24.5725   15.5520 C.3       8 UNK         0.0248 
     46 CB        -45.5443  -25.5280   14.8832 C.3       8 UNK        -0.2001 
     47 N         -47.2511  -23.7975   14.5295 N.am      8 UNK        -0.4140 
     48 C         -48.0280  -22.7345   14.7844 C.2       8 UNK         0.5028 
     49 O         -48.2012  -22.2625   15.9086 O.2       8 UNK        -0.5428 
     50 CA        -48.7532  -22.0972   13.5866 C.3       7 UNK         0.0264 
     51 CB        -47.8179  -21.1502   12.8177 C.3       7 UNK        -0.1988 
     52 N         -49.3148  -23.0848   12.6638 N.am      7 UNK        -0.4454 
     53 C         -50.2661  -23.9769   12.9805 C.2       7 UNK         0.5027 
     54 O         -50.7987  -24.0577   14.0881 O.2       7 UNK        -0.5083 
     55 CA        -50.6496  -24.9725   11.8723 C.3       6 UNK         0.0844 
     56 C56       -51.5868  -24.2844   10.8423 C.3       14 UNK        -0.0967 
     57 S57       -51.9551  -25.3205    9.3903 S.3       14 UNK        -0.2604 
     58 C58       -53.4511  -26.1687    9.9762 C.3       14 UNK         0.0134 
     59 N         -49.4489  -25.5696   11.2757 N.am      6 UNK        -0.4116 
     60 C         -48.5651  -26.3389   11.9303 C.2       5 UNK         0.5034 
     61 O         -48.6779  -26.6648   13.1104 O.2       5 UNK        -0.5045 
     62 CA        -47.3129  -26.7816   11.1568 C.3       5 UNK         0.0224 
     63 CB        -47.6050  -28.0430   10.3361 C.3       5 UNK        -0.1978 
     64 N         -46.7962  -25.7368   10.2731 N.am      5 UNK        -0.4737 
     65 C         -46.2981  -24.5665   10.6959 C.2       4 UNK         0.5027 
     66 O         -46.1582  -24.2695   11.8814 O.2       4 UNK        -0.5211 
     67 CA        -45.9643  -23.5322    9.6098 C.3       4 UNK         0.0297 
     68 CB        -44.5494  -23.7621    9.0575 C.3       4 UNK        -0.1993 
     69 N         -46.9297  -23.5428    8.5072 N.am      4 UNK        -0.4486 
     70 C         -48.2393  -23.2940    8.6204 C.2       3 UNK         0.4961 
     71 O         -48.7714  -22.9832    9.6868 O.2       3 UNK        -0.5105 
     72 CA        -49.1172  -23.4354    7.3601 C.3       3 UNK         0.0299 
     73 CB        -49.2407  -22.0809    6.6369 C.3       3 UNK        -0.1972 
     74 N         -48.7468  -24.5095    6.4176 N.am      3 UNK        -0.4305 
     75 C         -47.6312  -24.6342    5.6819 C.2       2 UNK         0.5006 
     76 O         -46.6714  -23.8664    5.7720 O.2       2 UNK        -0.5106 
     77 CA        -47.5766  -25.7790    4.6500 C.3       2 UNK         0.0296 
     78 CB        -46.1289  -26.2292    4.3507 C.3       2 UNK        -0.2002 
     79 N         -48.4287  -26.9444    4.9310 N.am      2 UNK        -0.4032 
     80 C         -48.3020  -27.8227    5.9384 C.2       1 UNK         0.5000 
     81 O         -47.5668  -27.6534    6.9142 O.2       1 UNK        -0.5238 
     82 H82       -46.6522  -32.2744    6.2613 H         1 UNK         0.0889 
     83 H83       -45.3619  -31.5325    5.3131 H         1 UNK         0.0889 
     84 H84       -46.5246  -32.6089    4.5331 H         1 UNK         0.0889 
     85 H85       -48.2729  -30.8021    6.7517 H         1 UNK         0.3028 
     86 H86       -49.5156  -29.1449    4.7762 H         1 UNK         0.0864 
     87 H87       -50.8108  -28.2769    6.8758 H         1 UNK         0.0720 
     88 H88       -51.0686  -29.8873    6.2839 H         1 UNK         0.0720 
     89 H89       -51.4832  -31.1113    9.8581 H         1 UNK         0.0814 
     90 H90       -51.7345  -31.5518    8.1847 H         1 UNK         0.0814 
     91 H91       -51.7227  -28.2452   10.0111 H         1 UNK         0.1469 
     92 H92       -55.5525  -27.0935    8.4656 H         1 UNK         0.1381 
     93 H93       -53.9536  -30.9697    7.5688 H         1 UNK         0.1206 
     94 H94       -56.3822  -28.5935    6.4866 H         1 UNK         0.0813 
     95 H95       -55.9986  -30.2936    6.5416 H         1 UNK         0.0813 
     96 H96       -57.7767  -31.9806    8.9452 H         1 UNK         0.0638 
     97 H97       -56.1077  -31.4938    8.8868 H         1 UNK         0.0638 
     98 H98       -58.1622  -30.7591   11.0167 H         1 UNK         0.0568 
     99 H99       -55.3228  -33.0455   12.7400 H         1 UNK         0.3450 
    100 H100      -55.0131  -31.3822   12.3083 H         1 UNK         0.3450 
    101 H101      -55.7689  -29.3324   10.4102 H         1 UNK         0.2987 
    102 H102      -54.7999  -27.8816   11.9470 H         1 UNK         0.0766 
    103 H103      -55.9552  -25.6533   11.6982 H         1 UNK         0.0798 
    104 H104      -57.5023  -26.3995   12.0845 H         1 UNK         0.0798 
    105 H105      -56.6684  -26.8255   10.6001 H         1 UNK         0.0798 
    106 H106      -56.3847  -27.6686   14.3992 H         1 UNK         0.3198 
    107 H107      -55.5552  -25.8955   16.0281 H         1 UNK         0.0843 
    108 H108      -53.5816  -28.2318   16.4528 H         1 UNK         0.0831 
    109 H109      -55.3348  -28.3743   16.4625 H         1 UNK         0.0831 
    110 H110      -54.5267  -27.4666   17.7267 H         1 UNK         0.0831 
    111 H111      -52.7972  -25.5121   15.3742 H         1 UNK         0.3133 
    112 H112      -52.0558  -23.1750   16.5388 H         1 UNK         0.0566 
    113 H113      -50.7881  -22.8335   18.6760 H         1 UNK         0.0814 
    114 H114      -52.5177  -22.6145   18.8901 H         1 UNK         0.0814 
    115 H115      -51.7516  -24.0924   19.4486 H         1 UNK         0.0814 
    116 H116      -50.4910  -24.5998   15.9443 H         1 UNK         0.3091 
    117 H117      -48.9265  -27.4423   17.3738 H         1 UNK         0.0702 
    118 H118      -50.9057  -28.4174   16.2103 H         1 UNK         0.0785 
    119 H119      -50.7465  -27.2404   14.9135 H         1 UNK         0.0785 
    120 H120      -49.4885  -28.4480   15.1729 H         1 UNK         0.0785 
    121 H121      -48.5590  -26.0571   14.8914 H         1 UNK         0.2998 
    122 H122      -45.9792  -23.8697   16.1665 H         1 UNK         0.0697 
    123 H123      -46.0431  -26.2421   14.2274 H         1 UNK         0.0825 
    124 H124      -44.9913  -26.1000   15.6294 H         1 UNK         0.0825 
    125 H125      -44.8135  -24.9816   14.2866 H         1 UNK         0.0825 
    126 H126      -47.0976  -24.0701   13.5617 H         1 UNK         0.3029 
    127 H127      -49.5842  -21.5090   13.9818 H         1 UNK         0.0897 
    128 H128      -48.3448  -20.6418   12.0099 H         1 UNK         0.0792 
    129 H129      -46.9721  -21.6823   12.3811 H         1 UNK         0.0792 
    130 H130      -47.4142  -20.3808   13.4772 H         1 UNK         0.0792 
    131 H131      -48.9533  -23.0856   11.7140 H         1 UNK         0.3086 
    132 H132      -51.2073  -25.7859   12.3413 H         1 UNK         0.0583 
    133 H133      -52.5245  -23.9977   11.3232 H         1 UNK         0.1020 
    134 H134      -51.1563  -23.3527   10.4736 H         1 UNK         0.1020 
    135 H135      -53.3789  -26.3176   11.0523 H         1 UNK         0.0694 
    136 H136      -54.3161  -25.5280    9.8001 H         1 UNK         0.0694 
    137 H137      -49.2611  -25.3191   10.3167 H         1 UNK         0.2989 
    138 H138      -46.5382  -27.0187   11.8891 H         1 UNK         0.1055 
    139 H139      -47.9978  -28.8426   10.9658 H         1 UNK         0.0806 
    140 H140      -46.7059  -28.4223    9.8503 H         1 UNK         0.0806 
    141 H141      -48.3435  -27.8441    9.5595 H         1 UNK         0.0806 
    142 H142      -46.8737  -25.8970    9.2780 H         1 UNK         0.3061 
    143 H143      -45.9988  -22.5435   10.0720 H         1 UNK         0.0734 
    144 H144      -44.2713  -22.9859    8.3444 H         1 UNK         0.0832 
    145 H145      -43.8102  -23.7444    9.8598 H         1 UNK         0.0832 
    146 H146      -44.4629  -24.7260    8.5542 H         1 UNK         0.0832 
    147 H147      -46.5799  -23.7372    7.5705 H         1 UNK         0.3156 
    148 H148      -50.1141  -23.6979    7.7150 H         1 UNK         0.0589 
    149 H149      -48.2818  -21.7358    6.2487 H         1 UNK         0.0808 
    150 H150      -49.9397  -22.1387    5.8025 H         1 UNK         0.0808 
    151 H151      -49.6104  -21.3105    7.3152 H         1 UNK         0.0808 
    152 H152      -49.4530  -25.2206    6.2887 H         1 UNK         0.3098 
    153 H153      -47.9714  -25.3477    3.7290 H         1 UNK         0.0720 
    154 H154      -46.1058  -27.0179    3.5983 H         1 UNK         0.0791 
    155 H155      -45.6308  -26.6060    5.2448 H         1 UNK         0.0791 
    156 H156      -45.5283  -25.4031    3.9679 H         1 UNK         0.0791 
    157 H157      -49.0846  -27.1711    4.1956 H         1 UNK         0.3028 
@<TRIPOS>BOND
     1    1    2 1    
     2    1   82 1    
     3    1   83 1    
     4    1   84 1    
     5    2    3 2    
     6    2    4 am   BACKBONE|DICT|INTERRES
     7    4    5 1    
     8    4   85 1    
     9    5    6 1    
    10    5   80 1    
    11    5   86 1    
    12    6    7 1    
    13    6   87 1    
    14    6   88 1    
    15    7    8 1    
    16    8    9 1    
    17    8   89 1    
    18    8   90 1    
    19    9   10 ar   
    20    9   14 ar   
    21   10   11 ar   
    22   10   91 1    
    23   11   12 ar   
    24   11   58 1    
    25   12   13 ar   
    26   12   92 1    
    27   13   14 ar   
    28   13   15 1    
    29   14   93 1    
    30   15   16 1    
    31   15   94 1    
    32   15   95 1    
    33   16   17 1    
    34   17   18 1    
    35   17   96 1    
    36   17   97 1    
    37   18   19 1    
    38   18   22 1    
    39   18   98 1    
    40   19   20 am   BACKBONE|DICT|INTERRES
    41   19   21 2    
    42   20   99 1    
    43   20  100 1    
    44   22   23 am   BACKBONE|DICT|INTERRES
    45   22  101 1    
    46   23   24 2    
    47   23   25 1    
    48   25   26 1    
    49   25   27 1    
    50   25  102 1    
    51   26  103 1    
    52   26  104 1    
    53   26  105 1    
    54   27   28 am   BACKBONE|DICT|INTERRES
    55   27  106 1    
    56   28   29 2    
    57   28   30 1    
    58   30   31 1    
    59   30   32 1    
    60   30  107 1    
    61   31  108 1    
    62   31  109 1    
    63   31  110 1    
    64   32   33 am   BACKBONE|DICT|INTERRES
    65   32  111 1    
    66   33   34 2    
    67   33   35 1    
    68   35   36 1    
    69   35   37 1    
    70   35  112 1    
    71   36  113 1    
    72   36  114 1    
    73   36  115 1    
    74   37   38 am   BACKBONE|DICT|INTERRES
    75   37  116 1    
    76   38   39 2    
    77   38   40 1    
    78   40   41 1    
    79   40   42 1    
    80   40  117 1    
    81   41  118 1    
    82   41  119 1    
    83   41  120 1    
    84   42   43 am   BACKBONE|DICT|INTERRES
    85   42  121 1    
    86   43   44 2    
    87   43   45 1    
    88   45   46 1    
    89   45   47 1    
    90   45  122 1    
    91   46  123 1    
    92   46  124 1    
    93   46  125 1    
    94   47   48 am   BACKBONE|DICT|INTERRES
    95   47  126 1    
    96   48   49 2    
    97   48   50 1    
    98   50   51 1    
    99   50   52 1    
   100   50  127 1    
   101   51  128 1    
   102   51  129 1    
   103   51  130 1    
   104   52   53 am   BACKBONE|DICT|INTERRES
   105   52  131 1    
   106   53   54 2    
   107   53   55 1    
   108   55   56 1    
   109   55   59 1    
   110   55  132 1    
   111   56   57 1    
   112   56  133 1    
   113   56  134 1    
   114   57   58 1    
   115   58  135 1    
   116   58  136 1    
   117   59   60 am   BACKBONE|DICT|INTERRES
   118   59  137 1    
   119   60   61 2    
   120   60   62 1    
   121   62   63 1    
   122   62   64 1    
   123   62  138 1    
   124   63  139 1    
   125   63  140 1    
   126   63  141 1    
   127   64   65 am   BACKBONE|DICT|INTERRES
   128   64  142 1    
   129   65   66 2    
   130   65   67 1    
   131   67   68 1    
   132   67   69 1    
   133   67  143 1    
   134   68  144 1    
   135   68  145 1    
   136   68  146 1    
   137   69   70 am   BACKBONE|DICT|INTERRES
   138   69  147 1    
   139   70   71 2    
   140   70   72 1    
   141   72   73 1    
   142   72   74 1    
   143   72  148 1    
   144   73  149 1    
   145   73  150 1    
   146   73  151 1    
   147   74   75 am   BACKBONE|DICT|INTERRES
   148   74  152 1    
   149   75   76 2    
   150   75   77 1    
   151   77   78 1    
   152   77   79 1    
   153   77  153 1    
   154   78  154 1    
   155   78  155 1    
   156   78  156 1    
   157   79   80 am   BACKBONE|DICT|INTERRES
   158   79  157 1    
   159   80   81 2    
@<TRIPOS>SUBSTRUCTURE
     1 UNK         1 GROUP             0       ****    0 ROOT    
