@<TRIPOS>MOLECULE
3R207
157   159    1
SMALL
USER_CHARGES


@<TRIPOS>ATOM
      1 CA        -48.4871  -31.4443    8.3782 C.3       0 UNK        -0.1975 
      2 C         -49.0382  -30.8786    7.0773 C.2       0 UNK         0.4852 
      3 O         -48.5327  -31.2093    6.0044 O.2       0 UNK        -0.5216 
      4 N         -50.0743  -30.0336    7.1693 N.am      1 UNK        -0.4461 
      5 CA        -50.7203  -29.3499    6.0418 C.3       1 UNK         0.0864 
      6 C6        -52.0318  -28.6756    6.5120 C.3       14 UNK        -0.0898 
      7 S7        -53.0732  -28.0198    5.1629 S.3       14 UNK        -0.2598 
      8 C8        -54.6170  -27.6194    6.0508 C.3       14 UNK         0.0286 
      9 C9        -54.3574  -26.8303    7.3272 C.ar      14 UNK        -0.0844 
     10 C10       -53.8859  -25.5157    7.2628 C.ar      14 UNK        -0.0881 
     11 C11       -53.5789  -24.8152    8.4332 C.ar      14 UNK        -0.0643 
     12 C12       -53.7630  -25.4312    9.6734 C.ar      14 UNK        -0.0930 
     13 C13       -54.2360  -26.7435    9.7489 C.ar      14 UNK        -0.0827 
     14 C14       -54.5428  -27.4348    8.5741 C.ar      14 UNK        -0.1249 
     15 C15       -54.3989  -27.4095   11.1039 C.3       14 UNK         0.0141 
     16 S16       -52.8269  -28.1213   11.6870 S.3       14 UNK        -0.2313 
     17 C17       -52.8201  -29.7387   10.8293 C.3       14 UNK        -0.0915 
     18 CA        -53.0859  -30.9528   11.7639 C.3       13 UNK         0.0968 
     19 C         -51.8119  -31.3964   12.5386 C.2       13 UNK         0.5732 
     20 N         -50.8507  -31.9930   11.8453 N.am      13 UNK        -0.7310 
     21 O         -51.6737  -31.2004   13.7437 O.2       13 UNK        -0.5035 
     22 N         -54.2538  -30.7103   12.6195 N.am      13 UNK        -0.4233 
     23 C         -54.9096  -31.6174   13.3500 C.2       13 UNK         0.4989 
     24 O         -54.6644  -32.8245   13.3136 O.2       13 UNK        -0.4996 
     25 CA        -56.0716  -31.1101   14.2344 C.3       12 UNK         0.0216 
     26 CB        -56.0146  -31.7097   15.6560 C.3       12 UNK        -0.1964 
     27 N         -56.2360  -29.6445   14.2820 N.am      12 UNK        -0.4276 
     28 C         -55.3997  -28.7423   14.8166 C.2       12 UNK         0.5020 
     29 O         -54.3299  -29.0227   15.3613 O.2       12 UNK        -0.5489 
     30 CA        -55.8282  -27.2735   14.7156 C.3       11 UNK         0.0294 
     31 CB        -56.7989  -26.8972   15.8489 C.3       11 UNK        -0.2019 
     32 N         -54.6270  -26.4514   14.7974 N.am      11 UNK        -0.4493 
     33 C         -54.4551  -25.2290   14.2871 C.2       11 UNK         0.4932 
     34 O         -55.3479  -24.6154   13.7018 O.2       11 UNK        -0.5029 
     35 CA        -53.0619  -24.5741   14.4008 C.3       10 UNK         0.0280 
     36 CB        -53.0926  -23.3753   15.3697 C.3       10 UNK        -0.1976 
     37 N         -51.9470  -25.4810   14.7178 N.am      10 UNK        -0.4242 
     38 C         -51.7205  -26.1676   15.8476 C.2       10 UNK         0.5072 
     39 O         -52.4634  -26.1528   16.8288 O.2       10 UNK        -0.5224 
     40 CA        -50.4550  -27.0294   15.8823 C.3       9 UNK         0.0343 
     41 CB        -50.6078  -28.2729   14.9905 C.3       9 UNK        -0.2003 
     42 N         -49.2811  -26.2598   15.4678 N.am      9 UNK        -0.4272 
     43 C         -48.4218  -25.6929   16.3242 C.2       9 UNK         0.4988 
     44 O         -48.5519  -25.7213   17.5490 O.2       9 UNK        -0.5108 
     45 CA        -47.1786  -25.0182   15.7286 C.3       8 UNK         0.0248 
     46 CB        -46.1309  -26.0766   15.3451 C.3       8 UNK        -0.2001 
     47 N         -47.4590  -24.1559   14.5779 N.am      8 UNK        -0.4140 
     48 C         -47.9706  -22.9204   14.6822 C.2       8 UNK         0.5028 
     49 O         -48.3841  -22.4372   15.7371 O.2       8 UNK        -0.5428 
     50 CA        -47.9729  -22.0530   13.4119 C.3       7 UNK         0.0264 
     51 CB        -46.5398  -21.6805   12.9948 C.3       7 UNK        -0.1988 
     52 N         -48.6540  -22.6940   12.2909 N.am      7 UNK        -0.4454 
     53 C         -49.9842  -22.8139   12.1780 C.2       7 UNK         0.5027 
     54 O         -50.7866  -22.3388   12.9808 O.2       7 UNK        -0.5083 
     55 CA        -50.5077  -23.6052   10.9600 C.3       6 UNK         0.0844 
     56 C56       -50.6545  -22.6533    9.7448 C.3       14 UNK        -0.0967 
     57 S57       -51.2015  -23.4668    8.2075 S.3       14 UNK        -0.2604 
     58 C58       -53.0136  -23.4080    8.3536 C.3       14 UNK         0.0134 
     59 N         -49.6911  -24.7952   10.6858 N.am      6 UNK        -0.4116 
     60 C         -49.4790  -25.7899   11.5626 C.2       5 UNK         0.5034 
     61 O         -49.9990  -25.8482   12.6769 O.2       5 UNK        -0.5045 
     62 CA        -48.4589  -26.8660   11.1672 C.3       5 UNK         0.0224 
     63 CB        -49.1163  -27.9665   10.3188 C.3       5 UNK        -0.1978 
     64 N         -47.3160  -26.2869   10.4570 N.am      5 UNK        -0.4737 
     65 C         -46.3599  -25.5555   11.0482 C.2       4 UNK         0.5027 
     66 O         -46.3261  -25.3304   12.2561 O.2       4 UNK        -0.5211 
     67 CA        -45.2884  -24.9280   10.1406 C.3       4 UNK         0.0297 
     68 CB        -44.1737  -25.9424    9.8418 C.3       4 UNK        -0.1993 
     69 N         -45.8374  -24.4148    8.8845 N.am      4 UNK        -0.4486 
     70 C         -46.7352  -23.4233    8.7976 C.2       3 UNK         0.4961 
     71 O         -47.1367  -22.7789    9.7664 O.2       3 UNK        -0.5105 
     72 CA        -47.3229  -23.1342    7.4034 C.3       3 UNK         0.0299 
     73 CB        -46.5012  -22.0467    6.6940 C.3       3 UNK        -0.1972 
     74 N         -47.4409  -24.3092    6.5273 N.am      3 UNK        -0.4305 
     75 C         -48.0789  -25.4482    6.8327 C.2       2 UNK         0.5006 
     76 O         -48.5951  -25.6764    7.9302 O.2       2 UNK        -0.5106 
     77 CA        -48.0991  -26.5347    5.7528 C.3       2 UNK         0.0296 
     78 CB        -46.7072  -27.1696    5.5743 C.3       2 UNK        -0.2002 
     79 N         -49.0515  -27.5599    6.1625 N.am      2 UNK        -0.4032 
     80 C         -49.7629  -28.3505    5.3519 C.2       1 UNK         0.5000 
     81 O         -49.6695  -28.3351    4.1224 O.2       1 UNK        -0.5238 
     82 H82       -49.0566  -31.1103    9.2451 H         1 UNK         0.0889 
     83 H83       -47.4516  -31.1326    8.5125 H         1 UNK         0.0889 
     84 H84       -48.5146  -32.5334    8.3551 H         1 UNK         0.0889 
     85 H85       -50.4522  -29.8212    8.0803 H         1 UNK         0.3028 
     86 H86       -50.9776  -30.1145    5.3054 H         1 UNK         0.0864 
     87 H87       -51.8109  -27.8662    7.2111 H         1 UNK         0.0720 
     88 H88       -52.6350  -29.3970    7.0662 H         1 UNK         0.0720 
     89 H89       -55.1473  -28.5470    6.2720 H         1 UNK         0.0814 
     90 H90       -55.2693  -27.0437    5.3927 H         1 UNK         0.0814 
     91 H91       -53.7234  -25.0514    6.2996 H         1 UNK         0.1469 
     92 H92       -53.5212  -24.8982   10.5817 H         1 UNK         0.1381 
     93 H93       -54.9037  -28.4524    8.6279 H         1 UNK         0.1206 
     94 H94       -55.1732  -28.1771   11.0690 H         1 UNK         0.0813 
     95 H95       -54.7423  -26.6688   11.8240 H         1 UNK         0.0813 
     96 H96       -53.5772  -29.7286   10.0461 H         1 UNK         0.0638 
     97 H97       -51.8721  -29.8453   10.3005 H         1 UNK         0.0638 
     98 H98       -53.3512  -31.7980   11.1259 H         1 UNK         0.0568 
     99 H99       -50.0160  -32.2857   12.3278 H         1 UNK         0.3450 
    100 H100      -50.9577  -32.1886   10.8635 H         1 UNK         0.3450 
    101 H101      -54.4724  -29.7386   12.7708 H         1 UNK         0.2987 
    102 H102      -56.9791  -31.4894   13.7623 H         1 UNK         0.0766 
    103 H103      -56.8546  -31.3733   16.2636 H         1 UNK         0.0798 
    104 H104      -55.0945  -31.4382   16.1744 H         1 UNK         0.0798 
    105 H105      -56.0563  -32.7992   15.6243 H         1 UNK         0.0798 
    106 H106      -57.0867  -29.3012   13.8553 H         1 UNK         0.3198 
    107 H107      -56.3109  -27.1131   13.7493 H         1 UNK         0.0843 
    108 H108      -56.3439  -27.0407   16.8299 H         1 UNK         0.0831 
    109 H109      -57.7017  -27.5081   15.8140 H         1 UNK         0.0831 
    110 H110      -57.1109  -25.8553   15.7747 H         1 UNK         0.0831 
    111 H111      -53.8518  -26.9029   15.2717 H         1 UNK         0.3133 
    112 H112      -52.8359  -24.1853   13.4073 H         1 UNK         0.0566 
    113 H113      -52.1248  -22.8747   15.4098 H         1 UNK         0.0814 
    114 H114      -53.8260  -22.6347   15.0484 H         1 UNK         0.0814 
    115 H115      -53.3589  -23.6758   16.3833 H         1 UNK         0.0814 
    116 H116      -51.2749  -25.6082   13.9620 H         1 UNK         0.3091 
    117 H117      -50.3262  -27.3844   16.9072 H         1 UNK         0.0702 
    118 H118      -51.4819  -28.8559   15.2847 H         1 UNK         0.0785 
    119 H119      -50.7327  -28.0192   13.9384 H         1 UNK         0.0785 
    120 H120      -49.7412  -28.9287   15.0727 H         1 UNK         0.0785 
    121 H121      -49.1537  -26.1290   14.4701 H         1 UNK         0.2998 
    122 H122      -46.7386  -24.3965   16.5117 H         1 UNK         0.0697 
    123 H123      -46.4980  -26.7474   14.5673 H         1 UNK         0.0825 
    124 H124      -45.8637  -26.6915   16.2055 H         1 UNK         0.0825 
    125 H125      -45.2139  -25.6134   14.9802 H         1 UNK         0.0825 
    126 H126      -47.1253  -24.4862   13.6734 H         1 UNK         0.3029 
    127 H127      -48.5016  -21.1263   13.6467 H         1 UNK         0.0897 
    128 H128      -46.5421  -20.9864   12.1541 H         1 UNK         0.0792 
    129 H129      -45.9601  -22.5557   12.6989 H         1 UNK         0.0792 
    130 H130      -46.0072  -21.1961   13.8144 H         1 UNK         0.0792 
    131 H131      -48.0695  -23.0409   11.5361 H         1 UNK         0.3086 
    132 H132      -51.5027  -23.9672   11.2215 H         1 UNK         0.0583 
    133 H133      -51.3438  -21.8398    9.9793 H         1 UNK         0.1020 
    134 H134      -49.7021  -22.1677    9.5276 H         1 UNK         0.1020 
    135 H135      -53.3179  -22.8300    9.2271 H         1 UNK         0.0694 
    136 H136      -53.4228  -22.8883    7.4860 H         1 UNK         0.0694 
    137 H137      -49.2603  -24.8536    9.7697 H         1 UNK         0.2989 
    138 H138      -48.0881  -27.3264   12.0861 H         1 UNK         0.1055 
    139 H139      -49.8557  -28.5085   10.9091 H         1 UNK         0.0806 
    140 H140      -48.3821  -28.6935    9.9724 H         1 UNK         0.0806 
    141 H141      -49.6326  -27.5602    9.4491 H         1 UNK         0.0806 
    142 H142      -47.3472  -26.3245    9.4453 H         1 UNK         0.3061 
    143 H143      -44.8497  -24.0865   10.6812 H         1 UNK         0.0734 
    144 H144      -43.3649  -25.4874    9.2698 H         1 UNK         0.0832 
    145 H145      -43.7385  -26.3245   10.7665 H         1 UNK         0.0832 
    146 H146      -44.5446  -26.7996    9.2784 H         1 UNK         0.0832 
    147 H147      -45.5621  -24.8846    8.0347 H         1 UNK         0.3156 
    148 H148      -48.3316  -22.7473    7.5538 H         1 UNK         0.0589 
    149 H149      -45.4883  -22.3850    6.4717 H         1 UNK         0.0808 
    150 H150      -46.9685  -21.7423    5.7573 H         1 UNK         0.0808 
    151 H151      -46.4174  -21.1537    7.3154 H         1 UNK         0.0808 
    152 H152      -47.0361  -24.2200    5.6061 H         1 UNK         0.3098 
    153 H153      -48.4282  -26.0811    4.8155 H         1 UNK         0.0720 
    154 H154      -46.7267  -27.9572    4.8207 H         1 UNK         0.0791 
    155 H155      -46.3435  -27.6097    6.5039 H         1 UNK         0.0791 
    156 H156      -45.9718  -26.4331    5.2487 H         1 UNK         0.0791 
    157 H157      -49.2307  -27.5736    7.1579 H         1 UNK         0.3028 
@<TRIPOS>BOND
     1    1    2 1    
     2    1   82 1    
     3    1   83 1    
     4    1   84 1    
     5    2    3 2    
     6    2    4 am   BACKBONE|DICT|INTERRES
     7    4    5 1    
     8    4   85 1    
     9    5    6 1    
    10    5   80 1    
    11    5   86 1    
    12    6    7 1    
    13    6   87 1    
    14    6   88 1    
    15    7    8 1    
    16    8    9 1    
    17    8   89 1    
    18    8   90 1    
    19    9   10 ar   
    20    9   14 ar   
    21   10   11 ar   
    22   10   91 1    
    23   11   12 ar   
    24   11   58 1    
    25   12   13 ar   
    26   12   92 1    
    27   13   14 ar   
    28   13   15 1    
    29   14   93 1    
    30   15   16 1    
    31   15   94 1    
    32   15   95 1    
    33   16   17 1    
    34   17   18 1    
    35   17   96 1    
    36   17   97 1    
    37   18   19 1    
    38   18   22 1    
    39   18   98 1    
    40   19   20 am   BACKBONE|DICT|INTERRES
    41   19   21 2    
    42   20   99 1    
    43   20  100 1    
    44   22   23 am   BACKBONE|DICT|INTERRES
    45   22  101 1    
    46   23   24 2    
    47   23   25 1    
    48   25   26 1    
    49   25   27 1    
    50   25  102 1    
    51   26  103 1    
    52   26  104 1    
    53   26  105 1    
    54   27   28 am   BACKBONE|DICT|INTERRES
    55   27  106 1    
    56   28   29 2    
    57   28   30 1    
    58   30   31 1    
    59   30   32 1    
    60   30  107 1    
    61   31  108 1    
    62   31  109 1    
    63   31  110 1    
    64   32   33 am   BACKBONE|DICT|INTERRES
    65   32  111 1    
    66   33   34 2    
    67   33   35 1    
    68   35   36 1    
    69   35   37 1    
    70   35  112 1    
    71   36  113 1    
    72   36  114 1    
    73   36  115 1    
    74   37   38 am   BACKBONE|DICT|INTERRES
    75   37  116 1    
    76   38   39 2    
    77   38   40 1    
    78   40   41 1    
    79   40   42 1    
    80   40  117 1    
    81   41  118 1    
    82   41  119 1    
    83   41  120 1    
    84   42   43 am   BACKBONE|DICT|INTERRES
    85   42  121 1    
    86   43   44 2    
    87   43   45 1    
    88   45   46 1    
    89   45   47 1    
    90   45  122 1    
    91   46  123 1    
    92   46  124 1    
    93   46  125 1    
    94   47   48 am   BACKBONE|DICT|INTERRES
    95   47  126 1    
    96   48   49 2    
    97   48   50 1    
    98   50   51 1    
    99   50   52 1    
   100   50  127 1    
   101   51  128 1    
   102   51  129 1    
   103   51  130 1    
   104   52   53 am   BACKBONE|DICT|INTERRES
   105   52  131 1    
   106   53   54 2    
   107   53   55 1    
   108   55   56 1    
   109   55   59 1    
   110   55  132 1    
   111   56   57 1    
   112   56  133 1    
   113   56  134 1    
   114   57   58 1    
   115   58  135 1    
   116   58  136 1    
   117   59   60 am   BACKBONE|DICT|INTERRES
   118   59  137 1    
   119   60   61 2    
   120   60   62 1    
   121   62   63 1    
   122   62   64 1    
   123   62  138 1    
   124   63  139 1    
   125   63  140 1    
   126   63  141 1    
   127   64   65 am   BACKBONE|DICT|INTERRES
   128   64  142 1    
   129   65   66 2    
   130   65   67 1    
   131   67   68 1    
   132   67   69 1    
   133   67  143 1    
   134   68  144 1    
   135   68  145 1    
   136   68  146 1    
   137   69   70 am   BACKBONE|DICT|INTERRES
   138   69  147 1    
   139   70   71 2    
   140   70   72 1    
   141   72   73 1    
   142   72   74 1    
   143   72  148 1    
   144   73  149 1    
   145   73  150 1    
   146   73  151 1    
   147   74   75 am   BACKBONE|DICT|INTERRES
   148   74  152 1    
   149   75   76 2    
   150   75   77 1    
   151   77   78 1    
   152   77   79 1    
   153   77  153 1    
   154   78  154 1    
   155   78  155 1    
   156   78  156 1    
   157   79   80 am   BACKBONE|DICT|INTERRES
   158   79  157 1    
   159   80   81 2    
@<TRIPOS>SUBSTRUCTURE
     1 UNK         1 GROUP             0       ****    0 ROOT    
