@<TRIPOS>MOLECULE
3R207
157   159    1
SMALL
USER_CHARGES


@<TRIPOS>ATOM
      1 CA        -44.4695  -33.6959    6.5880 C.3       0 UNK        -0.1975 
      2 C         -45.3195  -32.4680    6.2961 C.2       0 UNK         0.4852 
      3 O         -45.0569  -31.7614    5.3224 O.2       0 UNK        -0.5216 
      4 N         -46.3370  -32.2121    7.1310 N.am      1 UNK        -0.4461 
      5 CA        -47.2500  -31.0665    7.0222 C.3       1 UNK         0.0864 
      6 C6        -48.4972  -31.2657    7.9255 C.3       14 UNK        -0.0898 
      7 S7        -49.9755  -30.3479    7.3676 S.3       14 UNK        -0.2598 
      8 C8        -50.5685  -29.6726    8.9514 C.3       14 UNK         0.0286 
      9 C9        -51.9466  -29.0258    8.8469 C.ar      14 UNK        -0.0844 
     10 C10       -52.1479  -27.8828    8.0654 C.ar      14 UNK        -0.0881 
     11 C11       -53.3927  -27.2424    8.0359 C.ar      14 UNK        -0.0643 
     12 C12       -54.4487  -27.7705    8.7857 C.ar      14 UNK        -0.0930 
     13 C13       -54.2683  -28.9212    9.5594 C.ar      14 UNK        -0.0827 
     14 C14       -53.0195  -29.5484    9.5748 C.ar      14 UNK        -0.1249 
     15 C15       -55.4151  -29.4855   10.3868 C.3       14 UNK         0.0141 
     16 S16       -55.4346  -28.7985   12.0749 S.3       14 UNK        -0.2313 
     17 C17       -56.1715  -27.1518   11.7753 C.3       14 UNK        -0.0915 
     18 CA        -56.5306  -26.3740   13.0696 C.3       13 UNK         0.0968 
     19 C         -57.7490  -26.9910   13.8199 C.2       13 UNK         0.5732 
     20 N         -57.6178  -27.4490   15.0603 N.am      13 UNK        -0.7310 
     21 O         -58.8449  -27.0398   13.2659 O.2       13 UNK        -0.5035 
     22 N         -55.3398  -26.1569   13.8980 N.am      13 UNK        -0.4233 
     23 C         -55.1946  -25.2047   14.8256 C.2       13 UNK         0.4989 
     24 O         -56.0228  -24.3142   15.0247 O.2       13 UNK        -0.4996 
     25 CA        -53.9061  -25.2696   15.6748 C.3       12 UNK         0.0216 
     26 CB        -54.0626  -24.5624   17.0372 C.3       12 UNK        -0.1964 
     27 N         -53.3677  -26.6280   15.8667 N.am      12 UNK        -0.4276 
     28 C         -54.0016  -27.6853   16.3970 C.2       12 UNK         0.5020 
     29 O         -55.1918  -27.6779   16.7167 O.2       12 UNK        -0.5489 
     30 CA        -53.1838  -28.9786   16.5251 C.3       11 UNK         0.0294 
     31 CB        -53.9239  -30.0780   17.3168 C.3       11 UNK        -0.2019 
     32 N         -52.8431  -29.4568   15.1872 N.am      11 UNK        -0.4493 
     33 C         -51.8471  -30.3027   14.8905 C.2       11 UNK         0.4932 
     34 O         -51.1020  -30.8144   15.7262 O.2       11 UNK        -0.5029 
     35 CA        -51.6372  -30.6080   13.3973 C.3       10 UNK         0.0280 
     36 CB        -52.6938  -31.6007   12.8840 C.3       10 UNK        -0.1976 
     37 N         -51.6695  -29.3718   12.6114 N.am      10 UNK        -0.4242 
     38 C         -50.6423  -28.5130   12.5443 C.2       10 UNK         0.5072 
     39 O         -49.4964  -28.7956   12.9009 O.2       10 UNK        -0.5224 
     40 CA        -50.9355  -27.0978   11.9994 C.3       9 UNK         0.0343 
     41 CB        -52.4268  -26.7133   12.0291 C.3       9 UNK        -0.2003 
     42 N         -50.1605  -26.0674   12.6970 N.am      9 UNK        -0.4272 
     43 C         -50.1286  -25.8267   14.0182 C.2       9 UNK         0.4988 
     44 O         -50.7737  -26.4545   14.8599 O.2       9 UNK        -0.5108 
     45 CA        -49.2604  -24.6440   14.4643 C.3       8 UNK         0.0248 
     46 CB        -47.7628  -24.9758   14.3475 C.3       8 UNK        -0.2001 
     47 N         -49.5819  -23.4634   13.6620 N.am      8 UNK        -0.4140 
     48 C         -50.5630  -22.5984   13.9611 C.2       8 UNK         0.5028 
     49 O         -51.2110  -22.6252   15.0078 O.2       8 UNK        -0.5428 
     50 CA        -50.8978  -21.5379   12.9012 C.3       7 UNK         0.0264 
     51 CB        -49.9568  -20.3289   13.0228 C.3       7 UNK        -0.1988 
     52 N         -50.8230  -22.1010   11.5517 N.am      7 UNK        -0.4454 
     53 C         -51.7913  -22.8553   11.0028 C.2       7 UNK         0.5027 
     54 O         -52.8891  -23.0288   11.5341 O.2       7 UNK        -0.5083 
     55 CA        -51.4748  -23.5745    9.6712 C.3       6 UNK         0.0844 
     56 C56       -52.7289  -23.8497    8.7937 C.3       14 UNK        -0.0967 
     57 S57       -52.3194  -24.7529    7.2565 S.3       14 UNK        -0.2604 
     58 C58       -53.6290  -26.0201    7.1519 C.3       14 UNK         0.0134 
     59 N         -50.3553  -22.9556    8.9538 N.am      6 UNK        -0.4116 
     60 C         -50.3222  -21.7526    8.3642 C.2       5 UNK         0.5034 
     61 O         -51.2939  -21.0002    8.2816 O.2       5 UNK        -0.5045 
     62 CA        -48.9559  -21.3153    7.7875 C.3       5 UNK         0.0224 
     63 CB        -48.7628  -19.7842    7.8356 C.3       5 UNK        -0.1978 
     64 N         -47.8034  -22.0051    8.3978 N.am      5 UNK        -0.4737 
     65 C         -47.4459  -21.9851    9.6919 C.2       4 UNK         0.5027 
     66 O         -48.0497  -21.3511   10.5572 O.2       4 UNK        -0.5211 
     67 CA        -46.2978  -22.9358   10.0852 C.3       4 UNK         0.0297 
     68 CB        -45.9098  -22.8171   11.5746 C.3       4 UNK        -0.1993 
     69 N         -46.6211  -24.3291    9.7408 N.am      4 UNK        -0.4486 
     70 C         -47.6972  -25.0212   10.1451 C.2       3 UNK         0.4961 
     71 O         -48.5406  -24.5898   10.9343 O.2       3 UNK        -0.5105 
     72 CA        -47.9362  -26.3971    9.5100 C.3       3 UNK         0.0299 
     73 CB        -48.9869  -26.2752    8.3976 C.3       3 UNK        -0.1972 
     74 N         -46.7572  -27.0291    8.9281 N.am      3 UNK        -0.4305 
     75 C         -45.7833  -27.6399    9.6085 C.2       2 UNK         0.5006 
     76 O         -45.6426  -27.5664   10.8298 O.2       2 UNK        -0.5106 
     77 CA        -44.8690  -28.5494    8.7633 C.3       2 UNK         0.0296 
     78 CB        -43.6257  -29.0235    9.5384 C.3       2 UNK        -0.2002 
     79 N         -45.6045  -29.7235    8.2755 N.am      2 UNK        -0.4032 
     80 C         -46.5370  -29.7251    7.3074 C.2       1 UNK         0.5000 
     81 O         -46.8325  -28.7245    6.6496 O.2       1 UNK        -0.5238 
     82 H82       -44.8155  -34.2322    7.4714 H         1 UNK         0.0889 
     83 H83       -43.4329  -33.4034    6.7535 H         1 UNK         0.0889 
     84 H84       -44.4992  -34.3820    5.7420 H         1 UNK         0.0889 
     85 H85       -46.5088  -32.8420    7.9023 H         1 UNK         0.3028 
     86 H86       -47.5865  -31.0337    5.9833 H         1 UNK         0.0864 
     87 H87       -48.7868  -32.3179    7.9283 H         1 UNK         0.0720 
     88 H88       -48.2680  -31.0248    8.9657 H         1 UNK         0.0720 
     89 H89       -50.5879  -30.4772    9.6886 H         1 UNK         0.0814 
     90 H90       -49.8513  -28.9411    9.3229 H         1 UNK         0.0814 
     91 H91       -51.3366  -27.4922    7.4698 H         1 UNK         0.1469 
     92 H92       -55.4171  -27.2900    8.7633 H         1 UNK         0.1381 
     93 H93       -52.8796  -30.4377   10.1712 H         1 UNK         0.1206 
     94 H94       -56.3715  -29.2968    9.8969 H         1 UNK         0.0813 
     95 H95       -55.3205  -30.5705   10.4532 H         1 UNK         0.0813 
     96 H96       -55.4619  -26.5636   11.1921 H         1 UNK         0.0638 
     97 H97       -57.0531  -27.2655   11.1420 H         1 UNK         0.0638 
     98 H98       -56.8709  -25.3873   12.7500 H         1 UNK         0.0568 
     99 H99       -56.7254  -27.4241   15.5450 H         1 UNK         0.3450 
    100 H100      -58.4229  -27.8370   15.5241 H         1 UNK         0.3450 
    101 H101      -54.6284  -26.8636   13.8222 H         1 UNK         0.2987 
    102 H102      -53.1504  -24.7240   15.1072 H         1 UNK         0.0766 
    103 H103      -53.1316  -24.5860   17.6036 H         1 UNK         0.0798 
    104 H104      -54.3310  -23.5132   16.9073 H         1 UNK         0.0798 
    105 H105      -54.8395  -25.0268   17.6456 H         1 UNK         0.0798 
    106 H106      -52.3887  -26.7336   15.5922 H         1 UNK         0.3198 
    107 H107      -52.2640  -28.7264   17.0577 H         1 UNK         0.0843 
    108 H108      -54.2183  -29.7170   18.3031 H         1 UNK         0.0831 
    109 H109      -53.2947  -30.9545   17.4707 H         1 UNK         0.0831 
    110 H110      -54.8299  -30.4022   16.8033 H         1 UNK         0.0831 
    111 H111      -53.4208  -29.1067   14.4382 H         1 UNK         0.3133 
    112 H112      -50.6582  -31.0793   13.2849 H         1 UNK         0.0566 
    113 H113      -53.6971  -31.1745   12.8849 H         1 UNK         0.0814 
    114 H114      -52.7216  -32.4942   13.5094 H         1 UNK         0.0814 
    115 H115      -52.4666  -31.9318   11.8713 H         1 UNK         0.0814 
    116 H116      -52.5623  -29.0846   12.2374 H         1 UNK         0.3091 
    117 H117      -50.6094  -27.0864   10.9601 H         1 UNK         0.0702 
    118 H118      -52.5776  -25.6723   11.7510 H         1 UNK         0.0785 
    119 H119      -52.8540  -26.8514   13.0197 H         1 UNK         0.0785 
    120 H120      -53.0006  -27.3044   11.3215 H         1 UNK         0.0785 
    121 H121      -49.5542  -25.5056   12.1031 H         1 UNK         0.2998 
    122 H122      -49.4757  -24.4422   15.5160 H         1 UNK         0.0697 
    123 H123      -47.4699  -25.2181   13.3258 H         1 UNK         0.0825 
    124 H124      -47.5092  -25.8365   14.9676 H         1 UNK         0.0825 
    125 H125      -47.1460  -24.1421   14.6831 H         1 UNK         0.0825 
    126 H126      -49.1275  -23.3897   12.7603 H         1 UNK         0.3029 
    127 H127      -51.9174  -21.1893   13.0817 H         1 UNK         0.0897 
    128 H128      -50.0778  -19.8407   13.9906 H         1 UNK         0.0792 
    129 H129      -48.9088  -20.6174   12.9356 H         1 UNK         0.0792 
    130 H130      -50.1642  -19.5843   12.2540 H         1 UNK         0.0792 
    131 H131      -49.9435  -21.9774   11.0582 H         1 UNK         0.3086 
    132 H132      -51.1064  -24.5477    9.9913 H         1 UNK         0.0583 
    133 H133      -53.4614  -24.4301    9.3583 H         1 UNK         0.1020 
    134 H134      -53.2234  -22.9147    8.5256 H         1 UNK         0.1020 
    135 H135      -54.5895  -25.5534    7.3763 H         1 UNK         0.0694 
    136 H136      -53.6909  -26.3609    6.1178 H         1 UNK         0.0694 
    137 H137      -49.4868  -23.4663    9.0008 H         1 UNK         0.2989 
    138 H138      -48.9717  -21.6120    6.7374 H         1 UNK         0.1055 
    139 H139      -49.5342  -19.2728    7.2584 H         1 UNK         0.0806 
    140 H140      -47.8006  -19.4918    7.4153 H         1 UNK         0.0806 
    141 H141      -48.8143  -19.4009    8.8552 H         1 UNK         0.0806 
    142 H142      -47.2588  -22.5807    7.7690 H         1 UNK         0.3061 
    143 H143      -45.4291  -22.6496    9.4901 H         1 UNK         0.0734 
    144 H144      -45.5792  -21.8046   11.8093 H         1 UNK         0.0832 
    145 H145      -46.7470  -23.0421   12.2348 H         1 UNK         0.0832 
    146 H146      -45.0934  -23.4933   11.8276 H         1 UNK         0.0832 
    147 H147      -46.0025  -24.7790    9.0802 H         1 UNK         0.3156 
    148 H148      -48.3191  -27.0618   10.2866 H         1 UNK         0.0589 
    149 H149      -48.7341  -25.4951    7.6780 H         1 UNK         0.0808 
    150 H150      -49.0868  -27.2066    7.8408 H         1 UNK         0.0808 
    151 H151      -49.9659  -26.0402    8.8079 H         1 UNK         0.0808 
    152 H152      -46.8040  -27.2336    7.9333 H         1 UNK         0.3098 
    153 H153      -44.5259  -27.9696    7.9037 H         1 UNK         0.0720 
    154 H154      -42.9635  -29.6124    8.9034 H         1 UNK         0.0791 
    155 H155      -43.0486  -28.1740    9.9063 H         1 UNK         0.0791 
    156 H156      -43.8933  -29.6341   10.4018 H         1 UNK         0.0791 
    157 H157      -45.4308  -30.5908    8.7619 H         1 UNK         0.3028 
@<TRIPOS>BOND
     1    1    2 1    
     2    1   82 1    
     3    1   83 1    
     4    1   84 1    
     5    2    3 2    
     6    2    4 am   BACKBONE|DICT|INTERRES
     7    4    5 1    
     8    4   85 1    
     9    5    6 1    
    10    5   80 1    
    11    5   86 1    
    12    6    7 1    
    13    6   87 1    
    14    6   88 1    
    15    7    8 1    
    16    8    9 1    
    17    8   89 1    
    18    8   90 1    
    19    9   10 ar   
    20    9   14 ar   
    21   10   11 ar   
    22   10   91 1    
    23   11   12 ar   
    24   11   58 1    
    25   12   13 ar   
    26   12   92 1    
    27   13   14 ar   
    28   13   15 1    
    29   14   93 1    
    30   15   16 1    
    31   15   94 1    
    32   15   95 1    
    33   16   17 1    
    34   17   18 1    
    35   17   96 1    
    36   17   97 1    
    37   18   19 1    
    38   18   22 1    
    39   18   98 1    
    40   19   20 am   BACKBONE|DICT|INTERRES
    41   19   21 2    
    42   20   99 1    
    43   20  100 1    
    44   22   23 am   BACKBONE|DICT|INTERRES
    45   22  101 1    
    46   23   24 2    
    47   23   25 1    
    48   25   26 1    
    49   25   27 1    
    50   25  102 1    
    51   26  103 1    
    52   26  104 1    
    53   26  105 1    
    54   27   28 am   BACKBONE|DICT|INTERRES
    55   27  106 1    
    56   28   29 2    
    57   28   30 1    
    58   30   31 1    
    59   30   32 1    
    60   30  107 1    
    61   31  108 1    
    62   31  109 1    
    63   31  110 1    
    64   32   33 am   BACKBONE|DICT|INTERRES
    65   32  111 1    
    66   33   34 2    
    67   33   35 1    
    68   35   36 1    
    69   35   37 1    
    70   35  112 1    
    71   36  113 1    
    72   36  114 1    
    73   36  115 1    
    74   37   38 am   BACKBONE|DICT|INTERRES
    75   37  116 1    
    76   38   39 2    
    77   38   40 1    
    78   40   41 1    
    79   40   42 1    
    80   40  117 1    
    81   41  118 1    
    82   41  119 1    
    83   41  120 1    
    84   42   43 am   BACKBONE|DICT|INTERRES
    85   42  121 1    
    86   43   44 2    
    87   43   45 1    
    88   45   46 1    
    89   45   47 1    
    90   45  122 1    
    91   46  123 1    
    92   46  124 1    
    93   46  125 1    
    94   47   48 am   BACKBONE|DICT|INTERRES
    95   47  126 1    
    96   48   49 2    
    97   48   50 1    
    98   50   51 1    
    99   50   52 1    
   100   50  127 1    
   101   51  128 1    
   102   51  129 1    
   103   51  130 1    
   104   52   53 am   BACKBONE|DICT|INTERRES
   105   52  131 1    
   106   53   54 2    
   107   53   55 1    
   108   55   56 1    
   109   55   59 1    
   110   55  132 1    
   111   56   57 1    
   112   56  133 1    
   113   56  134 1    
   114   57   58 1    
   115   58  135 1    
   116   58  136 1    
   117   59   60 am   BACKBONE|DICT|INTERRES
   118   59  137 1    
   119   60   61 2    
   120   60   62 1    
   121   62   63 1    
   122   62   64 1    
   123   62  138 1    
   124   63  139 1    
   125   63  140 1    
   126   63  141 1    
   127   64   65 am   BACKBONE|DICT|INTERRES
   128   64  142 1    
   129   65   66 2    
   130   65   67 1    
   131   67   68 1    
   132   67   69 1    
   133   67  143 1    
   134   68  144 1    
   135   68  145 1    
   136   68  146 1    
   137   69   70 am   BACKBONE|DICT|INTERRES
   138   69  147 1    
   139   70   71 2    
   140   70   72 1    
   141   72   73 1    
   142   72   74 1    
   143   72  148 1    
   144   73  149 1    
   145   73  150 1    
   146   73  151 1    
   147   74   75 am   BACKBONE|DICT|INTERRES
   148   74  152 1    
   149   75   76 2    
   150   75   77 1    
   151   77   78 1    
   152   77   79 1    
   153   77  153 1    
   154   78  154 1    
   155   78  155 1    
   156   78  156 1    
   157   79   80 am   BACKBONE|DICT|INTERRES
   158   79  157 1    
   159   80   81 2    
@<TRIPOS>SUBSTRUCTURE
     1 UNK         1 GROUP             0       ****    0 ROOT    
