@<TRIPOS>MOLECULE
3R207
157   159    1
SMALL
USER_CHARGES


@<TRIPOS>ATOM
      1 CA        -47.3175  -31.6110    2.0765 C.3       0 UNK        -0.1975 
      2 C         -47.2294  -30.7616    3.3364 C.2       0 UNK         0.4852 
      3 O         -46.1572  -30.6779    3.9374 O.2       0 UNK        -0.5216 
      4 N         -48.3508  -30.1432    3.7354 N.am      1 UNK        -0.4461 
      5 CA        -48.4905  -29.2362    4.8834 C.3       1 UNK         0.0864 
      6 C6        -48.1143  -29.9186    6.2332 C.3       14 UNK        -0.0898 
      7 S7        -48.9831  -29.2117    7.6705 S.3       14 UNK        -0.2598 
      8 C8        -50.5249  -30.1729    7.6791 C.3       14 UNK         0.0286 
      9 C9        -51.5311  -29.5407    8.6260 C.ar      14 UNK        -0.0844 
     10 C10       -52.1236  -28.3195    8.2880 C.ar      14 UNK        -0.0881 
     11 C11       -53.0265  -27.7046    9.1578 C.ar      14 UNK        -0.0643 
     12 C12       -53.3528  -28.3343   10.3596 C.ar      14 UNK        -0.0930 
     13 C13       -52.7629  -29.5491   10.7157 C.ar      14 UNK        -0.0827 
     14 C14       -51.8527  -30.1528    9.8426 C.ar      14 UNK        -0.1249 
     15 C15       -53.0736  -30.1644   12.0703 C.3       14 UNK         0.0141 
     16 S16       -54.5763  -31.1893   12.0349 S.3       14 UNK        -0.2313 
     17 C17       -55.1068  -31.0622   13.7817 C.3       14 UNK        -0.0915 
     18 CA        -56.4059  -30.2295   13.9684 C.3       13 UNK         0.0968 
     19 C         -56.8041  -30.1360   15.4689 C.2       13 UNK         0.5732 
     20 N         -56.8315  -28.9577   16.0804 N.am      13 UNK        -0.7310 
     21 O         -57.1054  -31.1544   16.0873 O.2       13 UNK        -0.5035 
     22 N         -56.3306  -28.9349   13.2763 N.am      13 UNK        -0.4233 
     23 C         -57.3695  -28.2292   12.8251 C.2       13 UNK         0.4989 
     24 O         -58.5456  -28.5347   13.0321 O.2       13 UNK        -0.4996 
     25 CA        -57.0275  -26.9971   11.9606 C.3       12 UNK         0.0216 
     26 CB        -58.2672  -26.4124   11.2572 C.3       12 UNK        -0.1964 
     27 N         -56.3425  -25.9131   12.6725 N.am      12 UNK        -0.4276 
     28 C         -55.1177  -25.9434   13.2153 C.2       12 UNK         0.5020 
     29 O         -54.4258  -26.9601   13.2908 O.2       12 UNK        -0.5489 
     30 CA        -54.5402  -24.5983   13.6892 C.3       11 UNK         0.0294 
     31 CB        -55.6013  -23.5322   14.0515 C.3       11 UNK        -0.2019 
     32 N         -53.5554  -24.7745   14.7581 N.am      11 UNK        -0.4493 
     33 C         -53.7812  -25.1242   16.0316 C.2       11 UNK         0.4932 
     34 O         -54.8984  -25.3417   16.5054 O.2       11 UNK        -0.5029 
     35 CA        -52.5313  -25.2035   16.9267 C.3       10 UNK         0.0280 
     36 CB        -52.8317  -25.6611   18.3711 C.3       10 UNK        -0.1976 
     37 N         -51.4577  -25.9950   16.3179 N.am      10 UNK        -0.4242 
     38 C         -51.4483  -27.3172   16.0820 C.2       10 UNK         0.5072 
     39 O         -52.3686  -28.0745   16.3937 O.2       10 UNK        -0.5224 
     40 CA        -50.2043  -27.9226   15.3966 C.3       9 UNK         0.0343 
     41 CB        -50.5982  -28.6676   14.1113 C.3       9 UNK        -0.2003 
     42 N         -49.1596  -26.9470   15.0768 N.am      9 UNK        -0.4272 
     43 C         -48.2982  -26.4175   15.9557 C.2       9 UNK         0.4988 
     44 O         -48.2438  -26.7434   17.1417 O.2       9 UNK        -0.5108 
     45 CA        -47.3664  -25.3067   15.4363 C.3       8 UNK         0.0248 
     46 CB        -46.0703  -25.9108   14.8739 C.3       8 UNK        -0.2001 
     47 N         -47.9882  -24.4385   14.4281 N.am      8 UNK        -0.4140 
     48 C         -49.0750  -23.6800   14.6400 C.2       8 UNK         0.5028 
     49 O         -49.6646  -23.6178   15.7194 O.2       8 UNK        -0.5428 
     50 CA        -49.6381  -22.9038   13.4367 C.3       7 UNK         0.0264 
     51 CB        -48.7874  -21.6615   13.1294 C.3       7 UNK        -0.1988 
     52 N         -49.7715  -23.7324   12.2353 N.am      7 UNK        -0.4454 
     53 C         -50.5522  -24.8210   12.1496 C.2       7 UNK         0.5027 
     54 O         -51.2686  -25.2087   13.0728 O.2       7 UNK        -0.5083 
     55 CA        -50.4761  -25.6437   10.8426 C.3       6 UNK         0.0844 
     56 C56       -51.2893  -24.9983    9.6902 C.3       14 UNK        -0.0967 
     57 S57       -53.0961  -25.0434    9.9623 S.3       14 UNK        -0.2604 
     58 C58       -53.6352  -26.3529    8.8138 C.3       14 UNK         0.0134 
     59 N         -49.0857  -25.8907   10.4459 N.am      6 UNK        -0.4116 
     60 C         -48.1687  -26.5266   11.1905 C.2       5 UNK         0.5034 
     61 O         -48.4104  -27.0639   12.2697 O.2       5 UNK        -0.5045 
     62 CA        -46.7160  -26.4920   10.6888 C.3       5 UNK         0.0224 
     63 CB        -46.4457  -27.5802    9.6403 C.3       5 UNK        -0.1978 
     64 N         -46.3517  -25.1806   10.1507 N.am      5 UNK        -0.4737 
     65 C         -46.1974  -24.0789   10.8975 C.2       4 UNK         0.5027 
     66 O         -46.2957  -24.0653   12.1235 O.2       4 UNK        -0.5211 
     67 CA        -45.9281  -22.7659   10.1446 C.3       4 UNK         0.0297 
     68 CB        -44.4297  -22.6164    9.8382 C.3       4 UNK        -0.1993 
     69 N         -46.6992  -22.6615    8.9029 N.am      4 UNK        -0.4486 
     70 C         -48.0356  -22.5681    8.8493 C.2       3 UNK         0.4961 
     71 O         -48.7596  -22.5176    9.8427 O.2       3 UNK        -0.5105 
     72 CA        -48.6746  -22.5868    7.4504 C.3       3 UNK         0.0299 
     73 CB        -48.6793  -21.1772    6.8385 C.3       3 UNK        -0.1972 
     74 N         -48.0246  -23.5269    6.5295 N.am      3 UNK        -0.4305 
     75 C         -47.9767  -24.8530    6.7133 C.2       2 UNK         0.5006 
     76 O         -48.4601  -25.4281    7.6918 O.2       2 UNK        -0.5106 
     77 CA        -47.2268  -25.6679    5.6560 C.3       2 UNK         0.0296 
     78 CB        -45.7140  -25.6759    5.9407 C.3       2 UNK        -0.2002 
     79 N         -47.7399  -27.0338    5.6781 N.am      2 UNK        -0.4032 
     80 C         -47.7956  -27.8715    4.6381 C.2       1 UNK         0.5000 
     81 O         -47.3716  -27.5794    3.5153 O.2       1 UNK        -0.5238 
     82 H82       -48.3208  -31.6085    1.6508 H         1 UNK         0.0889 
     83 H83       -47.0470  -32.6426    2.2998 H         1 UNK         0.0889 
     84 H84       -46.6284  -31.2334    1.3215 H         1 UNK         0.0889 
     85 H85       -49.1822  -30.2390    3.1688 H         1 UNK         0.3028 
     86 H86       -49.5569  -29.0076    4.9135 H         1 UNK         0.0864 
     87 H87       -48.3508  -30.9834    6.1983 H         1 UNK         0.0720 
     88 H88       -47.0387  -29.8640    6.4116 H         1 UNK         0.0720 
     89 H89       -50.9475  -30.2087    6.6740 H         1 UNK         0.0814 
     90 H90       -50.3093  -31.2034    7.9658 H         1 UNK         0.0814 
     91 H91       -51.8596  -27.8381    7.3562 H         1 UNK         0.1469 
     92 H92       -54.0456  -27.8564   11.0334 H         1 UNK         0.1381 
     93 H93       -51.3847  -31.0882   10.1175 H         1 UNK         0.1206 
     94 H94       -53.1946  -29.3604   12.7975 H         1 UNK         0.0813 
     95 H95       -52.2352  -30.7702   12.4170 H         1 UNK         0.0813 
     96 H96       -54.2972  -30.6444   14.3832 H         1 UNK         0.0638 
     97 H97       -55.2577  -32.0777   14.1521 H         1 UNK         0.0638 
     98 H98       -57.2098  -30.7934   13.4914 H         1 UNK         0.0568 
     99 H99       -57.0940  -28.9105   17.0518 H         1 UNK         0.3450 
    100 H100      -56.5677  -28.1207   15.5855 H         1 UNK         0.3450 
    101 H101      -55.4059  -28.5243   13.1700 H         1 UNK         0.2987 
    102 H102      -56.3530  -27.3482   11.1775 H         1 UNK         0.0766 
    103 H103      -57.9933  -25.6184   10.5621 H         1 UNK         0.0798 
    104 H104      -58.9823  -26.0031   11.9720 H         1 UNK         0.0798 
    105 H105      -58.7866  -27.1777   10.6784 H         1 UNK         0.0798 
    106 H106      -56.8318  -25.0304   12.6941 H         1 UNK         0.3198 
    107 H107      -53.9719  -24.2123   12.8418 H         1 UNK         0.0843 
    108 H108      -55.1332  -22.6357   14.4583 H         1 UNK         0.0831 
    109 H109      -56.3143  -23.8972   14.7919 H         1 UNK         0.0831 
    110 H110      -56.1666  -23.2180   13.1736 H         1 UNK         0.0831 
    111 H111      -52.5928  -24.7756   14.4293 H         1 UNK         0.3133 
    112 H112      -52.1449  -24.1853   16.9901 H         1 UNK         0.0566 
    113 H113      -51.9247  -25.6911   18.9748 H         1 UNK         0.0814 
    114 H114      -53.5233  -24.9733   18.8588 H         1 UNK         0.0814 
    115 H115      -53.2890  -26.6504   18.4006 H         1 UNK         0.0814 
    116 H116      -50.6592  -25.4529   16.0052 H         1 UNK         0.3091 
    117 H117      -49.7846  -28.6537   16.0904 H         1 UNK         0.0702 
    118 H118      -49.7321  -29.1224   13.6304 H         1 UNK         0.0785 
    119 H119      -51.0718  -28.0003   13.3894 H         1 UNK         0.0785 
    120 H120      -51.3019  -29.4699   14.3328 H         1 UNK         0.0785 
    121 H121      -49.0871  -26.6736   14.1009 H         1 UNK         0.2998 
    122 H122      -47.1043  -24.6761   16.2883 H         1 UNK         0.0697 
    123 H123      -46.2644  -26.5415   14.0063 H         1 UNK         0.0825 
    124 H124      -45.5704  -26.5284   15.6213 H         1 UNK         0.0825 
    125 H125      -45.3675  -25.1337   14.5728 H         1 UNK         0.0825 
    126 H126      -47.5322  -24.3978   13.5187 H         1 UNK         0.3029 
    127 H127      -50.6401  -22.5644   13.7081 H         1 UNK         0.0897 
    128 H128      -49.2282  -21.0687   12.3275 H         1 UNK         0.0792 
    129 H129      -48.7097  -21.0160   14.0053 H         1 UNK         0.0792 
    130 H130      -47.7740  -21.9263   12.8287 H         1 UNK         0.0792 
    131 H131      -49.2501  -23.4348   11.4131 H         1 UNK         0.3086 
    132 H132      -50.9104  -26.6238   11.0517 H         1 UNK         0.0583 
    133 H133      -50.9904  -23.9605    9.5371 H         1 UNK         0.1020 
    134 H134      -51.0663  -25.5064    8.7507 H         1 UNK         0.1020 
    135 H135      -54.7225  -26.4311    8.8555 H         1 UNK         0.0694 
    136 H136      -53.3863  -26.0587    7.7929 H         1 UNK         0.0694 
    137 H137      -48.8034  -25.5375    9.5355 H         1 UNK         0.2989 
    138 H138      -46.0739  -26.6942   11.5490 H         1 UNK         0.1055 
    139 H139      -46.7700  -28.5587    9.9977 H         1 UNK         0.0806 
    140 H140      -45.3823  -27.6544    9.4129 H         1 UNK         0.0806 
    141 H141      -46.9711  -27.3819    8.7080 H         1 UNK         0.0806 
    142 H142      -46.2996  -25.0946    9.1469 H         1 UNK         0.3061 
    143 H143      -46.2271  -21.9425   10.7968 H         1 UNK         0.0734 
    144 H144      -44.2129  -21.6532    9.3760 H         1 UNK         0.0832 
    145 H145      -43.8388  -22.6741   10.7536 H         1 UNK         0.0832 
    146 H146      -44.0706  -23.3998    9.1695 H         1 UNK         0.0832 
    147 H147      -46.1837  -22.6891    8.0355 H         1 UNK         0.3156 
    148 H148      -49.7120  -22.9068    7.5686 H         1 UNK         0.0589 
    149 H149      -47.6688  -20.8067    6.6614 H         1 UNK         0.0808 
    150 H150      -49.2158  -21.1580    5.8897 H         1 UNK         0.0808 
    151 H151      -49.1748  -20.4667    7.5020 H         1 UNK         0.0808 
    152 H152      -47.5991  -23.1329    5.7021 H         1 UNK         0.3098 
    153 H153      -47.4169  -25.2213    4.6776 H         1 UNK         0.0720 
    154 H154      -45.1737  -26.2419    5.1815 H         1 UNK         0.0791 
    155 H155      -45.4876  -26.1218    6.9100 H         1 UNK         0.0791 
    156 H156      -45.3052  -24.6648    5.9394 H         1 UNK         0.0791 
    157 H157      -48.1631  -27.3108    6.5583 H         1 UNK         0.3028 
@<TRIPOS>BOND
     1    1    2 1    
     2    1   82 1    
     3    1   83 1    
     4    1   84 1    
     5    2    3 2    
     6    2    4 am   BACKBONE|DICT|INTERRES
     7    4    5 1    
     8    4   85 1    
     9    5    6 1    
    10    5   80 1    
    11    5   86 1    
    12    6    7 1    
    13    6   87 1    
    14    6   88 1    
    15    7    8 1    
    16    8    9 1    
    17    8   89 1    
    18    8   90 1    
    19    9   10 ar   
    20    9   14 ar   
    21   10   11 ar   
    22   10   91 1    
    23   11   12 ar   
    24   11   58 1    
    25   12   13 ar   
    26   12   92 1    
    27   13   14 ar   
    28   13   15 1    
    29   14   93 1    
    30   15   16 1    
    31   15   94 1    
    32   15   95 1    
    33   16   17 1    
    34   17   18 1    
    35   17   96 1    
    36   17   97 1    
    37   18   19 1    
    38   18   22 1    
    39   18   98 1    
    40   19   20 am   BACKBONE|DICT|INTERRES
    41   19   21 2    
    42   20   99 1    
    43   20  100 1    
    44   22   23 am   BACKBONE|DICT|INTERRES
    45   22  101 1    
    46   23   24 2    
    47   23   25 1    
    48   25   26 1    
    49   25   27 1    
    50   25  102 1    
    51   26  103 1    
    52   26  104 1    
    53   26  105 1    
    54   27   28 am   BACKBONE|DICT|INTERRES
    55   27  106 1    
    56   28   29 2    
    57   28   30 1    
    58   30   31 1    
    59   30   32 1    
    60   30  107 1    
    61   31  108 1    
    62   31  109 1    
    63   31  110 1    
    64   32   33 am   BACKBONE|DICT|INTERRES
    65   32  111 1    
    66   33   34 2    
    67   33   35 1    
    68   35   36 1    
    69   35   37 1    
    70   35  112 1    
    71   36  113 1    
    72   36  114 1    
    73   36  115 1    
    74   37   38 am   BACKBONE|DICT|INTERRES
    75   37  116 1    
    76   38   39 2    
    77   38   40 1    
    78   40   41 1    
    79   40   42 1    
    80   40  117 1    
    81   41  118 1    
    82   41  119 1    
    83   41  120 1    
    84   42   43 am   BACKBONE|DICT|INTERRES
    85   42  121 1    
    86   43   44 2    
    87   43   45 1    
    88   45   46 1    
    89   45   47 1    
    90   45  122 1    
    91   46  123 1    
    92   46  124 1    
    93   46  125 1    
    94   47   48 am   BACKBONE|DICT|INTERRES
    95   47  126 1    
    96   48   49 2    
    97   48   50 1    
    98   50   51 1    
    99   50   52 1    
   100   50  127 1    
   101   51  128 1    
   102   51  129 1    
   103   51  130 1    
   104   52   53 am   BACKBONE|DICT|INTERRES
   105   52  131 1    
   106   53   54 2    
   107   53   55 1    
   108   55   56 1    
   109   55   59 1    
   110   55  132 1    
   111   56   57 1    
   112   56  133 1    
   113   56  134 1    
   114   57   58 1    
   115   58  135 1    
   116   58  136 1    
   117   59   60 am   BACKBONE|DICT|INTERRES
   118   59  137 1    
   119   60   61 2    
   120   60   62 1    
   121   62   63 1    
   122   62   64 1    
   123   62  138 1    
   124   63  139 1    
   125   63  140 1    
   126   63  141 1    
   127   64   65 am   BACKBONE|DICT|INTERRES
   128   64  142 1    
   129   65   66 2    
   130   65   67 1    
   131   67   68 1    
   132   67   69 1    
   133   67  143 1    
   134   68  144 1    
   135   68  145 1    
   136   68  146 1    
   137   69   70 am   BACKBONE|DICT|INTERRES
   138   69  147 1    
   139   70   71 2    
   140   70   72 1    
   141   72   73 1    
   142   72   74 1    
   143   72  148 1    
   144   73  149 1    
   145   73  150 1    
   146   73  151 1    
   147   74   75 am   BACKBONE|DICT|INTERRES
   148   74  152 1    
   149   75   76 2    
   150   75   77 1    
   151   77   78 1    
   152   77   79 1    
   153   77  153 1    
   154   78  154 1    
   155   78  155 1    
   156   78  156 1    
   157   79   80 am   BACKBONE|DICT|INTERRES
   158   79  157 1    
   159   80   81 2    
@<TRIPOS>SUBSTRUCTURE
     1 UNK         1 GROUP             0       ****    0 ROOT    
