@<TRIPOS>MOLECULE
3R207
157   159    1
SMALL
USER_CHARGES


@<TRIPOS>ATOM
      1 CA        -49.1667  -30.5429    2.2327 C.3       0 UNK        -0.1975 
      2 C         -48.8031  -29.1154    2.6148 C.2       0 UNK         0.4852 
      3 O         -47.7034  -28.6589    2.2978 O.2       0 UNK        -0.5216 
      4 N         -49.7230  -28.4067    3.2828 N.am      1 UNK        -0.4461 
      5 CA        -49.5216  -27.0504    3.8048 C.3       1 UNK         0.0864 
      6 C6        -50.8817  -26.3076    3.9888 C.3       14 UNK        -0.0898 
      7 S7        -51.6793  -26.4014    5.6307 S.3       14 UNK        -0.2598 
      8 C8        -52.4979  -28.0234    5.5620 C.3       14 UNK         0.0286 
      9 C9        -52.6283  -28.6224    6.9533 C.ar      14 UNK        -0.0844 
     10 C10       -51.4918  -29.1009    7.6102 C.ar      14 UNK        -0.0881 
     11 C11       -51.5812  -29.6534    8.8927 C.ar      14 UNK        -0.0643 
     12 C12       -52.8383  -29.7545    9.5012 C.ar      14 UNK        -0.0930 
     13 C13       -53.9883  -29.2941    8.8474 C.ar      14 UNK        -0.0827 
     14 C14       -53.8738  -28.7180    7.5782 C.ar      14 UNK        -0.1249 
     15 C15       -55.3644  -29.4486    9.4832 C.3       14 UNK         0.0141 
     16 S16       -55.8242  -28.0006   10.4862 S.3       14 UNK        -0.2313 
     17 C17       -55.0446  -28.4115   12.0817 C.3       14 UNK        -0.0915 
     18 CA        -56.0385  -28.4698   13.2782 C.3       13 UNK         0.0968 
     19 C         -56.9026  -29.7700   13.3368 C.2       13 UNK         0.5732 
     20 N         -57.3899  -30.1741   14.5043 N.am      13 UNK        -0.7310 
     21 O         -57.1593  -30.4146   12.3231 O.2       13 UNK        -0.5035 
     22 N         -55.3786  -28.1243   14.5511 N.am      13 UNK        -0.4233 
     23 C         -54.4219  -28.8409   15.1615 C.2       13 UNK         0.4989 
     24 O         -53.9608  -29.8885   14.7073 O.2       13 UNK        -0.4996 
     25 CA        -53.8832  -28.2860   16.4944 C.3       12 UNK         0.0216 
     26 CB        -52.5602  -28.9465   16.9249 C.3       12 UNK        -0.1964 
     27 N         -53.6831  -26.8401   16.4044 N.am      12 UNK        -0.4276 
     28 C         -54.5149  -25.9106   16.8913 C.2       12 UNK         0.5020 
     29 O         -55.5232  -26.1654   17.5506 O.2       12 UNK        -0.5489 
     30 CA        -54.1962  -24.4516   16.5296 C.3       11 UNK         0.0294 
     31 CB        -53.1846  -23.8553   17.5197 C.3       11 UNK        -0.2019 
     32 N         -53.6771  -24.3312   15.1659 N.am      11 UNK        -0.4493 
     33 C         -54.3959  -24.5380   14.0530 C.2       11 UNK         0.4932 
     34 O         -55.6029  -24.7846   14.0665 O.2       11 UNK        -0.5029 
     35 CA        -53.6442  -24.5133   12.7063 C.3       10 UNK         0.0280 
     36 CB        -54.5145  -23.9708   11.5531 C.3       10 UNK        -0.1976 
     37 N         -52.3392  -23.8432   12.7527 N.am      10 UNK        -0.4242 
     38 C         -52.0901  -22.5479   12.9973 C.2       10 UNK         0.5072 
     39 O         -52.9564  -21.6997   13.2157 O.2       10 UNK        -0.5224 
     40 CA        -50.6029  -22.1585   12.9926 C.3       9 UNK         0.0343 
     41 CB        -50.3307  -20.7218   13.4878 C.3       9 UNK        -0.2003 
     42 N         -49.7770  -23.1488   13.6976 N.am      9 UNK        -0.4272 
     43 C         -49.7572  -23.4127   15.0115 C.2       9 UNK         0.4988 
     44 O         -50.4268  -22.8060   15.8480 O.2       9 UNK        -0.5108 
     45 CA        -48.8493  -24.5834   15.4434 C.3       8 UNK         0.0248 
     46 CB        -48.9397  -24.8879   16.9542 C.3       8 UNK        -0.2001 
     47 N         -49.0810  -25.8062   14.6618 N.am      8 UNK        -0.4140 
     48 C         -50.2466  -26.4540   14.5117 C.2       8 UNK         0.5028 
     49 O         -51.3050  -26.0887   15.0274 O.2       8 UNK        -0.5428 
     50 CA        -50.2523  -27.7183   13.6398 C.3       7 UNK         0.0264 
     51 CB        -51.4800  -27.7663   12.7179 C.3       7 UNK        -0.1988 
     52 N         -49.0444  -27.8741   12.8256 N.am      7 UNK        -0.4454 
     53 C         -48.3475  -29.0168   12.7416 C.2       7 UNK         0.5027 
     54 O         -48.5817  -30.0108   13.4317 O.2       7 UNK        -0.5083 
     55 CA        -47.2077  -29.0973   11.7061 C.3       6 UNK         0.0844 
     56 C56       -47.6292  -29.8954   10.4457 C.3       14 UNK        -0.0967 
     57 S57       -48.8950  -29.0719    9.4250 S.3       14 UNK        -0.2604 
     58 C58       -50.3353  -30.1774    9.6067 C.3       14 UNK         0.0134 
     59 N         -46.5933  -27.8017   11.3866 N.am      6 UNK        -0.4116 
     60 C         -45.7429  -27.1708   12.2111 C.2       5 UNK         0.5034 
     61 O         -45.5114  -27.5340   13.3646 O.2       5 UNK        -0.5045 
     62 CA        -45.0071  -25.9445   11.6588 C.3       5 UNK         0.0224 
     63 CB        -44.0076  -26.3505   10.5615 C.3       5 UNK        -0.1978 
     64 N         -45.9451  -24.9630   11.1245 N.am      5 UNK        -0.4737 
     65 C         -46.3931  -23.8962   11.7986 C.2       4 UNK         0.5027 
     66 O         -46.0645  -23.6226   12.9524 O.2       4 UNK        -0.5211 
     67 CA        -47.3876  -22.9769   11.0669 C.3       4 UNK         0.0297 
     68 CB        -46.6318  -21.8826   10.2974 C.3       4 UNK        -0.1993 
     69 N         -48.2756  -23.6879   10.1431 N.am      4 UNK        -0.4486 
     70 C         -49.1061  -24.6908   10.4630 C.2       3 UNK         0.4961 
     71 O         -49.3230  -25.0597   11.6177 O.2       3 UNK        -0.5105 
     72 CA        -49.7801  -25.4350    9.2982 C.3       3 UNK         0.0299 
     73 CB        -51.1939  -24.8808    9.0689 C.3       3 UNK        -0.1972 
     74 N         -49.0163  -25.4209    8.0385 N.am      3 UNK        -0.4305 
     75 C         -47.7470  -25.8398    7.8884 C.2       2 UNK         0.5006 
     76 O         -47.0656  -26.2888    8.8143 O.2       2 UNK        -0.5106 
     77 CA        -47.1081  -25.6531    6.4963 C.3       2 UNK         0.0296 
     78 CB        -45.7960  -26.4520    6.3319 C.3       2 UNK        -0.2002 
     79 N         -48.0242  -25.9026    5.3742 N.am      2 UNK        -0.4032 
     80 C         -48.6137  -27.0665    5.0598 C.2       1 UNK         0.5000 
     81 O         -48.4792  -28.1068    5.7103 O.2       1 UNK        -0.5238 
     82 H82       -48.4648  -31.2420    2.6867 H         1 UNK         0.0889 
     83 H83       -49.1194  -30.6658    1.1510 H         1 UNK         0.0889 
     84 H84       -50.1711  -30.8105    2.5607 H         1 UNK         0.0889 
     85 H85       -50.5927  -28.8490    3.5369 H         1 UNK         0.3028 
     86 H86       -48.9708  -26.5055    3.0342 H         1 UNK         0.0864 
     87 H87       -51.5991  -26.6154    3.2260 H         1 UNK         0.0720 
     88 H88       -50.7193  -25.2451    3.8007 H         1 UNK         0.0720 
     89 H89       -51.9250  -28.7113    4.9417 H         1 UNK         0.0814 
     90 H90       -53.4733  -27.9148    5.0854 H         1 UNK         0.0814 
     91 H91       -50.5295  -29.0290    7.1215 H         1 UNK         0.1469 
     92 H92       -52.9234  -30.2044   10.4802 H         1 UNK         0.1381 
     93 H93       -54.7586  -28.3571    7.0716 H         1 UNK         0.1206 
     94 H94       -55.4094  -30.3558   10.0877 H         1 UNK         0.0813 
     95 H95       -56.1152  -29.5776    8.7022 H         1 UNK         0.0813 
     96 H96       -54.4658  -29.3327   12.0144 H         1 UNK         0.0638 
     97 H97       -54.3231  -27.6168   12.2475 H         1 UNK         0.0638 
     98 H98       -56.7635  -27.6690   13.1302 H         1 UNK         0.0568 
     99 H99       -57.9521  -31.0096   14.5383 H         1 UNK         0.3450 
    100 H100      -57.2036  -29.6556   15.3472 H         1 UNK         0.3450 
    101 H101      -55.7026  -27.2759   14.9938 H         1 UNK         0.2987 
    102 H102      -54.6299  -28.5171   17.2567 H         1 UNK         0.0766 
    103 H103      -51.7750  -28.7943   16.1856 H         1 UNK         0.0798 
    104 H104      -52.6820  -30.0224   17.0574 H         1 UNK         0.0798 
    105 H105      -52.2074  -28.5427   17.8740 H         1 UNK         0.0798 
    106 H106      -52.8727  -26.5282   15.8669 H         1 UNK         0.3198 
    107 H107      -55.1229  -23.8774   16.5946 H         1 UNK         0.0843 
    108 H108      -52.9878  -22.8054   17.3015 H         1 UNK         0.0831 
    109 H109      -52.2318  -24.3849   17.4902 H         1 UNK         0.0831 
    110 H110      -53.5591  -23.9110   18.5427 H         1 UNK         0.0831 
    111 H111      -52.6770  -24.2044   15.0720 H         1 UNK         0.3133 
    112 H112      -53.4216  -25.5530   12.4760 H         1 UNK         0.0566 
    113 H113      -55.4057  -24.5847   11.4153 H         1 UNK         0.0814 
    114 H114      -54.8498  -22.9510   11.7441 H         1 UNK         0.0814 
    115 H115      -53.9746  -23.9756   10.6068 H         1 UNK         0.0814 
    116 H116      -51.5378  -24.4460   12.6200 H         1 UNK         0.3091 
    117 H117      -50.3013  -22.1960   11.9455 H         1 UNK         0.0702 
    118 H118      -49.2665  -20.4881   13.4610 H         1 UNK         0.0785 
    119 H119      -50.6845  -20.5663   14.5073 H         1 UNK         0.0785 
    120 H120      -50.8390  -19.9917   12.8568 H         1 UNK         0.0785 
    121 H121      -49.2664  -23.7860   13.0929 H         1 UNK         0.2998 
    122 H122      -47.8263  -24.2690   15.2309 H         1 UNK         0.0697 
    123 H123      -48.2393  -25.6716   17.2425 H         1 UNK         0.0825 
    124 H124      -48.6989  -24.0047   17.5471 H         1 UNK         0.0825 
    125 H125      -49.9398  -25.2114   17.2435 H         1 UNK         0.0825 
    126 H126      -48.2723  -26.1878   14.1921 H         1 UNK         0.3029 
    127 H127      -50.3381  -28.5452   14.3465 H         1 UNK         0.0897 
    128 H128      -51.5451  -28.7186   12.1935 H         1 UNK         0.0792 
    129 H129      -52.3933  -27.6616   13.2999 H         1 UNK         0.0792 
    130 H130      -51.4599  -26.9721   11.9711 H         1 UNK         0.0792 
    131 H131      -48.8123  -27.0984   12.2152 H         1 UNK         0.3086 
    132 H132      -46.4286  -29.6965   12.1836 H         1 UNK         0.0583 
    133 H133      -46.7546  -30.0604    9.8146 H         1 UNK         0.1020 
    134 H134      -47.9732  -30.8934   10.7247 H         1 UNK         0.1020 
    135 H135      -50.0854  -31.1584    9.2009 H         1 UNK         0.0694 
    136 H136      -50.5354  -30.3173   10.6698 H         1 UNK         0.0694 
    137 H137      -46.7637  -27.4289   10.4566 H         1 UNK         0.2989 
    138 H138      -44.4353  -25.5044   12.4795 H         1 UNK         0.1055 
    139 H139      -44.5033  -26.7872    9.6937 H         1 UNK         0.0806 
    140 H140      -43.2956  -27.0875   10.9356 H         1 UNK         0.0806 
    141 H141      -43.4318  -25.4915   10.2169 H         1 UNK         0.0806 
    142 H142      -46.3278  -25.1636   10.2048 H         1 UNK         0.3061 
    143 H143      -47.9961  -22.4839   11.8224 H         1 UNK         0.0734 
    144 H144      -47.3187  -21.1666    9.8458 H         1 UNK         0.0832 
    145 H145      -45.9752  -21.3210   10.9637 H         1 UNK         0.0832 
    146 H146      -46.0096  -22.3004    9.5047 H         1 UNK         0.0832 
    147 H147      -48.1850  -23.4542    9.1654 H         1 UNK         0.3156 
    148 H148      -49.8847  -26.4730    9.6098 H         1 UNK         0.0589 
    149 H149      -51.1762  -23.8724    8.6543 H         1 UNK         0.0808 
    150 H150      -51.7630  -25.5181    8.3932 H         1 UNK         0.0808 
    151 H151      -51.7537  -24.8422   10.0038 H         1 UNK         0.0808 
    152 H152      -49.5086  -25.0910    7.2209 H         1 UNK         0.3098 
    153 H153      -46.8466  -24.5957    6.4361 H         1 UNK         0.0720 
    154 H154      -45.0561  -26.1468    7.0730 H         1 UNK         0.0791 
    155 H155      -45.9564  -27.5232    6.4587 H         1 UNK         0.0791 
    156 H156      -45.3527  -26.2922    5.3491 H         1 UNK         0.0791 
    157 H157      -48.2119  -25.1029    4.7847 H         1 UNK         0.3028 
@<TRIPOS>BOND
     1    1    2 1    
     2    1   82 1    
     3    1   83 1    
     4    1   84 1    
     5    2    3 2    
     6    2    4 am   BACKBONE|DICT|INTERRES
     7    4    5 1    
     8    4   85 1    
     9    5    6 1    
    10    5   80 1    
    11    5   86 1    
    12    6    7 1    
    13    6   87 1    
    14    6   88 1    
    15    7    8 1    
    16    8    9 1    
    17    8   89 1    
    18    8   90 1    
    19    9   10 ar   
    20    9   14 ar   
    21   10   11 ar   
    22   10   91 1    
    23   11   12 ar   
    24   11   58 1    
    25   12   13 ar   
    26   12   92 1    
    27   13   14 ar   
    28   13   15 1    
    29   14   93 1    
    30   15   16 1    
    31   15   94 1    
    32   15   95 1    
    33   16   17 1    
    34   17   18 1    
    35   17   96 1    
    36   17   97 1    
    37   18   19 1    
    38   18   22 1    
    39   18   98 1    
    40   19   20 am   BACKBONE|DICT|INTERRES
    41   19   21 2    
    42   20   99 1    
    43   20  100 1    
    44   22   23 am   BACKBONE|DICT|INTERRES
    45   22  101 1    
    46   23   24 2    
    47   23   25 1    
    48   25   26 1    
    49   25   27 1    
    50   25  102 1    
    51   26  103 1    
    52   26  104 1    
    53   26  105 1    
    54   27   28 am   BACKBONE|DICT|INTERRES
    55   27  106 1    
    56   28   29 2    
    57   28   30 1    
    58   30   31 1    
    59   30   32 1    
    60   30  107 1    
    61   31  108 1    
    62   31  109 1    
    63   31  110 1    
    64   32   33 am   BACKBONE|DICT|INTERRES
    65   32  111 1    
    66   33   34 2    
    67   33   35 1    
    68   35   36 1    
    69   35   37 1    
    70   35  112 1    
    71   36  113 1    
    72   36  114 1    
    73   36  115 1    
    74   37   38 am   BACKBONE|DICT|INTERRES
    75   37  116 1    
    76   38   39 2    
    77   38   40 1    
    78   40   41 1    
    79   40   42 1    
    80   40  117 1    
    81   41  118 1    
    82   41  119 1    
    83   41  120 1    
    84   42   43 am   BACKBONE|DICT|INTERRES
    85   42  121 1    
    86   43   44 2    
    87   43   45 1    
    88   45   46 1    
    89   45   47 1    
    90   45  122 1    
    91   46  123 1    
    92   46  124 1    
    93   46  125 1    
    94   47   48 am   BACKBONE|DICT|INTERRES
    95   47  126 1    
    96   48   49 2    
    97   48   50 1    
    98   50   51 1    
    99   50   52 1    
   100   50  127 1    
   101   51  128 1    
   102   51  129 1    
   103   51  130 1    
   104   52   53 am   BACKBONE|DICT|INTERRES
   105   52  131 1    
   106   53   54 2    
   107   53   55 1    
   108   55   56 1    
   109   55   59 1    
   110   55  132 1    
   111   56   57 1    
   112   56  133 1    
   113   56  134 1    
   114   57   58 1    
   115   58  135 1    
   116   58  136 1    
   117   59   60 am   BACKBONE|DICT|INTERRES
   118   59  137 1    
   119   60   61 2    
   120   60   62 1    
   121   62   63 1    
   122   62   64 1    
   123   62  138 1    
   124   63  139 1    
   125   63  140 1    
   126   63  141 1    
   127   64   65 am   BACKBONE|DICT|INTERRES
   128   64  142 1    
   129   65   66 2    
   130   65   67 1    
   131   67   68 1    
   132   67   69 1    
   133   67  143 1    
   134   68  144 1    
   135   68  145 1    
   136   68  146 1    
   137   69   70 am   BACKBONE|DICT|INTERRES
   138   69  147 1    
   139   70   71 2    
   140   70   72 1    
   141   72   73 1    
   142   72   74 1    
   143   72  148 1    
   144   73  149 1    
   145   73  150 1    
   146   73  151 1    
   147   74   75 am   BACKBONE|DICT|INTERRES
   148   74  152 1    
   149   75   76 2    
   150   75   77 1    
   151   77   78 1    
   152   77   79 1    
   153   77  153 1    
   154   78  154 1    
   155   78  155 1    
   156   78  156 1    
   157   79   80 am   BACKBONE|DICT|INTERRES
   158   79  157 1    
   159   80   81 2    
@<TRIPOS>SUBSTRUCTURE
     1 UNK         1 GROUP             0       ****    0 ROOT    
