@<TRIPOS>MOLECULE
3R207
157   159    1
SMALL
USER_CHARGES


@<TRIPOS>ATOM
      1 CA        -47.3381  -31.1905    2.9287 C.3       0 UNK        -0.1975 
      2 C         -47.2561  -29.6755    3.0458 C.2       0 UNK         0.4852 
      3 O         -46.6971  -29.0229    2.1626 O.2       0 UNK        -0.5216 
      4 N         -47.8163  -29.1124    4.1236 N.am      1 UNK        -0.4461 
      5 CA        -47.7842  -27.6781    4.4280 C.3       1 UNK         0.0864 
      6 C6        -48.8272  -27.2911    5.5068 C.3       14 UNK        -0.0898 
      7 S7        -50.5395  -27.6160    4.9734 S.3       14 UNK        -0.2598 
      8 C8        -51.1085  -28.8440    6.2036 C.3       14 UNK         0.0286 
      9 C9        -51.9528  -28.3072    7.3653 C.ar      14 UNK        -0.0844 
     10 C10       -52.4147  -26.9835    7.4433 C.ar      14 UNK        -0.0881 
     11 C11       -53.2772  -26.5828    8.4720 C.ar      14 UNK        -0.0643 
     12 C12       -53.6643  -27.5129    9.4402 C.ar      14 UNK        -0.0930 
     13 C13       -53.2037  -28.8295    9.3850 C.ar      14 UNK        -0.0827 
     14 C14       -52.3448  -29.2159    8.3538 C.ar      14 UNK        -0.1249 
     15 C15       -53.6665  -29.8390   10.4225 C.3       14 UNK         0.0141 
     16 S16       -55.2933  -30.5259    9.9891 S.3       14 UNK        -0.2313 
     17 C17       -55.7387  -31.3707   11.5442 C.3       14 UNK        -0.0915 
     18 CA        -56.7807  -30.5749   12.3761 C.3       13 UNK         0.0968 
     19 C         -57.2987  -31.4118   13.5821 C.2       13 UNK         0.5732 
     20 N         -57.1374  -30.9696   14.8239 N.am      13 UNK        -0.7310 
     21 O         -57.8700  -32.4819   13.3856 O.2       13 UNK        -0.5035 
     22 N         -56.2734  -29.2414   12.7343 N.am      13 UNK        -0.4233 
     23 C         -57.0186  -28.1652   13.0005 C.2       13 UNK         0.4989 
     24 O         -58.2507  -28.1635   12.9999 O.2       13 UNK        -0.4996 
     25 CA        -56.2367  -26.8778   13.3300 C.3       12 UNK         0.0216 
     26 CB        -57.1388  -25.6337   13.4254 C.3       12 UNK        -0.1964 
     27 N         -55.4522  -26.9969   14.5628 N.am      12 UNK        -0.4276 
     28 C         -54.3172  -27.6944   14.6892 C.2       12 UNK         0.5020 
     29 O         -53.7914  -28.3104   13.7603 O.2       12 UNK        -0.5489 
     30 CA        -53.6546  -27.6670   16.0681 C.3       11 UNK         0.0294 
     31 CB        -52.7094  -28.8637   16.2815 C.3       11 UNK        -0.2019 
     32 N         -52.8806  -26.4364   16.1746 N.am      11 UNK        -0.4493 
     33 C         -53.1037  -25.4420   17.0429 C.2       11 UNK         0.4932 
     34 O         -54.0617  -25.4163   17.8173 O.2       11 UNK        -0.5029 
     35 CA        -52.0720  -24.2920   17.0505 C.3       10 UNK         0.0280 
     36 CB        -52.0791  -23.4823   18.3644 C.3       10 UNK        -0.1976 
     37 N         -50.7155  -24.7478   16.7160 N.am      10 UNK        -0.4242 
     38 C         -49.9779  -25.6587   17.3728 C.2       10 UNK         0.5072 
     39 O         -50.2885  -26.1371   18.4646 O.2       10 UNK        -0.5224 
     40 CA        -48.6926  -26.1570   16.6894 C.3       9 UNK         0.0343 
     41 CB        -48.8125  -27.6524   16.3427 C.3       9 UNK        -0.2003 
     42 N         -48.3833  -25.4196   15.4598 N.am      9 UNK        -0.4272 
     43 C         -47.2728  -24.6956   15.2672 C.2       9 UNK         0.4988 
     44 O         -46.3872  -24.5537   16.1114 O.2       9 UNK        -0.5108 
     45 CA        -47.1062  -24.0179   13.8978 C.3       8 UNK         0.0248 
     46 CB        -46.4313  -24.9743   12.8989 C.3       8 UNK        -0.2001 
     47 N         -48.3573  -23.5183   13.3233 N.am      8 UNK        -0.4140 
     48 C         -49.0560  -22.4757   13.7952 C.2       8 UNK         0.5028 
     49 O         -48.7766  -21.8774   14.8340 O.2       8 UNK        -0.5428 
     50 CA        -50.2647  -22.0153   12.9689 C.3       7 UNK         0.0264 
     51 CB        -49.8022  -21.2083   11.7440 C.3       7 UNK        -0.1988 
     52 N         -51.0623  -23.1541   12.5172 N.am      7 UNK        -0.4454 
     53 C         -52.2882  -23.4583   12.9650 C.2       7 UNK         0.5027 
     54 O         -52.8986  -22.7869   13.7974 O.2       7 UNK        -0.5083 
     55 CA        -52.9587  -24.7326   12.4021 C.3       6 UNK         0.0844 
     56 C56       -53.9033  -24.3826   11.2227 C.3       14 UNK        -0.0967 
     57 S57       -53.0306  -24.0506    9.6476 S.3       14 UNK        -0.2604 
     58 C58       -53.8637  -25.1746    8.4799 C.3       14 UNK         0.0134 
     59 N         -52.0114  -25.7920   12.0457 N.am      6 UNK        -0.4116 
     60 C         -51.0961  -26.3438   12.8522 C.2       5 UNK         0.5034 
     61 O         -50.9870  -26.0905   14.0523 O.2       5 UNK        -0.5045 
     62 CA        -50.0643  -27.2713   12.1920 C.3       5 UNK         0.0224 
     63 CB        -50.4912  -28.7384   12.3294 C.3       5 UNK        -0.1978 
     64 N         -49.7789  -26.9668   10.7823 N.am      5 UNK        -0.4737 
     65 C         -49.3281  -25.7909   10.3234 C.2       4 UNK         0.5027 
     66 O         -49.1992  -24.7856   11.0240 O.2       4 UNK        -0.5211 
     67 CA        -48.9263  -25.7235    8.8453 C.3       4 UNK         0.0297 
     68 CB        -49.5834  -24.5232    8.1429 C.3       4 UNK        -0.1993 
     69 N         -47.4735  -25.6050    8.7261 N.am      4 UNK        -0.4486 
     70 C         -46.5917  -26.5597    9.0499 C.2       3 UNK         0.4961 
     71 O         -46.9100  -27.6892    9.4247 O.2       3 UNK        -0.5105 
     72 CA        -45.1102  -26.1962    8.8588 C.3       3 UNK         0.0299 
     73 CB        -44.1581  -27.2234    9.4981 C.3       3 UNK        -0.1972 
     74 N         -44.8388  -26.1203    7.4262 N.am      3 UNK        -0.4305 
     75 C         -44.9405  -25.0194    6.6739 C.2       2 UNK         0.5006 
     76 O         -45.1427  -23.8940    7.1306 O.2       2 UNK        -0.5106 
     77 CA        -44.8829  -25.2191    5.1494 C.3       2 UNK         0.0296 
     78 CB        -43.5452  -25.8324    4.6847 C.3       2 UNK        -0.2002 
     79 N         -46.0475  -25.9658    4.6491 N.am      2 UNK        -0.4032 
     80 C         -46.3793  -27.2440    4.8911 C.2       1 UNK         0.5000 
     81 O         -45.6657  -28.0386    5.5120 O.2       1 UNK        -0.5238 
     82 H82       -47.8726  -31.6361    3.7675 H         1 UNK         0.0889 
     83 H83       -46.3365  -31.6186    2.8990 H         1 UNK         0.0889 
     84 H84       -47.8557  -31.4685    2.0110 H         1 UNK         0.0889 
     85 H85       -48.2410  -29.6986    4.8263 H         1 UNK         0.3028 
     86 H86       -48.0203  -27.1357    3.5094 H         1 UNK         0.0864 
     87 H87       -48.6174  -27.8107    6.4432 H         1 UNK         0.0720 
     88 H88       -48.7627  -26.2259    5.7305 H         1 UNK         0.0720 
     89 H89       -50.2563  -29.3995    6.5969 H         1 UNK         0.0814 
     90 H90       -51.7157  -29.5754    5.6683 H         1 UNK         0.0814 
     91 H91       -52.1463  -26.2657    6.6819 H         1 UNK         0.1469 
     92 H92       -54.3558  -27.2310   10.2201 H         1 UNK         0.1381 
     93 H93       -52.0107  -30.2433    8.2989 H         1 UNK         0.1206 
     94 H94       -52.9440  -30.6507   10.5204 H         1 UNK         0.0813 
     95 H95       -53.7224  -29.3554   11.3965 H         1 UNK         0.0813 
     96 H96       -54.8396  -31.5620   12.1330 H         1 UNK         0.0638 
     97 H97       -56.1356  -32.3503   11.2716 H         1 UNK         0.0638 
     98 H98       -57.6538  -30.4263   11.7378 H         1 UNK         0.0568 
     99 H99       -57.4842  -31.5219   15.5921 H         1 UNK         0.3450 
    100 H100      -56.6831  -30.0890   14.9973 H         1 UNK         0.3450 
    101 H101      -55.2679  -29.1511   12.8470 H         1 UNK         0.2987 
    102 H102      -55.5453  -26.7192   12.5019 H         1 UNK         0.0766 
    103 H103      -56.5508  -24.7277   13.5743 H         1 UNK         0.0798 
    104 H104      -57.8506  -25.7118   14.2482 H         1 UNK         0.0798 
    105 H105      -57.7138  -25.4967   12.5086 H         1 UNK         0.0798 
    106 H106      -55.8172  -26.5225   15.3772 H         1 UNK         0.3198 
    107 H107      -54.4372  -27.7115   16.8285 H         1 UNK         0.0843 
    108 H108      -53.2476  -29.8077   16.1881 H         1 UNK         0.0831 
    109 H109      -52.2613  -28.8396   17.2751 H         1 UNK         0.0831 
    110 H110      -51.8989  -28.8765   15.5523 H         1 UNK         0.0831 
    111 H111      -52.1150  -26.3385   15.5100 H         1 UNK         0.3133 
    112 H112      -52.3693  -23.6147   16.2504 H         1 UNK         0.0566 
    113 H113      -51.3434  -22.6786   18.3388 H         1 UNK         0.0814 
    114 H114      -53.0535  -23.0225   18.5341 H         1 UNK         0.0814 
    115 H115      -51.8623  -24.1094   19.2296 H         1 UNK         0.0814 
    116 H116      -50.3631  -24.4281   15.8261 H         1 UNK         0.3091 
    117 H117      -47.8901  -26.0433   17.4210 H         1 UNK         0.0702 
    118 H118      -47.8865  -28.0336   15.9120 H         1 UNK         0.0785 
    119 H119      -49.6150  -27.8393   15.6289 H         1 UNK         0.0785 
    120 H120      -49.0235  -28.2473   17.2324 H         1 UNK         0.0785 
    121 H121      -49.0622  -25.4951   14.7121 H         1 UNK         0.2998 
    122 H122      -46.4450  -23.1601   14.0381 H         1 UNK         0.0697 
    123 H123      -45.4724  -25.3264   13.2818 H         1 UNK         0.0825 
    124 H124      -46.2375  -24.4807   11.9463 H         1 UNK         0.0825 
    125 H125      -47.0445  -25.8532   12.6989 H         1 UNK         0.0825 
    126 H126      -48.6536  -23.9501   12.4478 H         1 UNK         0.3029 
    127 H127      -50.8623  -21.3544   13.6007 H         1 UNK         0.0897 
    128 H128      -50.6537  -20.8196   11.1852 H         1 UNK         0.0792 
    129 H129      -49.1941  -20.3541   12.0449 H         1 UNK         0.0792 
    130 H130      -49.2041  -21.8129   11.0605 H         1 UNK         0.0792 
    131 H131      -50.6214  -23.7728   11.8420 H         1 UNK         0.3086 
    132 H132      -53.5738  -25.1292   13.2114 H         1 UNK         0.0583 
    133 H133      -54.5221  -23.5156   11.4647 H         1 UNK         0.1020 
    134 H134      -54.6153  -25.1908   11.0743 H         1 UNK         0.1020 
    135 H135      -54.9316  -25.2147    8.6998 H         1 UNK         0.0694 
    136 H136      -53.7867  -24.7396    7.4823 H         1 UNK         0.0694 
    137 H137      -51.9880  -26.0450   11.0682 H         1 UNK         0.2989 
    138 H138      -49.1305  -27.1436   12.7426 H         1 UNK         0.1055 
    139 H139      -50.6987  -28.9915   13.3700 H         1 UNK         0.0806 
    140 H140      -49.7113  -29.4156   11.9808 H         1 UNK         0.0806 
    141 H141      -51.3956  -28.9444   11.7610 H         1 UNK         0.0806 
    142 H142      -49.8334  -27.7423   10.1367 H         1 UNK         0.3061 
    143 H143      -49.2498  -26.6377    8.3458 H         1 UNK         0.0734 
    144 H144      -50.6650  -24.6422    8.1089 H         1 UNK         0.0832 
    145 H145      -49.3750  -23.5832    8.6561 H         1 UNK         0.0832 
    146 H146      -49.2429  -24.4184    7.1138 H         1 UNK         0.0832 
    147 H147      -47.1142  -24.7056    8.4353 H         1 UNK         0.3156 
    148 H148      -44.9314  -25.2291    9.3338 H         1 UNK         0.0589 
    149 H149      -44.2744  -28.2147    9.0579 H         1 UNK         0.0808 
    150 H150      -43.1167  -26.9247    9.3775 H         1 UNK         0.0808 
    151 H151      -44.3477  -27.3159   10.5683 H         1 UNK         0.0808 
    152 H152      -44.8061  -27.0061    6.9276 H         1 UNK         0.3098 
    153 H153      -44.9516  -24.2262    4.7014 H         1 UNK         0.0720 
    154 H154      -43.5010  -25.9004    3.5977 H         1 UNK         0.0791 
    155 H155      -43.3783  -26.8320    5.0861 H         1 UNK         0.0791 
    156 H156      -42.7054  -25.2139    5.0040 H         1 UNK         0.0791 
    157 H157      -46.7175  -25.4006    4.1451 H         1 UNK         0.3028 
@<TRIPOS>BOND
     1    1    2 1    
     2    1   82 1    
     3    1   83 1    
     4    1   84 1    
     5    2    3 2    
     6    2    4 am   BACKBONE|DICT|INTERRES
     7    4    5 1    
     8    4   85 1    
     9    5    6 1    
    10    5   80 1    
    11    5   86 1    
    12    6    7 1    
    13    6   87 1    
    14    6   88 1    
    15    7    8 1    
    16    8    9 1    
    17    8   89 1    
    18    8   90 1    
    19    9   10 ar   
    20    9   14 ar   
    21   10   11 ar   
    22   10   91 1    
    23   11   12 ar   
    24   11   58 1    
    25   12   13 ar   
    26   12   92 1    
    27   13   14 ar   
    28   13   15 1    
    29   14   93 1    
    30   15   16 1    
    31   15   94 1    
    32   15   95 1    
    33   16   17 1    
    34   17   18 1    
    35   17   96 1    
    36   17   97 1    
    37   18   19 1    
    38   18   22 1    
    39   18   98 1    
    40   19   20 am   BACKBONE|DICT|INTERRES
    41   19   21 2    
    42   20   99 1    
    43   20  100 1    
    44   22   23 am   BACKBONE|DICT|INTERRES
    45   22  101 1    
    46   23   24 2    
    47   23   25 1    
    48   25   26 1    
    49   25   27 1    
    50   25  102 1    
    51   26  103 1    
    52   26  104 1    
    53   26  105 1    
    54   27   28 am   BACKBONE|DICT|INTERRES
    55   27  106 1    
    56   28   29 2    
    57   28   30 1    
    58   30   31 1    
    59   30   32 1    
    60   30  107 1    
    61   31  108 1    
    62   31  109 1    
    63   31  110 1    
    64   32   33 am   BACKBONE|DICT|INTERRES
    65   32  111 1    
    66   33   34 2    
    67   33   35 1    
    68   35   36 1    
    69   35   37 1    
    70   35  112 1    
    71   36  113 1    
    72   36  114 1    
    73   36  115 1    
    74   37   38 am   BACKBONE|DICT|INTERRES
    75   37  116 1    
    76   38   39 2    
    77   38   40 1    
    78   40   41 1    
    79   40   42 1    
    80   40  117 1    
    81   41  118 1    
    82   41  119 1    
    83   41  120 1    
    84   42   43 am   BACKBONE|DICT|INTERRES
    85   42  121 1    
    86   43   44 2    
    87   43   45 1    
    88   45   46 1    
    89   45   47 1    
    90   45  122 1    
    91   46  123 1    
    92   46  124 1    
    93   46  125 1    
    94   47   48 am   BACKBONE|DICT|INTERRES
    95   47  126 1    
    96   48   49 2    
    97   48   50 1    
    98   50   51 1    
    99   50   52 1    
   100   50  127 1    
   101   51  128 1    
   102   51  129 1    
   103   51  130 1    
   104   52   53 am   BACKBONE|DICT|INTERRES
   105   52  131 1    
   106   53   54 2    
   107   53   55 1    
   108   55   56 1    
   109   55   59 1    
   110   55  132 1    
   111   56   57 1    
   112   56  133 1    
   113   56  134 1    
   114   57   58 1    
   115   58  135 1    
   116   58  136 1    
   117   59   60 am   BACKBONE|DICT|INTERRES
   118   59  137 1    
   119   60   61 2    
   120   60   62 1    
   121   62   63 1    
   122   62   64 1    
   123   62  138 1    
   124   63  139 1    
   125   63  140 1    
   126   63  141 1    
   127   64   65 am   BACKBONE|DICT|INTERRES
   128   64  142 1    
   129   65   66 2    
   130   65   67 1    
   131   67   68 1    
   132   67   69 1    
   133   67  143 1    
   134   68  144 1    
   135   68  145 1    
   136   68  146 1    
   137   69   70 am   BACKBONE|DICT|INTERRES
   138   69  147 1    
   139   70   71 2    
   140   70   72 1    
   141   72   73 1    
   142   72   74 1    
   143   72  148 1    
   144   73  149 1    
   145   73  150 1    
   146   73  151 1    
   147   74   75 am   BACKBONE|DICT|INTERRES
   148   74  152 1    
   149   75   76 2    
   150   75   77 1    
   151   77   78 1    
   152   77   79 1    
   153   77  153 1    
   154   78  154 1    
   155   78  155 1    
   156   78  156 1    
   157   79   80 am   BACKBONE|DICT|INTERRES
   158   79  157 1    
   159   80   81 2    
@<TRIPOS>SUBSTRUCTURE
     1 UNK         1 GROUP             0       ****    0 ROOT    
