@<TRIPOS>MOLECULE
3R207
157   159    1
SMALL
USER_CHARGES


@<TRIPOS>ATOM
      1 CA        -53.6031  -27.9247    4.8191 C.3       0 UNK        -0.1975 
      2 C         -52.1841  -27.8167    5.3556 C.2       0 UNK         0.4852 
      3 O         -51.8076  -26.7641    5.8731 O.2       0 UNK        -0.5216 
      4 N         -51.3923  -28.8914    5.2151 N.am      1 UNK        -0.4461 
      5 CA        -50.0343  -29.0632    5.7599 C.3       1 UNK         0.0864 
      6 C6        -49.4097  -30.4292    5.3718 C.3       14 UNK        -0.0898 
      7 S7        -50.5235  -31.8527    5.6244 S.3       14 UNK        -0.2598 
      8 C8        -49.9985  -32.4626    7.2611 C.3       14 UNK         0.0286 
      9 C9        -50.3632  -31.5221    8.4058 C.ar      14 UNK        -0.0844 
     10 C10       -49.4209  -31.2316    9.3980 C.ar      14 UNK        -0.0881 
     11 C11       -49.7549  -30.4086   10.4779 C.ar      14 UNK        -0.0643 
     12 C12       -51.0390  -29.8587   10.5537 C.ar      14 UNK        -0.0930 
     13 C13       -51.9912  -30.1421    9.5701 C.ar      14 UNK        -0.0827 
     14 C14       -51.6496  -30.9798    8.5054 C.ar      14 UNK        -0.1249 
     15 C15       -53.3951  -29.5637    9.6615 C.3       14 UNK         0.0141 
     16 S16       -53.4726  -27.9235    8.8856 S.3       14 UNK        -0.2313 
     17 C17       -55.2666  -27.5999    8.8460 C.3       14 UNK        -0.0915 
     18 CA        -55.7116  -26.5972    9.9437 C.3       13 UNK         0.0968 
     19 C         -57.1185  -26.0037    9.6372 C.2       13 UNK         0.5732 
     20 N         -58.1163  -26.1613   10.4996 N.am      13 UNK        -0.7310 
     21 O         -57.3062  -25.3737    8.5991 O.2       13 UNK        -0.5035 
     22 N         -55.5940  -27.1876   11.2878 N.am      13 UNK        -0.4233 
     23 C         -55.3179  -26.4981   12.4006 C.2       13 UNK         0.4989 
     24 O         -55.0911  -25.2858   12.4143 O.2       13 UNK        -0.4996 
     25 CA        -55.3104  -27.3037   13.7119 C.3       12 UNK         0.0216 
     26 CB        -54.4815  -28.5988   13.5937 C.3       12 UNK        -0.1964 
     27 N         -54.7412  -26.4974   14.7873 N.am      12 UNK        -0.4276 
     28 C         -55.3560  -26.1040   15.9072 C.2       12 UNK         0.5020 
     29 O         -56.5302  -26.3620   16.1817 O.2       12 UNK        -0.5489 
     30 CA        -54.4721  -25.3149   16.8946 C.3       11 UNK         0.0294 
     31 CB        -55.1687  -25.0003   18.2359 C.3       11 UNK        -0.2019 
     32 N         -53.1813  -25.9871   17.0966 N.am      11 UNK        -0.4493 
     33 C         -52.9701  -27.2035   17.6235 C.2       11 UNK         0.4932 
     34 O         -53.8368  -27.8751   18.1841 O.2       11 UNK        -0.5029 
     35 CA        -51.5624  -27.8069   17.4650 C.3       10 UNK         0.0280 
     36 CB        -51.5753  -28.8705   16.3539 C.3       10 UNK        -0.1976 
     37 N         -50.5195  -26.8205   17.1681 N.am      10 UNK        -0.4242 
     38 C         -50.0038  -25.9656   18.0629 C.2       10 UNK         0.5072 
     39 O         -50.3383  -25.9287   19.2478 O.2       10 UNK        -0.5224 
     40 CA        -48.9440  -24.9745   17.5490 C.3       9 UNK         0.0343 
     41 CB        -47.5703  -25.6547   17.4340 C.3       9 UNK        -0.2003 
     42 N         -49.3001  -24.3677   16.2643 N.am      9 UNK        -0.4272 
     43 C         -50.3476  -23.5530   16.0680 C.2       9 UNK         0.4988 
     44 O         -51.1134  -23.1881   16.9600 O.2       9 UNK        -0.5108 
     45 CA        -50.6103  -23.0982   14.6227 C.3       8 UNK         0.0248 
     46 CB        -49.6903  -21.9292   14.2341 C.3       8 UNK        -0.2001 
     47 N         -50.4624  -24.1921   13.6610 N.am      8 UNK        -0.4140 
     48 C         -51.2534  -25.2736   13.6210 C.2       8 UNK         0.5028 
     49 O         -52.2207  -25.4460   14.3603 O.2       8 UNK        -0.5428 
     50 CA        -50.8663  -26.3768   12.6301 C.3       7 UNK         0.0264 
     51 CB        -51.3710  -26.0476   11.2175 C.3       7 UNK        -0.1988 
     52 N         -49.4220  -26.5991   12.6035 N.am      7 UNK        -0.4454 
     53 C         -48.7213  -27.1368   13.6157 C.2       7 UNK         0.5027 
     54 O         -49.2274  -27.5013   14.6762 O.2       7 UNK        -0.5083 
     55 CA        -47.1911  -27.2498   13.4338 C.3       6 UNK         0.0844 
     56 C56       -46.7697  -28.5971   12.7901 C.3       14 UNK        -0.0967 
     57 S57       -47.4929  -28.9232   11.1387 S.3       14 UNK        -0.2604 
     58 C58       -48.7491  -30.1617   11.5922 C.3       14 UNK         0.0134 
     59 N         -46.6279  -26.0965   12.7305 N.am      6 UNK        -0.4116 
     60 C         -46.7269  -24.8239   13.1418 C.2       5 UNK         0.5034 
     61 O         -47.2258  -24.4911   14.2173 O.2       5 UNK        -0.5045 
     62 CA        -46.2358  -23.7275   12.1798 C.3       5 UNK         0.0224 
     63 CB        -44.8703  -23.1903   12.6366 C.3       5 UNK        -0.1978 
     64 N         -46.1500  -24.1307   10.7695 N.am      5 UNK        -0.4737 
     65 C         -47.1677  -24.5762   10.0195 C.2       4 UNK         0.5027 
     66 O         -48.3024  -24.7844   10.4560 O.2       4 UNK        -0.5211 
     67 CA        -46.8231  -24.9011    8.5570 C.3       4 UNK         0.0297 
     68 CB        -46.2180  -26.3101    8.4540 C.3       4 UNK        -0.1993 
     69 N         -47.9809  -24.8139    7.6661 N.am      4 UNK        -0.4486 
     70 C         -48.6460  -23.6848    7.3757 C.2       3 UNK         0.4961 
     71 O         -48.3375  -22.5783    7.8238 O.2       3 UNK        -0.5105 
     72 CA        -49.8409  -23.8117    6.4043 C.3       3 UNK         0.0299 
     73 CB        -50.2469  -22.4664    5.7653 C.3       3 UNK        -0.1972 
     74 N         -49.6408  -24.8391    5.3752 N.am      3 UNK        -0.4305 
     75 C         -48.6392  -24.9083    4.4801 C.2       2 UNK         0.5006 
     76 O         -47.8049  -24.0155    4.3208 O.2       2 UNK        -0.5106 
     77 CA        -48.5332  -26.1926    3.6261 C.3       2 UNK         0.0296 
     78 CB        -47.0673  -26.5637    3.3145 C.3       2 UNK        -0.2002 
     79 N         -49.2424  -27.3523    4.1845 N.am      2 UNK        -0.4032 
     80 C         -49.0599  -27.9264    5.3863 C.2       1 UNK         0.5000 
     81 O         -48.2110  -27.5643    6.2016 O.2       1 UNK        -0.5238 
     82 H82       -53.7807  -27.1551    4.0685 H         1 UNK         0.0889 
     83 H83       -53.7951  -28.8960    4.3637 H         1 UNK         0.0889 
     84 H84       -54.3177  -27.7829    5.6291 H         1 UNK         0.0889 
     85 H85       -51.7709  -29.7227    4.7825 H         1 UNK         0.3028 
     86 H86       -50.1390  -29.0360    6.8466 H         1 UNK         0.0864 
     87 H87       -48.4857  -30.5955    5.9294 H         1 UNK         0.0720 
     88 H88       -49.1278  -30.4320    4.3169 H         1 UNK         0.0720 
     89 H89       -48.9249  -32.6559    7.2393 H         1 UNK         0.0814 
     90 H90       -50.4786  -33.4250    7.4423 H         1 UNK         0.0814 
     91 H91       -48.4292  -31.6601    9.3449 H         1 UNK         0.1469 
     92 H92       -51.3035  -29.2222   11.3861 H         1 UNK         0.1381 
     93 H93       -52.3881  -31.2083    7.7492 H         1 UNK         0.1206 
     94 H94       -54.1056  -30.2333    9.1745 H         1 UNK         0.0813 
     95 H95       -53.7029  -29.4877   10.7045 H         1 UNK         0.0813 
     96 H96       -55.8234  -28.5352    8.9219 H         1 UNK         0.0638 
     97 H97       -55.4816  -27.2033    7.8522 H         1 UNK         0.0638 
     98 H98       -55.0328  -25.7437    9.8888 H         1 UNK         0.0568 
     99 H99       -59.0176  -25.7644   10.2856 H         1 UNK         0.3450 
    100 H100      -57.9798  -26.6675   11.3589 H         1 UNK         0.3450 
    101 H101      -55.7967  -28.1730   11.3562 H         1 UNK         0.2987 
    102 H102      -56.3446  -27.5653   13.9440 H         1 UNK         0.0766 
    103 H103      -54.3859  -29.0936   14.5608 H         1 UNK         0.0798 
    104 H104      -53.4754  -28.4029   13.2222 H         1 UNK         0.0798 
    105 H105      -54.9500  -29.3164   12.9201 H         1 UNK         0.0798 
    106 H106      -53.7986  -26.1398   14.6162 H         1 UNK         0.3198 
    107 H107      -54.2457  -24.3633   16.4104 H         1 UNK         0.0843 
    108 H108      -55.4887  -25.9047   18.7537 H         1 UNK         0.0831 
    109 H109      -56.0580  -24.3899   18.0755 H         1 UNK         0.0831 
    110 H110      -54.5096  -24.4455   18.9035 H         1 UNK         0.0831 
    111 H111      -52.4025  -25.5594   16.6103 H         1 UNK         0.3133 
    112 H112      -51.3091  -28.3012   18.4052 H         1 UNK         0.0566 
    113 H113      -50.6105  -29.3714   16.2722 H         1 UNK         0.0814 
    114 H114      -52.3232  -29.6393   16.5529 H         1 UNK         0.0814 
    115 H115      -51.8082  -28.4321   15.3826 H         1 UNK         0.0814 
    116 H116      -50.1359  -26.8382   16.2259 H         1 UNK         0.3091 
    117 H117      -48.8617  -24.1690   18.2818 H         1 UNK         0.0702 
    118 H118      -46.8002  -24.9438   17.1336 H         1 UNK         0.0785 
    119 H119      -47.5796  -26.4642   16.7038 H         1 UNK         0.0785 
    120 H120      -47.2644  -26.0807   18.3904 H         1 UNK         0.0785 
    121 H121      -48.6839  -24.5640   15.4800 H         1 UNK         0.2998 
    122 H122      -51.6436  -22.7484   14.5680 H         1 UNK         0.0697 
    123 H123      -48.6370  -22.2081   14.2693 H         1 UNK         0.0825 
    124 H124      -49.8250  -21.0879   14.9152 H         1 UNK         0.0825 
    125 H125      -49.9091  -21.5686   13.2289 H         1 UNK         0.0825 
    126 H126      -49.6763  -24.1497   13.0285 H         1 UNK         0.3029 
    127 H127      -51.3417  -27.3024   12.9587 H         1 UNK         0.0897 
    128 H128      -50.9682  -25.1031   10.8502 H         1 UNK         0.0792 
    129 H129      -52.4585  -25.9648   11.2023 H         1 UNK         0.0792 
    130 H130      -51.0936  -26.8240   10.5046 H         1 UNK         0.0792 
    131 H131      -48.9272  -26.2753   11.7779 H         1 UNK         0.3086 
    132 H132      -46.7599  -27.2293   14.4369 H         1 UNK         0.0583 
    133 H133      -45.6834  -28.6309   12.6936 H         1 UNK         0.1020 
    134 H134      -47.0159  -29.4192   13.4650 H         1 UNK         0.1020 
    135 H135      -48.2507  -31.0976   11.8494 H         1 UNK         0.0694 
    136 H136      -49.2719  -29.8387   12.4938 H         1 UNK         0.0694 
    137 H137      -46.2236  -26.2758   11.8237 H         1 UNK         0.2989 
    138 H138      -46.9610  -22.9130   12.2391 H         1 UNK         0.1055 
    139 H139      -44.9089  -22.8560   13.6747 H         1 UNK         0.0806 
    140 H140      -44.5578  -22.3351   12.0369 H         1 UNK         0.0806 
    141 H141      -44.0928  -23.9523   12.5689 H         1 UNK         0.0806 
    142 H142      -45.2481  -24.0138   10.3288 H         1 UNK         0.3061 
    143 H143      -46.0836  -24.1770    8.2087 H         1 UNK         0.0734 
    144 H144      -46.9369  -27.0768    8.7460 H         1 UNK         0.0832 
    145 H145      -45.8965  -26.5288    7.4354 H         1 UNK         0.0832 
    146 H146      -45.3441  -26.4185    9.0975 H         1 UNK         0.0832 
    147 H147      -48.2844  -25.6830    7.2407 H         1 UNK         0.3156 
    148 H148      -50.6818  -24.1553    7.0086 H         1 UNK         0.0589 
    149 H149      -49.4310  -22.0288    5.1893 H         1 UNK         0.0808 
    150 H150      -51.1020  -22.5855    5.1001 H         1 UNK         0.0808 
    151 H151      -50.5308  -21.7409    6.5286 H         1 UNK         0.0808 
    152 H152      -50.2935  -25.6183    5.4286 H         1 UNK         0.3098 
    153 H153      -49.0254  -25.9629    2.6800 H         1 UNK         0.0720 
    154 H154      -47.0069  -27.4631    2.7018 H         1 UNK         0.0791 
    155 H155      -46.4935  -26.7389    4.2253 H         1 UNK         0.0791 
    156 H156      -46.5671  -25.7661    2.7638 H         1 UNK         0.0791 
    157 H157      -49.9919  -27.7182    3.6137 H         1 UNK         0.3028 
@<TRIPOS>BOND
     1    1    2 1    
     2    1   82 1    
     3    1   83 1    
     4    1   84 1    
     5    2    3 2    
     6    2    4 am   BACKBONE|DICT|INTERRES
     7    4    5 1    
     8    4   85 1    
     9    5    6 1    
    10    5   80 1    
    11    5   86 1    
    12    6    7 1    
    13    6   87 1    
    14    6   88 1    
    15    7    8 1    
    16    8    9 1    
    17    8   89 1    
    18    8   90 1    
    19    9   10 ar   
    20    9   14 ar   
    21   10   11 ar   
    22   10   91 1    
    23   11   12 ar   
    24   11   58 1    
    25   12   13 ar   
    26   12   92 1    
    27   13   14 ar   
    28   13   15 1    
    29   14   93 1    
    30   15   16 1    
    31   15   94 1    
    32   15   95 1    
    33   16   17 1    
    34   17   18 1    
    35   17   96 1    
    36   17   97 1    
    37   18   19 1    
    38   18   22 1    
    39   18   98 1    
    40   19   20 am   BACKBONE|DICT|INTERRES
    41   19   21 2    
    42   20   99 1    
    43   20  100 1    
    44   22   23 am   BACKBONE|DICT|INTERRES
    45   22  101 1    
    46   23   24 2    
    47   23   25 1    
    48   25   26 1    
    49   25   27 1    
    50   25  102 1    
    51   26  103 1    
    52   26  104 1    
    53   26  105 1    
    54   27   28 am   BACKBONE|DICT|INTERRES
    55   27  106 1    
    56   28   29 2    
    57   28   30 1    
    58   30   31 1    
    59   30   32 1    
    60   30  107 1    
    61   31  108 1    
    62   31  109 1    
    63   31  110 1    
    64   32   33 am   BACKBONE|DICT|INTERRES
    65   32  111 1    
    66   33   34 2    
    67   33   35 1    
    68   35   36 1    
    69   35   37 1    
    70   35  112 1    
    71   36  113 1    
    72   36  114 1    
    73   36  115 1    
    74   37   38 am   BACKBONE|DICT|INTERRES
    75   37  116 1    
    76   38   39 2    
    77   38   40 1    
    78   40   41 1    
    79   40   42 1    
    80   40  117 1    
    81   41  118 1    
    82   41  119 1    
    83   41  120 1    
    84   42   43 am   BACKBONE|DICT|INTERRES
    85   42  121 1    
    86   43   44 2    
    87   43   45 1    
    88   45   46 1    
    89   45   47 1    
    90   45  122 1    
    91   46  123 1    
    92   46  124 1    
    93   46  125 1    
    94   47   48 am   BACKBONE|DICT|INTERRES
    95   47  126 1    
    96   48   49 2    
    97   48   50 1    
    98   50   51 1    
    99   50   52 1    
   100   50  127 1    
   101   51  128 1    
   102   51  129 1    
   103   51  130 1    
   104   52   53 am   BACKBONE|DICT|INTERRES
   105   52  131 1    
   106   53   54 2    
   107   53   55 1    
   108   55   56 1    
   109   55   59 1    
   110   55  132 1    
   111   56   57 1    
   112   56  133 1    
   113   56  134 1    
   114   57   58 1    
   115   58  135 1    
   116   58  136 1    
   117   59   60 am   BACKBONE|DICT|INTERRES
   118   59  137 1    
   119   60   61 2    
   120   60   62 1    
   121   62   63 1    
   122   62   64 1    
   123   62  138 1    
   124   63  139 1    
   125   63  140 1    
   126   63  141 1    
   127   64   65 am   BACKBONE|DICT|INTERRES
   128   64  142 1    
   129   65   66 2    
   130   65   67 1    
   131   67   68 1    
   132   67   69 1    
   133   67  143 1    
   134   68  144 1    
   135   68  145 1    
   136   68  146 1    
   137   69   70 am   BACKBONE|DICT|INTERRES
   138   69  147 1    
   139   70   71 2    
   140   70   72 1    
   141   72   73 1    
   142   72   74 1    
   143   72  148 1    
   144   73  149 1    
   145   73  150 1    
   146   73  151 1    
   147   74   75 am   BACKBONE|DICT|INTERRES
   148   74  152 1    
   149   75   76 2    
   150   75   77 1    
   151   77   78 1    
   152   77   79 1    
   153   77  153 1    
   154   78  154 1    
   155   78  155 1    
   156   78  156 1    
   157   79   80 am   BACKBONE|DICT|INTERRES
   158   79  157 1    
   159   80   81 2    
@<TRIPOS>SUBSTRUCTURE
     1 UNK         1 GROUP             0       ****    0 ROOT    
