@<TRIPOS>MOLECULE
3R207
157   159    1
SMALL
USER_CHARGES


@<TRIPOS>ATOM
      1 CA        -48.9299  -32.3581    7.5804 C.3       0 UNK        -0.1975 
      2 C         -49.4329  -31.3958    6.5148 C.2       0 UNK         0.4852 
      3 O         -49.0333  -31.5053    5.3551 O.2       0 UNK        -0.5216 
      4 N         -50.3031  -30.4524    6.8994 N.am      1 UNK        -0.4461 
      5 CA        -50.8794  -29.4253    6.0217 C.3       1 UNK         0.0864 
      6 C6        -52.1111  -28.7627    6.6886 C.3       14 UNK        -0.0898 
      7 S7        -53.2506  -28.0204    5.4737 S.3       14 UNK        -0.2598 
      8 C8        -54.7513  -27.7945    6.4787 C.3       14 UNK         0.0286 
      9 C9        -54.5158  -26.8821    7.6749 C.ar      14 UNK        -0.0844 
     10 C10       -54.1509  -25.5453    7.4845 C.ar      14 UNK        -0.0881 
     11 C11       -53.9437  -24.6980    8.5775 C.ar      14 UNK        -0.0643 
     12 C12       -54.1387  -25.1966    9.8700 C.ar      14 UNK        -0.0930 
     13 C13       -54.4805  -26.5347   10.0741 C.ar      14 UNK        -0.0827 
     14 C14       -54.6712  -27.3737    8.9736 C.ar      14 UNK        -0.1249 
     15 C15       -54.6420  -27.0659   11.4878 C.3       14 UNK         0.0141 
     16 S16       -53.0574  -27.0964   12.3845 S.3       14 UNK        -0.2313 
     17 C17       -52.0703  -28.3133   11.4482 C.3       14 UNK        -0.0915 
     18 CA        -52.7043  -29.7252   11.3334 C.3       13 UNK         0.0968 
     19 C         -51.7157  -30.7209   10.6621 C.2       13 UNK         0.5732 
     20 N         -51.3781  -31.8461   11.2795 N.am      13 UNK        -0.7310 
     21 O         -51.2427  -30.4636    9.5579 O.2       13 UNK        -0.5035 
     22 N         -53.2774  -30.1732   12.6136 N.am      13 UNK        -0.4233 
     23 C         -54.2708  -31.0602   12.7411 C.2       13 UNK         0.4989 
     24 O         -54.7629  -31.6843   11.8007 O.2       13 UNK        -0.4996 
     25 CA        -54.8226  -31.2777   14.1614 C.3       12 UNK         0.0216 
     26 CB        -54.0321  -32.3830   14.8808 C.3       12 UNK        -0.1964 
     27 N         -54.8356  -30.0666   14.9934 N.am      12 UNK        -0.4276 
     28 C         -55.5933  -28.9821   14.7680 C.2       12 UNK         0.5020 
     29 O         -56.3377  -28.8551   13.7962 O.2       12 UNK        -0.5489 
     30 CA        -55.5178  -27.8476   15.7991 C.3       11 UNK         0.0294 
     31 CB        -55.1592  -28.3229   17.2247 C.3       11 UNK        -0.2019 
     32 N         -54.5546  -26.8497   15.3437 N.am      11 UNK        -0.4493 
     33 C         -54.5390  -25.5600   15.7041 C.2       11 UNK         0.4932 
     34 O         -55.4076  -25.0376   16.4055 O.2       11 UNK        -0.5029 
     35 CA        -53.3265  -24.7300   15.2212 C.3       10 UNK         0.0280 
     36 CB        -53.2030  -23.3708   15.9406 C.3       10 UNK        -0.1976 
     37 N         -52.0553  -25.4662   15.3022 N.am      10 UNK        -0.4242 
     38 C         -51.5418  -26.0737   16.3847 C.2       10 UNK         0.5072 
     39 O         -52.0421  -26.0411   17.5097 O.2       10 UNK        -0.5224 
     40 CA        -50.2560  -26.8778   16.1656 C.3       9 UNK         0.0343 
     41 CB        -50.5183  -28.1287   15.3083 C.3       9 UNK        -0.2003 
     42 N         -49.2041  -26.0603   15.5608 N.am      9 UNK        -0.4272 
     43 C         -48.3791  -25.2799   16.2724 C.2       9 UNK         0.4988 
     44 O         -48.4611  -25.1267   17.4923 O.2       9 UNK        -0.5108 
     45 CA        -47.2322  -24.5946   15.5165 C.3       8 UNK         0.0248 
     46 CB        -46.1466  -25.6195   15.1479 C.3       8 UNK        -0.2001 
     47 N         -47.6599  -23.8650   14.3215 N.am      8 UNK        -0.4140 
     48 C         -48.3206  -22.6986   14.3501 C.2       8 UNK         0.5028 
     49 O         -48.7086  -22.1555   15.3855 O.2       8 UNK        -0.5428 
     50 CA        -48.5556  -21.9905   13.0037 C.3       7 UNK         0.0264 
     51 CB        -47.2639  -21.3200   12.5075 C.3       7 UNK        -0.1988 
     52 N         -49.0740  -22.8758   11.9621 N.am      7 UNK        -0.4454 
     53 C         -50.2952  -23.4300   11.9800 C.2       7 UNK         0.5027 
     54 O         -51.1234  -23.2379   12.8713 O.2       7 UNK        -0.5083 
     55 CA        -50.6316  -24.3975   10.8234 C.3       6 UNK         0.0844 
     56 C56       -50.9544  -23.6466    9.5031 C.3       14 UNK        -0.0967 
     57 S57       -52.4166  -22.5533    9.6057 S.3       14 UNK        -0.2604 
     58 C58       -53.5270  -23.2496    8.3333 C.3       14 UNK         0.0134 
     59 N         -49.5731  -25.3939   10.6265 N.am      6 UNK        -0.4116 
     60 C         -49.0627  -26.2007   11.5705 C.2       5 UNK         0.5034 
     61 O         -49.4679  -26.2634   12.7310 O.2       5 UNK        -0.5045 
     62 CA        -47.8403  -27.0371   11.1661 C.3       5 UNK         0.0224 
     63 CB        -48.2593  -28.2879   10.3742 C.3       5 UNK        -0.1978 
     64 N         -46.8706  -26.2470   10.4007 N.am      5 UNK        -0.4737 
     65 C         -46.1575  -25.2315   10.9114 C.2       4 UNK         0.5027 
     66 O         -46.2174  -24.8786   12.0865 O.2       4 UNK        -0.5211 
     67 CA        -45.2625  -24.4456    9.9403 C.3       4 UNK         0.0297 
     68 CB        -43.9362  -25.1853    9.7054 C.3       4 UNK        -0.1993 
     69 N         -45.9206  -24.1902    8.6587 N.am      4 UNK        -0.4486 
     70 C         -47.0200  -23.4379    8.5046 C.2       3 UNK         0.4961 
     71 O         -47.5557  -22.8102    9.4181 O.2       3 UNK        -0.5105 
     72 CA        -47.6602  -23.4397    7.1040 C.3       3 UNK         0.0299 
     73 CB        -47.0326  -22.3501    6.2210 C.3       3 UNK        -0.1972 
     74 N         -47.5572  -24.7428    6.4344 N.am      3 UNK        -0.4305 
     75 C         -48.1149  -25.8714    6.8942 C.2       2 UNK         0.5006 
     76 O         -48.8156  -25.9235    7.9081 O.2       2 UNK        -0.5106 
     77 CA        -47.7514  -27.1646    6.1535 C.3       2 UNK         0.0296 
     78 CB        -46.4129  -27.7163    6.6742 C.3       2 UNK        -0.2002 
     79 N         -48.7855  -28.1747    6.3661 N.am      2 UNK        -0.4032 
     80 C         -49.8415  -28.3708    5.5666 C.2       1 UNK         0.5000 
     81 O         -50.0055  -27.7722    4.5010 O.2       1 UNK        -0.5238 
     82 H82       -49.2669  -33.3707    7.3604 H         1 UNK         0.0889 
     83 H83       -49.2871  -32.0889    8.5740 H         1 UNK         0.0889 
     84 H84       -47.8405  -32.3576    7.6027 H         1 UNK         0.0889 
     85 H85       -50.6185  -30.4330    7.8697 H         1 UNK         0.3028 
     86 H86       -51.2180  -29.9429    5.1214 H         1 UNK         0.0864 
     87 H87       -52.6792  -29.5108    7.2446 H         1 UNK         0.0720 
     88 H88       -51.8123  -28.0094    7.4212 H         1 UNK         0.0720 
     89 H89       -55.1162  -28.7722    6.7974 H         1 UNK         0.0814 
     90 H90       -55.5347  -27.3652    5.8527 H         1 UNK         0.0814 
     91 H91       -54.0209  -25.1691    6.4788 H         1 UNK         0.1469 
     92 H92       -54.0005  -24.5529   10.7274 H         1 UNK         0.1381 
     93 H93       -54.9468  -28.4078    9.1272 H         1 UNK         0.1206 
     94 H94       -55.3391  -26.4279   12.0327 H         1 UNK         0.0813 
     95 H95       -55.0865  -28.0615   11.4868 H         1 UNK         0.0813 
     96 H96       -51.8714  -27.9002   10.4572 H         1 UNK         0.0638 
     97 H97       -51.1027  -28.3830   11.9455 H         1 UNK         0.0638 
     98 H98       -53.5314  -29.6460   10.6276 H         1 UNK         0.0568 
     99 H99       -51.7642  -32.0691   12.1818 H         1 UNK         0.3450 
    100 H100      -50.7385  -32.4820   10.8322 H         1 UNK         0.3450 
    101 H101      -52.9235  -29.7177   13.4396 H         1 UNK         0.2987 
    102 H102      -55.8564  -31.6142   14.0568 H         1 UNK         0.0766 
    103 H103      -54.4767  -32.6245   15.8466 H         1 UNK         0.0798 
    104 H104      -52.9938  -32.0957   15.0512 H         1 UNK         0.0798 
    105 H105      -54.0238  -33.3025   14.2935 H         1 UNK         0.0798 
    106 H106      -54.2705  -30.0857   15.8300 H         1 UNK         0.3198 
    107 H107      -56.5102  -27.3922   15.8316 H         1 UNK         0.0843 
    108 H108      -54.1245  -28.6587   17.3011 H         1 UNK         0.0831 
    109 H109      -55.8055  -29.1417   17.5444 H         1 UNK         0.0831 
    110 H110      -55.2895  -27.5165   17.9468 H         1 UNK         0.0831 
    111 H111      -53.8498  -27.1716   14.6932 H         1 UNK         0.3133 
    112 H112      -53.4956  -24.5272   14.1626 H         1 UNK         0.0566 
    113 H113      -52.3575  -22.7988   15.5574 H         1 UNK         0.0814 
    114 H114      -54.0974  -22.7651   15.7912 H         1 UNK         0.0814 
    115 H115      -53.0662  -23.4935   17.0155 H         1 UNK         0.0814 
    116 H116      -51.5453  -25.5457   14.4315 H         1 UNK         0.3091 
    117 H117      -49.9144  -27.2274   17.1427 H         1 UNK         0.0702 
    118 H118      -51.2859  -28.7573   15.7613 H         1 UNK         0.0785 
    119 H119      -50.8547  -27.8740   14.3048 H         1 UNK         0.0785 
    120 H120      -49.6179  -28.7353   15.2113 H         1 UNK         0.0785 
    121 H121      -49.1146  -26.1009   14.5473 H         1 UNK         0.2998 
    122 H122      -46.7788  -23.8720   16.1986 H         1 UNK         0.0697 
    123 H123      -46.5117  -26.3559   14.4310 H         1 UNK         0.0825 
    124 H124      -45.8047  -26.1630   16.0297 H         1 UNK         0.0825 
    125 H125      -45.2749  -25.1323   14.7106 H         1 UNK         0.0825 
    126 H126      -47.3291  -24.2257   13.4285 H         1 UNK         0.3029 
    127 H127      -49.2982  -21.2072   13.1712 H         1 UNK         0.0897 
    128 H128      -47.4431  -20.7361   11.6044 H         1 UNK         0.0792 
    129 H129      -46.4887  -22.0530   12.2805 H         1 UNK         0.0792 
    130 H130      -46.8619  -20.6400   13.2598 H         1 UNK         0.0792 
    131 H131      -48.4666  -23.0522   11.1664 H         1 UNK         0.3086 
    132 H132      -51.5213  -24.9543   11.1172 H         1 UNK         0.0583 
    133 H133      -50.1085  -23.0358    9.1906 H         1 UNK         0.1020 
    134 H134      -51.1067  -24.3700    8.7001 H         1 UNK         0.1020 
    135 H135      -54.4268  -22.6352    8.2840 H         1 UNK         0.0694 
    136 H136      -53.0343  -23.1561    7.3641 H         1 UNK         0.0694 
    137 H137      -49.1913  -25.4642    9.6865 H         1 UNK         0.2989 
    138 H138      -47.3493  -27.3675   12.0844 H         1 UNK         0.1055 
    139 H139      -48.8915  -28.9357   10.9824 H         1 UNK         0.0806 
    140 H140      -47.3938  -28.8780   10.0732 H         1 UNK         0.0806 
    141 H141      -48.8269  -28.0372    9.4785 H         1 UNK         0.0806 
    142 H142      -46.8063  -26.4324    9.4117 H         1 UNK         0.3061 
    143 H143      -45.0399  -23.4806   10.4012 H         1 UNK         0.0734 
    144 H144      -43.2596  -24.5995    9.0830 H         1 UNK         0.0832 
    145 H145      -43.4236  -25.3718   10.6502 H         1 UNK         0.0832 
    146 H146      -44.0877  -26.1512    9.2216 H         1 UNK         0.0832 
    147 H147      -45.5405  -24.6535    7.8469 H         1 UNK         0.3156 
    148 H148      -48.7209  -23.2108    7.2222 H         1 UNK         0.0589 
    149 H149      -47.1179  -21.3703    6.6935 H         1 UNK         0.0808 
    150 H150      -45.9726  -22.5329    6.0402 H         1 UNK         0.0808 
    151 H151      -47.5328  -22.2852    5.2545 H         1 UNK         0.0808 
    152 H152      -46.9946  -24.7811    5.5960 H         1 UNK         0.3098 
    153 H153      -47.6525  -26.9488    5.0875 H         1 UNK         0.0720 
    154 H154      -45.6028  -27.0026    6.5196 H         1 UNK         0.0791 
    155 H155      -46.1361  -28.6315    6.1501 H         1 UNK         0.0791 
    156 H156      -46.4509  -27.9446    7.7398 H         1 UNK         0.0791 
    157 H157      -48.7524  -28.6831    7.2365 H         1 UNK         0.3028 
@<TRIPOS>BOND
     1    1    2 1    
     2    1   82 1    
     3    1   83 1    
     4    1   84 1    
     5    2    3 2    
     6    2    4 am   BACKBONE|DICT|INTERRES
     7    4    5 1    
     8    4   85 1    
     9    5    6 1    
    10    5   80 1    
    11    5   86 1    
    12    6    7 1    
    13    6   87 1    
    14    6   88 1    
    15    7    8 1    
    16    8    9 1    
    17    8   89 1    
    18    8   90 1    
    19    9   10 ar   
    20    9   14 ar   
    21   10   11 ar   
    22   10   91 1    
    23   11   12 ar   
    24   11   58 1    
    25   12   13 ar   
    26   12   92 1    
    27   13   14 ar   
    28   13   15 1    
    29   14   93 1    
    30   15   16 1    
    31   15   94 1    
    32   15   95 1    
    33   16   17 1    
    34   17   18 1    
    35   17   96 1    
    36   17   97 1    
    37   18   19 1    
    38   18   22 1    
    39   18   98 1    
    40   19   20 am   BACKBONE|DICT|INTERRES
    41   19   21 2    
    42   20   99 1    
    43   20  100 1    
    44   22   23 am   BACKBONE|DICT|INTERRES
    45   22  101 1    
    46   23   24 2    
    47   23   25 1    
    48   25   26 1    
    49   25   27 1    
    50   25  102 1    
    51   26  103 1    
    52   26  104 1    
    53   26  105 1    
    54   27   28 am   BACKBONE|DICT|INTERRES
    55   27  106 1    
    56   28   29 2    
    57   28   30 1    
    58   30   31 1    
    59   30   32 1    
    60   30  107 1    
    61   31  108 1    
    62   31  109 1    
    63   31  110 1    
    64   32   33 am   BACKBONE|DICT|INTERRES
    65   32  111 1    
    66   33   34 2    
    67   33   35 1    
    68   35   36 1    
    69   35   37 1    
    70   35  112 1    
    71   36  113 1    
    72   36  114 1    
    73   36  115 1    
    74   37   38 am   BACKBONE|DICT|INTERRES
    75   37  116 1    
    76   38   39 2    
    77   38   40 1    
    78   40   41 1    
    79   40   42 1    
    80   40  117 1    
    81   41  118 1    
    82   41  119 1    
    83   41  120 1    
    84   42   43 am   BACKBONE|DICT|INTERRES
    85   42  121 1    
    86   43   44 2    
    87   43   45 1    
    88   45   46 1    
    89   45   47 1    
    90   45  122 1    
    91   46  123 1    
    92   46  124 1    
    93   46  125 1    
    94   47   48 am   BACKBONE|DICT|INTERRES
    95   47  126 1    
    96   48   49 2    
    97   48   50 1    
    98   50   51 1    
    99   50   52 1    
   100   50  127 1    
   101   51  128 1    
   102   51  129 1    
   103   51  130 1    
   104   52   53 am   BACKBONE|DICT|INTERRES
   105   52  131 1    
   106   53   54 2    
   107   53   55 1    
   108   55   56 1    
   109   55   59 1    
   110   55  132 1    
   111   56   57 1    
   112   56  133 1    
   113   56  134 1    
   114   57   58 1    
   115   58  135 1    
   116   58  136 1    
   117   59   60 am   BACKBONE|DICT|INTERRES
   118   59  137 1    
   119   60   61 2    
   120   60   62 1    
   121   62   63 1    
   122   62   64 1    
   123   62  138 1    
   124   63  139 1    
   125   63  140 1    
   126   63  141 1    
   127   64   65 am   BACKBONE|DICT|INTERRES
   128   64  142 1    
   129   65   66 2    
   130   65   67 1    
   131   67   68 1    
   132   67   69 1    
   133   67  143 1    
   134   68  144 1    
   135   68  145 1    
   136   68  146 1    
   137   69   70 am   BACKBONE|DICT|INTERRES
   138   69  147 1    
   139   70   71 2    
   140   70   72 1    
   141   72   73 1    
   142   72   74 1    
   143   72  148 1    
   144   73  149 1    
   145   73  150 1    
   146   73  151 1    
   147   74   75 am   BACKBONE|DICT|INTERRES
   148   74  152 1    
   149   75   76 2    
   150   75   77 1    
   151   77   78 1    
   152   77   79 1    
   153   77  153 1    
   154   78  154 1    
   155   78  155 1    
   156   78  156 1    
   157   79   80 am   BACKBONE|DICT|INTERRES
   158   79  157 1    
   159   80   81 2    
@<TRIPOS>SUBSTRUCTURE
     1 UNK         1 GROUP             0       ****    0 ROOT    
