@<TRIPOS>MOLECULE
3R207
157   159    1
SMALL
USER_CHARGES


@<TRIPOS>ATOM
      1 CA        -52.6090  -24.8776    8.1122 C.3       0 UNK        -0.1975 
      2 C         -51.4538  -25.6756    7.5278 C.2       0 UNK         0.4852 
      3 O         -50.3612  -25.6654    8.0898 O.2       0 UNK        -0.5216 
      4 N         -51.6770  -26.3501    6.3913 N.am      1 UNK        -0.4461 
      5 CA        -50.7390  -27.2845    5.7460 C.3       1 UNK         0.0864 
      6 C6        -51.4447  -28.0840    4.6129 C.3       14 UNK        -0.0898 
      7 S7        -50.9358  -29.8367    4.5789 S.3       14 UNK        -0.2598 
      8 C8        -52.3306  -30.6498    5.4263 C.3       14 UNK         0.0286 
      9 C9        -52.5068  -30.1432    6.8511 C.ar      14 UNK        -0.0844 
     10 C10       -51.6031  -30.5195    7.8489 C.ar      14 UNK        -0.0881 
     11 C11       -51.7440  -30.0359    9.1528 C.ar      14 UNK        -0.0643 
     12 C12       -52.8111  -29.1850    9.4602 C.ar      14 UNK        -0.0930 
     13 C13       -53.7231  -28.8044    8.4713 C.ar      14 UNK        -0.0827 
     14 C14       -53.5664  -29.2885    7.1697 C.ar      14 UNK        -0.1249 
     15 C15       -54.8656  -27.8521    8.7947 C.3       14 UNK         0.0141 
     16 S16       -56.4493  -28.7305    8.9746 S.3       14 UNK        -0.2313 
     17 C17       -56.2743  -29.4859   10.6254 C.3       14 UNK        -0.0915 
     18 CA        -57.2196  -28.8404   11.6729 C.3       13 UNK         0.0968 
     19 C         -58.6679  -29.3955   11.5526 C.2       13 UNK         0.5732 
     20 N         -59.5512  -28.6929   10.8562 N.am      13 UNK        -0.7310 
     21 O         -58.9840  -30.4721   12.0571 O.2       13 UNK        -0.5035 
     22 N         -56.6594  -28.9925   13.0209 N.am      13 UNK        -0.4233 
     23 C         -57.1721  -28.5062   14.1550 C.2       13 UNK         0.4989 
     24 O         -58.1587  -27.7706   14.2058 O.2       13 UNK        -0.4996 
     25 CA        -56.4635  -28.9010   15.4633 C.3       12 UNK         0.0216 
     26 CB        -56.7507  -30.3711   15.8279 C.3       12 UNK        -0.1964 
     27 N         -55.0222  -28.6128   15.5011 N.am      12 UNK        -0.4276 
     28 C         -54.0224  -29.1138   14.7633 C.2       12 UNK         0.5020 
     29 O         -54.1872  -29.9263   13.8501 O.2       12 UNK        -0.5489 
     30 CA        -52.5994  -28.6235   15.1124 C.3       11 UNK         0.0294 
     31 CB        -51.5287  -29.2401   14.1956 C.3       11 UNK        -0.2019 
     32 N         -52.4475  -27.1631   15.0914 N.am      11 UNK        -0.4493 
     33 C         -52.9387  -26.3065   15.9974 C.2       11 UNK         0.4932 
     34 O         -53.6582  -26.6478   16.9391 O.2       11 UNK        -0.5029 
     35 CA        -52.5324  -24.8325   15.8234 C.3       10 UNK         0.0280 
     36 CB        -53.1759  -23.8969   16.8684 C.3       10 UNK        -0.1976 
     37 N         -51.0754  -24.6672   15.8037 N.am      10 UNK        -0.4242 
     38 C         -50.1946  -25.0150   16.7578 C.2       10 UNK         0.5072 
     39 O         -50.5087  -25.5009   17.8452 O.2       10 UNK        -0.5224 
     40 CA        -48.6973  -24.8033   16.4558 C.3       9 UNK         0.0343 
     41 CB        -48.0468  -26.1432   16.0843 C.3       9 UNK        -0.2003 
     42 N         -48.4392  -23.8428   15.3821 N.am      9 UNK        -0.4272 
     43 C         -48.6808  -22.5270   15.4516 C.2       9 UNK         0.4988 
     44 O         -49.0506  -21.9465   16.4726 O.2       9 UNK        -0.5108 
     45 CA        -48.5278  -21.7345   14.1438 C.3       8 UNK         0.0248 
     46 CB        -47.0962  -21.1954   13.9898 C.3       8 UNK        -0.2001 
     47 N         -48.9016  -22.5162   12.9585 N.am      8 UNK        -0.4140 
     48 C         -50.1497  -22.9182   12.6789 C.2       8 UNK         0.5028 
     49 O         -51.1152  -22.7167   13.4148 O.2       8 UNK        -0.5428 
     50 CA        -50.3555  -23.6639   11.3539 C.3       7 UNK         0.0264 
     51 CB        -49.9117  -22.7997   10.1590 C.3       7 UNK        -0.1988 
     52 N         -49.6747  -24.9581   11.3047 N.am      7 UNK        -0.4454 
     53 C         -49.9969  -26.0392   12.0309 C.2       7 UNK         0.5027 
     54 O         -50.8486  -26.0432   12.9222 O.2       7 UNK        -0.5083 
     55 CA        -49.2530  -27.3454   11.6967 C.3       6 UNK         0.0844 
     56 C56       -49.5900  -27.8388   10.2712 C.3       14 UNK        -0.0967 
     57 S57       -49.1347  -29.5849   10.0118 S.3       14 UNK        -0.2604 
     58 C58       -50.7373  -30.4279   10.2258 C.3       14 UNK         0.0134 
     59 N         -47.8206  -27.1366   11.8676 N.am      6 UNK        -0.4116 
     60 C         -47.0650  -27.6698   12.8344 C.2       5 UNK         0.5034 
     61 O         -47.4749  -28.4887   13.6573 O.2       5 UNK        -0.5045 
     62 CA        -45.5932  -27.2149   12.9102 C.3       5 UNK         0.0224 
     63 CB        -44.6570  -28.3522   12.4689 C.3       5 UNK        -0.1978 
     64 N         -45.2888  -26.0182   12.1175 N.am      5 UNK        -0.4737 
     65 C         -45.7937  -24.7956   12.3318 C.2       4 UNK         0.5027 
     66 O         -46.5576  -24.5222   13.2562 O.2       4 UNK        -0.5211 
     67 CA        -45.4518  -23.7188   11.2878 C.3       4 UNK         0.0297 
     68 CB        -44.1685  -22.9736   11.6851 C.3       4 UNK        -0.1993 
     69 N         -45.3147  -24.2497    9.9247 N.am      4 UNK        -0.4486 
     70 C         -46.2924  -24.8578    9.2389 C.2       3 UNK         0.4961 
     71 O         -47.4212  -25.0626    9.6879 O.2       3 UNK        -0.5105 
     72 CA        -45.9400  -25.3777    7.8463 C.3       3 UNK         0.0299 
     73 CB        -45.6849  -26.8945    7.8884 C.3       3 UNK        -0.1972 
     74 N         -47.0490  -25.0923    6.9388 N.am      3 UNK        -0.4305 
     75 C         -46.9086  -24.7528    5.6499 C.2       2 UNK         0.5006 
     76 O         -45.8129  -24.6467    5.0942 O.2       2 UNK        -0.5106 
     77 CA        -48.1975  -24.4748    4.8441 C.3       2 UNK         0.0296 
     78 CB        -47.9769  -24.5520    3.3177 C.3       2 UNK        -0.2002 
     79 N         -49.3396  -25.3095    5.2356 N.am      2 UNK        -0.4032 
     80 C         -49.4127  -26.6508    5.2531 C.2       1 UNK         0.5000 
     81 O         -48.4896  -27.3873    4.9004 O.2       1 UNK        -0.5238 
     82 H82       -53.5297  -25.0172    7.5459 H         1 UNK         0.0889 
     83 H83       -52.3688  -23.8148    8.1145 H         1 UNK         0.0889 
     84 H84       -52.7912  -25.1883    9.1411 H         1 UNK         0.0889 
     85 H85       -52.5892  -26.2915    5.9622 H         1 UNK         0.3028 
     86 H86       -50.4513  -27.9824    6.5361 H         1 UNK         0.0864 
     87 H87       -52.5289  -28.0552    4.7285 H         1 UNK         0.0720 
     88 H88       -51.2570  -27.6441    3.6313 H         1 UNK         0.0720 
     89 H89       -52.1552  -31.7264    5.4445 H         1 UNK         0.0814 
     90 H90       -53.2421  -30.5004    4.8454 H         1 UNK         0.0814 
     91 H91       -50.7751  -31.1716    7.6057 H         1 UNK         0.1469 
     92 H92       -52.9231  -28.8090   10.4680 H         1 UNK         0.1381 
     93 H93       -54.2693  -28.9923    6.4031 H         1 UNK         0.1206 
     94 H94       -54.9633  -27.1223    7.9901 H         1 UNK         0.0813 
     95 H95       -54.6556  -27.2796    9.6996 H         1 UNK         0.0813 
     96 H96       -55.2366  -29.3805   10.9432 H         1 UNK         0.0638 
     97 H97       -56.4426  -30.5617   10.5447 H         1 UNK         0.0638 
     98 H98       -57.2522  -27.7639   11.4929 H         1 UNK         0.0568 
     99 H99       -60.4905  -29.0446   10.7578 H         1 UNK         0.3450 
    100 H100      -59.2918  -27.8232   10.4173 H         1 UNK         0.3450 
    101 H101      -55.8146  -29.5537   13.1063 H         1 UNK         0.2987 
    102 H102      -56.9013  -28.2833   16.2493 H         1 UNK         0.0766 
    103 H103      -56.3442  -30.6221   16.8077 H         1 UNK         0.0798 
    104 H104      -56.3252  -31.0648   15.1021 H         1 UNK         0.0798 
    105 H105      -57.8244  -30.5604   15.8645 H         1 UNK         0.0798 
    106 H106      -54.7409  -27.9116   16.1861 H         1 UNK         0.3198 
    107 H107      -52.3943  -28.9655   16.1291 H         1 UNK         0.0843 
    108 H108      -51.6796  -28.9383   13.1592 H         1 UNK         0.0831 
    109 H109      -51.5614  -30.3300   14.2274 H         1 UNK         0.0831 
    110 H110      -50.5247  -28.9392   14.4964 H         1 UNK         0.0831 
    111 H111      -51.8861  -26.7786   14.3332 H         1 UNK         0.3133 
    112 H112      -52.8896  -24.5248   14.8395 H         1 UNK         0.0566 
    113 H113      -52.8802  -24.1568   17.8853 H         1 UNK         0.0814 
    114 H114      -52.8956  -22.8582   16.6930 H         1 UNK         0.0814 
    115 H115      -54.2641  -23.9519   16.8225 H         1 UNK         0.0814 
    116 H116      -50.7116  -24.2685   14.9462 H         1 UNK         0.3091 
    117 H117      -48.2237  -24.4276   17.3651 H         1 UNK         0.0702 
    118 H118      -46.9851  -26.0278   15.8656 H         1 UNK         0.0785 
    119 H119      -48.5278  -26.5829   15.2103 H         1 UNK         0.0785 
    120 H120      -48.1360  -26.8620   16.8998 H         1 UNK         0.0785 
    121 H121      -48.0333  -24.2062   14.5240 H         1 UNK         0.2998 
    122 H122      -49.2044  -20.8789   14.1992 H         1 UNK         0.0697 
    123 H123      -46.3582  -21.9968   13.9734 H         1 UNK         0.0825 
    124 H124      -46.8394  -20.5397   14.8228 H         1 UNK         0.0825 
    125 H125      -46.9841  -20.6136   13.0748 H         1 UNK         0.0825 
    126 H126      -48.1566  -22.7838   12.3334 H         1 UNK         0.3029 
    127 H127      -51.4262  -23.8522   11.2493 H         1 UNK         0.0897 
    128 H128      -50.3973  -21.8231   10.1794 H         1 UNK         0.0792 
    129 H129      -50.1740  -23.2684    9.2119 H         1 UNK         0.0792 
    130 H130      -48.8344  -22.6310   10.1499 H         1 UNK         0.0792 
    131 H131      -48.9458  -25.0455   10.5967 H         1 UNK         0.3086 
    132 H132      -49.6063  -28.0966   12.4029 H         1 UNK         0.0583 
    133 H133      -50.6453  -27.6941   10.0425 H         1 UNK         0.1020 
    134 H134      -49.0480  -27.2514    9.5295 H         1 UNK         0.1020 
    135 H135      -50.5745  -31.5059   10.1886 H         1 UNK         0.0694 
    136 H136      -51.1272  -30.2146   11.2214 H         1 UNK         0.0694 
    137 H137      -47.3978  -26.4598   11.2447 H         1 UNK         0.2989 
    138 H138      -45.3873  -26.9822   13.9573 H         1 UNK         0.1055 
    139 H139      -44.8267  -29.2513   13.0633 H         1 UNK         0.0806 
    140 H140      -43.6095  -28.0776   12.5950 H         1 UNK         0.0806 
    141 H141      -44.8129  -28.6200   11.4229 H         1 UNK         0.0806 
    142 H142      -44.6763  -26.1437   11.3246 H         1 UNK         0.3061 
    143 H143      -46.2727  -22.9994   11.2783 H         1 UNK         0.0734 
    144 H144      -44.2513  -22.5603   12.6914 H         1 UNK         0.0832 
    145 H145      -43.9683  -22.1399   11.0118 H         1 UNK         0.0832 
    146 H146      -43.2982  -23.6310   11.6755 H         1 UNK         0.0832 
    147 H147      -44.4133  -24.1331    9.4828 H         1 UNK         0.3156 
    148 H148      -45.0348  -24.8702    7.5059 H         1 UNK         0.0589 
    149 H149      -44.8628  -27.1378    8.5625 H         1 UNK         0.0808 
    150 H150      -46.5647  -27.4413    8.2322 H         1 UNK         0.0808 
    151 H151      -45.4208  -27.2776    6.9025 H         1 UNK         0.0808 
    152 H152      -47.9725  -25.1339    7.3564 H         1 UNK         0.3098 
    153 H153      -48.4788  -23.4481    5.0825 H         1 UNK         0.0720 
    154 H154      -48.8927  -24.3248    2.7720 H         1 UNK         0.0791 
    155 H155      -47.6395  -25.5421    3.0089 H         1 UNK         0.0791 
    156 H156      -47.2226  -23.8345    2.9919 H         1 UNK         0.0791 
    157 H157      -50.1482  -24.8103    5.5786 H         1 UNK         0.3028 
@<TRIPOS>BOND
     1    1    2 1    
     2    1   82 1    
     3    1   83 1    
     4    1   84 1    
     5    2    3 2    
     6    2    4 am   BACKBONE|DICT|INTERRES
     7    4    5 1    
     8    4   85 1    
     9    5    6 1    
    10    5   80 1    
    11    5   86 1    
    12    6    7 1    
    13    6   87 1    
    14    6   88 1    
    15    7    8 1    
    16    8    9 1    
    17    8   89 1    
    18    8   90 1    
    19    9   10 ar   
    20    9   14 ar   
    21   10   11 ar   
    22   10   91 1    
    23   11   12 ar   
    24   11   58 1    
    25   12   13 ar   
    26   12   92 1    
    27   13   14 ar   
    28   13   15 1    
    29   14   93 1    
    30   15   16 1    
    31   15   94 1    
    32   15   95 1    
    33   16   17 1    
    34   17   18 1    
    35   17   96 1    
    36   17   97 1    
    37   18   19 1    
    38   18   22 1    
    39   18   98 1    
    40   19   20 am   BACKBONE|DICT|INTERRES
    41   19   21 2    
    42   20   99 1    
    43   20  100 1    
    44   22   23 am   BACKBONE|DICT|INTERRES
    45   22  101 1    
    46   23   24 2    
    47   23   25 1    
    48   25   26 1    
    49   25   27 1    
    50   25  102 1    
    51   26  103 1    
    52   26  104 1    
    53   26  105 1    
    54   27   28 am   BACKBONE|DICT|INTERRES
    55   27  106 1    
    56   28   29 2    
    57   28   30 1    
    58   30   31 1    
    59   30   32 1    
    60   30  107 1    
    61   31  108 1    
    62   31  109 1    
    63   31  110 1    
    64   32   33 am   BACKBONE|DICT|INTERRES
    65   32  111 1    
    66   33   34 2    
    67   33   35 1    
    68   35   36 1    
    69   35   37 1    
    70   35  112 1    
    71   36  113 1    
    72   36  114 1    
    73   36  115 1    
    74   37   38 am   BACKBONE|DICT|INTERRES
    75   37  116 1    
    76   38   39 2    
    77   38   40 1    
    78   40   41 1    
    79   40   42 1    
    80   40  117 1    
    81   41  118 1    
    82   41  119 1    
    83   41  120 1    
    84   42   43 am   BACKBONE|DICT|INTERRES
    85   42  121 1    
    86   43   44 2    
    87   43   45 1    
    88   45   46 1    
    89   45   47 1    
    90   45  122 1    
    91   46  123 1    
    92   46  124 1    
    93   46  125 1    
    94   47   48 am   BACKBONE|DICT|INTERRES
    95   47  126 1    
    96   48   49 2    
    97   48   50 1    
    98   50   51 1    
    99   50   52 1    
   100   50  127 1    
   101   51  128 1    
   102   51  129 1    
   103   51  130 1    
   104   52   53 am   BACKBONE|DICT|INTERRES
   105   52  131 1    
   106   53   54 2    
   107   53   55 1    
   108   55   56 1    
   109   55   59 1    
   110   55  132 1    
   111   56   57 1    
   112   56  133 1    
   113   56  134 1    
   114   57   58 1    
   115   58  135 1    
   116   58  136 1    
   117   59   60 am   BACKBONE|DICT|INTERRES
   118   59  137 1    
   119   60   61 2    
   120   60   62 1    
   121   62   63 1    
   122   62   64 1    
   123   62  138 1    
   124   63  139 1    
   125   63  140 1    
   126   63  141 1    
   127   64   65 am   BACKBONE|DICT|INTERRES
   128   64  142 1    
   129   65   66 2    
   130   65   67 1    
   131   67   68 1    
   132   67   69 1    
   133   67  143 1    
   134   68  144 1    
   135   68  145 1    
   136   68  146 1    
   137   69   70 am   BACKBONE|DICT|INTERRES
   138   69  147 1    
   139   70   71 2    
   140   70   72 1    
   141   72   73 1    
   142   72   74 1    
   143   72  148 1    
   144   73  149 1    
   145   73  150 1    
   146   73  151 1    
   147   74   75 am   BACKBONE|DICT|INTERRES
   148   74  152 1    
   149   75   76 2    
   150   75   77 1    
   151   77   78 1    
   152   77   79 1    
   153   77  153 1    
   154   78  154 1    
   155   78  155 1    
   156   78  156 1    
   157   79   80 am   BACKBONE|DICT|INTERRES
   158   79  157 1    
   159   80   81 2    
@<TRIPOS>SUBSTRUCTURE
     1 UNK         1 GROUP             0       ****    0 ROOT    
