@<TRIPOS>MOLECULE
3R207
157   159    1
SMALL
USER_CHARGES


@<TRIPOS>ATOM
      1 CA        -49.8260  -28.0388    9.2351 C.3       0 UNK        -0.1975 
      2 C         -49.3255  -28.1709    7.8064 C.2       0 UNK         0.4852 
      3 O         -48.1362  -28.4211    7.6051 O.2       0 UNK        -0.5216 
      4 N         -50.2183  -28.0199    6.8167 N.am      1 UNK        -0.4461 
      5 CA        -49.9107  -28.1562    5.3881 C.3       1 UNK         0.0864 
      6 C6        -51.1871  -28.1758    4.5062 C.3       14 UNK        -0.0898 
      7 S7        -52.1723  -26.6355    4.5387 S.3       14 UNK        -0.2598 
      8 C8        -53.7862  -27.2185    5.1480 C.3       14 UNK         0.0286 
      9 C9        -53.7326  -27.5998    6.6190 C.ar      14 UNK        -0.0844 
     10 C10       -53.5866  -26.6073    7.5918 C.ar      14 UNK        -0.0881 
     11 C11       -53.5198  -26.9429    8.9470 C.ar      14 UNK        -0.0643 
     12 C12       -53.6354  -28.2833    9.3272 C.ar      14 UNK        -0.0930 
     13 C13       -53.7997  -29.2839    8.3638 C.ar      14 UNK        -0.0827 
     14 C14       -53.8383  -28.9375    7.0104 C.ar      14 UNK        -0.1249 
     15 C15       -53.9358  -30.7380    8.7856 C.3       14 UNK         0.0141 
     16 S16       -55.6878  -31.2340    8.8457 S.3       14 UNK        -0.2313 
     17 C17       -55.6820  -32.4484   10.2099 C.3       14 UNK        -0.0915 
     18 CA        -56.3498  -31.9034   11.5026 C.3       13 UNK         0.0968 
     19 C         -56.3766  -32.9944   12.6131 C.2       13 UNK         0.5732 
     20 N         -55.6882  -32.8224   13.7353 N.am      13 UNK        -0.7310 
     21 O         -57.0405  -34.0159   12.4525 O.2       13 UNK        -0.5035 
     22 N         -55.7729  -30.6098   11.9059 N.am      13 UNK        -0.4233 
     23 C         -56.3398  -29.7369   12.7444 C.2       13 UNK         0.4989 
     24 O         -57.4067  -29.9260   13.3339 O.2       13 UNK        -0.4996 
     25 CA        -55.6017  -28.4069   12.9241 C.3       12 UNK         0.0216 
     26 CB        -56.1702  -27.3389   11.9736 C.3       12 UNK        -0.1964 
     27 N         -55.7605  -27.9588   14.3052 N.am      12 UNK        -0.4276 
     28 C         -54.7565  -27.5957   15.1082 C.2       12 UNK         0.5020 
     29 O         -53.5735  -27.5661   14.7581 O.2       12 UNK        -0.5489 
     30 CA        -55.1369  -27.2460   16.5571 C.3       11 UNK         0.0294 
     31 CB        -55.2793  -28.5242   17.3998 C.3       11 UNK        -0.2019 
     32 N         -54.1101  -26.3991   17.1598 N.am      11 UNK        -0.4493 
     33 C         -53.9805  -25.0839   16.9586 C.2       11 UNK         0.4932 
     34 O         -54.8297  -24.3911   16.3965 O.2       11 UNK        -0.5029 
     35 CA        -52.6721  -24.4320   17.4409 C.3       10 UNK         0.0280 
     36 CB        -52.6646  -24.2222   18.9678 C.3       10 UNK        -0.1976 
     37 N         -51.4647  -25.1265   16.9699 N.am      10 UNK        -0.4242 
     38 C         -51.0002  -26.3397   17.3080 C.2       10 UNK         0.5072 
     39 O         -51.5355  -27.0749   18.1398 O.2       10 UNK        -0.5224 
     40 CA        -49.7380  -26.8365   16.5823 C.3       9 UNK         0.0343 
     41 CB        -50.1206  -27.6004   15.3048 C.3       9 UNK        -0.2003 
     42 N         -48.7952  -25.7706   16.2397 N.am      9 UNK        -0.4272 
     43 C         -48.0801  -25.0626   17.1259 C.2       9 UNK         0.4988 
     44 O         -48.1379  -25.2250   18.3452 O.2       9 UNK        -0.5108 
     45 CA        -47.1375  -23.9944   16.5527 C.3       8 UNK         0.0248 
     46 CB        -45.8268  -24.6318   16.0612 C.3       8 UNK        -0.2001 
     47 N         -47.7707  -23.2638   15.4544 N.am      8 UNK        -0.4140 
     48 C         -48.5462  -22.1826   15.6141 C.2       8 UNK         0.5028 
     49 O         -48.7515  -21.6401   16.7005 O.2       8 UNK        -0.5428 
     50 CA        -49.2119  -21.6022   14.3525 C.3       7 UNK         0.0264 
     51 CB        -48.3295  -20.5051   13.7355 C.3       7 UNK        -0.1988 
     52 N         -49.5178  -22.6059   13.3293 N.am      7 UNK        -0.4454 
     53 C         -50.4219  -23.5872   13.4695 C.2       7 UNK         0.5027 
     54 O         -51.0977  -23.7527   14.4841 O.2       7 UNK        -0.5083 
     55 CA        -50.5679  -24.5716   12.2911 C.3       6 UNK         0.0844 
     56 C56       -51.5779  -24.0088   11.2575 C.3       14 UNK        -0.0967 
     57 S57       -51.7018  -25.0349    9.7544 S.3       14 UNK        -0.2604 
     58 C58       -53.3053  -25.8590    9.9937 C.3       14 UNK         0.0134 
     59 N         -49.2869  -24.9279   11.6688 N.am      6 UNK        -0.4116 
     60 C         -48.1766  -25.3734   12.2723 C.2       5 UNK         0.5034 
     61 O         -48.0691  -25.5052   13.4916 O.2       5 UNK        -0.5045 
     62 CA        -46.9724  -25.7245   11.3772 C.3       5 UNK         0.0224 
     63 CB        -46.6371  -27.2214   11.4839 C.3       5 UNK        -0.1978 
     64 N         -47.1307  -25.3731    9.9598 N.am      5 UNK        -0.4737 
     65 C         -47.1630  -24.1265    9.4667 C.2       4 UNK         0.5027 
     66 O         -47.1344  -23.1192   10.1752 O.2       4 UNK        -0.5211 
     67 CA        -47.2681  -23.9962    7.9334 C.3       4 UNK         0.0297 
     68 CB        -46.8147  -22.6140    7.4188 C.3       4 UNK        -0.1993 
     69 N         -46.5837  -25.0738    7.2055 N.am      4 UNK        -0.4486 
     70 C         -45.2763  -25.3861    7.2545 C.2       3 UNK         0.4961 
     71 O         -44.4509  -24.7828    7.9407 O.2       3 UNK        -0.5105 
     72 CA        -44.7942  -26.5818    6.4101 C.3       3 UNK         0.0299 
     73 CB        -44.5472  -27.8061    7.3072 C.3       3 UNK        -0.1972 
     74 N         -45.7233  -26.9489    5.3395 N.am      3 UNK        -0.4305 
     75 C         -45.9060  -26.2410    4.2147 C.2       2 UNK         0.5006 
     76 O         -45.2352  -25.2524    3.9154 O.2       2 UNK        -0.5106 
     77 CA        -47.0342  -26.6913    3.2651 C.3       2 UNK         0.0296 
     78 CB        -46.4508  -27.4527    2.0632 C.3       2 UNK        -0.2002 
     79 N         -48.0788  -27.5114    3.8919 N.am      2 UNK        -0.4032 
     80 C         -48.8744  -27.1190    4.8981 C.2       1 UNK         0.5000 
     81 O         -48.7964  -26.0105    5.4372 O.2       1 UNK        -0.5238 
     82 H82       -49.4825  -28.8814    9.8343 H         1 UNK         0.0889 
     83 H83       -50.9117  -28.0179    9.2801 H         1 UNK         0.0889 
     84 H84       -49.4489  -27.1222    9.6832 H         1 UNK         0.0889 
     85 H85       -51.1746  -27.7704    7.0321 H         1 UNK         0.3028 
     86 H86       -49.4411  -29.1369    5.2831 H         1 UNK         0.0864 
     87 H87       -51.8174  -29.0141    4.8060 H         1 UNK         0.0720 
     88 H88       -50.9224  -28.3783    3.4668 H         1 UNK         0.0720 
     89 H89       -54.1272  -28.0550    4.5358 H         1 UNK         0.0814 
     90 H90       -54.5212  -26.4239    5.0126 H         1 UNK         0.0814 
     91 H91       -53.4983  -25.5715    7.2921 H         1 UNK         0.1469 
     92 H92       -53.5865  -28.5475   10.3736 H         1 UNK         0.1381 
     93 H93       -53.9623  -29.7108    6.2643 H         1 UNK         0.1206 
     94 H94       -53.4623  -30.8849    9.7571 H         1 UNK         0.0813 
     95 H95       -53.4030  -31.3848    8.0869 H         1 UNK         0.0813 
     96 H96       -56.2144  -33.3334    9.8565 H         1 UNK         0.0638 
     97 H97       -54.6603  -32.7758   10.4106 H         1 UNK         0.0638 
     98 H98       -57.3976  -31.7115   11.2631 H         1 UNK         0.0568 
     99 H99       -55.1434  -31.9884   13.8798 H         1 UNK         0.3450 
    100 H100      -55.7189  -33.5362   14.4460 H         1 UNK         0.3450 
    101 H101      -54.8990  -30.3706   11.4661 H         1 UNK         0.2987 
    102 H102      -54.5463  -28.5617   12.6901 H         1 UNK         0.0766 
    103 H103      -56.0698  -27.6445   10.9313 H         1 UNK         0.0798 
    104 H104      -55.6462  -26.3899   12.0870 H         1 UNK         0.0798 
    105 H105      -57.2299  -27.1575   12.1581 H         1 UNK         0.0798 
    106 H106      -56.6964  -28.0441   14.6806 H         1 UNK         0.3198 
    107 H107      -56.0890  -26.7105   16.5558 H         1 UNK         0.0843 
    108 H108      -54.3510  -29.0972   17.4220 H         1 UNK         0.0831 
    109 H109      -56.0559  -29.1767   16.9987 H         1 UNK         0.0831 
    110 H110      -55.5533  -28.2916   18.4290 H         1 UNK         0.0831 
    111 H111      -53.3145  -26.8734   17.5805 H         1 UNK         0.3133 
    112 H112      -52.6277  -23.4437   16.9802 H         1 UNK         0.0566 
    113 H113      -51.7564  -23.7140   19.2921 H         1 UNK         0.0814 
    114 H114      -52.7355  -25.1627   19.5145 H         1 UNK         0.0814 
    115 H115      -53.5098  -23.6061   19.2770 H         1 UNK         0.0814 
    116 H116      -51.0068  -24.6581   16.1922 H         1 UNK         0.3091 
    117 H117      -49.2258  -27.5303   17.2523 H         1 UNK         0.0702 
    118 H118      -49.2426  -28.0133   14.8079 H         1 UNK         0.0785 
    119 H119      -50.6384  -26.9572   14.5927 H         1 UNK         0.0785 
    120 H120      -50.7891  -28.4319   15.5326 H         1 UNK         0.0785 
    121 H121      -48.6340  -25.6087   15.2484 H         1 UNK         0.2998 
    122 H122      -46.8892  -23.2974   17.3563 H         1 UNK         0.0697 
    123 H123      -45.9963  -25.3489   15.2572 H         1 UNK         0.0825 
    124 H124      -45.3263  -25.1642   16.8712 H         1 UNK         0.0825 
    125 H125      -45.1327  -23.8757   15.6941 H         1 UNK         0.0825 
    126 H126      -47.7011  -23.6814   14.5349 H         1 UNK         0.3029 
    127 H127      -50.1547  -21.1472   14.6647 H         1 UNK         0.0897 
    128 H128      -47.3804  -20.9042   13.3751 H         1 UNK         0.0792 
    129 H129      -48.1003  -19.7302   14.4686 H         1 UNK         0.0792 
    130 H130      -48.8290  -20.0177   12.8979 H         1 UNK         0.0792 
    131 H131      -48.9942  -22.5530   12.4659 H         1 UNK         0.3086 
    132 H132      -50.9819  -25.4977   12.6937 H         1 UNK         0.0583 
    133 H133      -52.5663  -23.9007   11.7093 H         1 UNK         0.1020 
    134 H134      -51.2845  -23.0063   10.9385 H         1 UNK         0.1020 
    135 H135      -53.3409  -26.2812   10.9994 H         1 UNK         0.0694 
    136 H136      -54.1090  -25.1242    9.9293 H         1 UNK         0.0694 
    137 H137      -49.2669  -24.8512   10.6631 H         1 UNK         0.2989 
    138 H138      -46.1232  -25.1581   11.7660 H         1 UNK         0.1055 
    139 H139      -47.4466  -27.8474   11.1082 H         1 UNK         0.0806 
    140 H140      -45.7348  -27.4672   10.9235 H         1 UNK         0.0806 
    141 H141      -46.4584  -27.5101   12.5209 H         1 UNK         0.0806 
    142 H142      -47.1477  -26.1392    9.3009 H         1 UNK         0.3061 
    143 H143      -48.3280  -24.1023    7.6962 H         1 UNK         0.0734 
    144 H144      -45.7750  -22.4079    7.6746 H         1 UNK         0.0832 
    145 H145      -46.9151  -22.5421    6.3359 H         1 UNK         0.0832 
    146 H146      -47.4196  -21.8168    7.8527 H         1 UNK         0.0832 
    147 H147      -47.1859  -25.6185    6.5937 H         1 UNK         0.3156 
    148 H148      -43.8424  -26.2985    5.9555 H         1 UNK         0.0589 
    149 H149      -44.1463  -28.6436    6.7360 H         1 UNK         0.0808 
    150 H150      -43.8244  -27.5756    8.0912 H         1 UNK         0.0808 
    151 H151      -45.4616  -28.1406    7.7982 H         1 UNK         0.0808 
    152 H152      -46.3209  -27.7450    5.5128 H         1 UNK         0.3098 
    153 H153      -47.5153  -25.7845    2.8925 H         1 UNK         0.0720 
    154 H154      -45.6925  -26.8565    1.5532 H         1 UNK         0.0791 
    155 H155      -47.2211  -27.6873    1.3282 H         1 UNK         0.0791 
    156 H156      -45.9787  -28.3877    2.3678 H         1 UNK         0.0791 
    157 H157      -48.2041  -28.4380    3.5093 H         1 UNK         0.3028 
@<TRIPOS>BOND
     1    1    2 1    
     2    1   82 1    
     3    1   83 1    
     4    1   84 1    
     5    2    3 2    
     6    2    4 am   BACKBONE|DICT|INTERRES
     7    4    5 1    
     8    4   85 1    
     9    5    6 1    
    10    5   80 1    
    11    5   86 1    
    12    6    7 1    
    13    6   87 1    
    14    6   88 1    
    15    7    8 1    
    16    8    9 1    
    17    8   89 1    
    18    8   90 1    
    19    9   10 ar   
    20    9   14 ar   
    21   10   11 ar   
    22   10   91 1    
    23   11   12 ar   
    24   11   58 1    
    25   12   13 ar   
    26   12   92 1    
    27   13   14 ar   
    28   13   15 1    
    29   14   93 1    
    30   15   16 1    
    31   15   94 1    
    32   15   95 1    
    33   16   17 1    
    34   17   18 1    
    35   17   96 1    
    36   17   97 1    
    37   18   19 1    
    38   18   22 1    
    39   18   98 1    
    40   19   20 am   BACKBONE|DICT|INTERRES
    41   19   21 2    
    42   20   99 1    
    43   20  100 1    
    44   22   23 am   BACKBONE|DICT|INTERRES
    45   22  101 1    
    46   23   24 2    
    47   23   25 1    
    48   25   26 1    
    49   25   27 1    
    50   25  102 1    
    51   26  103 1    
    52   26  104 1    
    53   26  105 1    
    54   27   28 am   BACKBONE|DICT|INTERRES
    55   27  106 1    
    56   28   29 2    
    57   28   30 1    
    58   30   31 1    
    59   30   32 1    
    60   30  107 1    
    61   31  108 1    
    62   31  109 1    
    63   31  110 1    
    64   32   33 am   BACKBONE|DICT|INTERRES
    65   32  111 1    
    66   33   34 2    
    67   33   35 1    
    68   35   36 1    
    69   35   37 1    
    70   35  112 1    
    71   36  113 1    
    72   36  114 1    
    73   36  115 1    
    74   37   38 am   BACKBONE|DICT|INTERRES
    75   37  116 1    
    76   38   39 2    
    77   38   40 1    
    78   40   41 1    
    79   40   42 1    
    80   40  117 1    
    81   41  118 1    
    82   41  119 1    
    83   41  120 1    
    84   42   43 am   BACKBONE|DICT|INTERRES
    85   42  121 1    
    86   43   44 2    
    87   43   45 1    
    88   45   46 1    
    89   45   47 1    
    90   45  122 1    
    91   46  123 1    
    92   46  124 1    
    93   46  125 1    
    94   47   48 am   BACKBONE|DICT|INTERRES
    95   47  126 1    
    96   48   49 2    
    97   48   50 1    
    98   50   51 1    
    99   50   52 1    
   100   50  127 1    
   101   51  128 1    
   102   51  129 1    
   103   51  130 1    
   104   52   53 am   BACKBONE|DICT|INTERRES
   105   52  131 1    
   106   53   54 2    
   107   53   55 1    
   108   55   56 1    
   109   55   59 1    
   110   55  132 1    
   111   56   57 1    
   112   56  133 1    
   113   56  134 1    
   114   57   58 1    
   115   58  135 1    
   116   58  136 1    
   117   59   60 am   BACKBONE|DICT|INTERRES
   118   59  137 1    
   119   60   61 2    
   120   60   62 1    
   121   62   63 1    
   122   62   64 1    
   123   62  138 1    
   124   63  139 1    
   125   63  140 1    
   126   63  141 1    
   127   64   65 am   BACKBONE|DICT|INTERRES
   128   64  142 1    
   129   65   66 2    
   130   65   67 1    
   131   67   68 1    
   132   67   69 1    
   133   67  143 1    
   134   68  144 1    
   135   68  145 1    
   136   68  146 1    
   137   69   70 am   BACKBONE|DICT|INTERRES
   138   69  147 1    
   139   70   71 2    
   140   70   72 1    
   141   72   73 1    
   142   72   74 1    
   143   72  148 1    
   144   73  149 1    
   145   73  150 1    
   146   73  151 1    
   147   74   75 am   BACKBONE|DICT|INTERRES
   148   74  152 1    
   149   75   76 2    
   150   75   77 1    
   151   77   78 1    
   152   77   79 1    
   153   77  153 1    
   154   78  154 1    
   155   78  155 1    
   156   78  156 1    
   157   79   80 am   BACKBONE|DICT|INTERRES
   158   79  157 1    
   159   80   81 2    
@<TRIPOS>SUBSTRUCTURE
     1 UNK         1 GROUP             0       ****    0 ROOT    
