@<TRIPOS>MOLECULE
3R207
157   159    1
SMALL
USER_CHARGES


@<TRIPOS>ATOM
      1 CA        -50.9264  -28.9728    9.3911 C.3       0 UNK        -0.1975 
      2 C         -50.1484  -28.4010    8.2178 C.2       0 UNK         0.4852 
      3 O         -49.5389  -27.3401    8.3507 O.2       0 UNK        -0.5216 
      4 N         -50.1690  -29.0987    7.0714 N.am      1 UNK        -0.4461 
      5 CA        -49.5639  -28.6809    5.7975 C.3       1 UNK         0.0864 
      6 C6        -50.2643  -27.4320    5.1878 C.3       14 UNK        -0.0898 
      7 S7        -51.8496  -27.8141    4.3571 S.3       14 UNK        -0.2598 
      8 C8        -53.0499  -28.1249    5.7062 C.3       14 UNK         0.0286 
      9 C9        -53.4408  -26.9383    6.5905 C.ar      14 UNK        -0.0844 
     10 C10       -52.9319  -25.6459    6.4124 C.ar      14 UNK        -0.0881 
     11 C11       -53.3047  -24.6064    7.2670 C.ar      14 UNK        -0.0643 
     12 C12       -54.2341  -24.8448    8.2808 C.ar      14 UNK        -0.0930 
     13 C13       -54.7646  -26.1236    8.4642 C.ar      14 UNK        -0.0827 
     14 C14       -54.3581  -27.1640    7.6231 C.ar      14 UNK        -0.1249 
     15 C15       -55.7865  -26.3705    9.5639 C.3       14 UNK         0.0141 
     16 S16       -55.0385  -26.2787   11.2189 S.3       14 UNK        -0.2313 
     17 C17       -54.1371  -27.8621   11.3073 C.3       14 UNK        -0.0915 
     18 CA        -54.9181  -28.9570   12.0826 C.3       13 UNK         0.0968 
     19 C         -54.1409  -30.3055   12.0978 C.2       13 UNK         0.5732 
     20 N         -53.8418  -30.9022   13.2474 N.am      13 UNK        -0.7310 
     21 O         -53.8101  -30.8308   11.0377 O.2       13 UNK        -0.5035 
     22 N         -55.3261  -28.4997   13.4190 N.am      13 UNK        -0.4233 
     23 C         -56.4375  -28.8957   14.0538 C.2       13 UNK         0.4989 
     24 O         -57.2837  -29.6330   13.5442 O.2       13 UNK        -0.4996 
     25 CA        -56.6479  -28.3824   15.4967 C.3       12 UNK         0.0216 
     26 CB        -57.5119  -29.3409   16.3448 C.3       12 UNK        -0.1964 
     27 N         -55.4019  -28.0523   16.2033 N.am      12 UNK        -0.4276 
     28 C         -54.3703  -28.8746   16.4399 C.2       12 UNK         0.5020 
     29 O         -54.3387  -30.0653   16.1176 O.2       12 UNK        -0.5489 
     30 CA        -53.1349  -28.2364   17.0961 C.3       11 UNK         0.0294 
     31 CB        -52.9215  -28.7914   18.5134 C.3       11 UNK        -0.2019 
     32 N         -51.9236  -28.4512   16.3007 N.am      11 UNK        -0.4493 
     33 C         -51.7740  -28.1209   15.0113 C.2       11 UNK         0.4932 
     34 O         -52.6361  -27.5586   14.3339 O.2       11 UNK        -0.5029 
     35 CA        -50.4095  -28.4358   14.3917 C.3       10 UNK         0.0280 
     36 CB        -50.5050  -28.6823   12.8780 C.3       10 UNK        -0.1976 
     37 N         -49.5144  -27.3119   14.6469 N.am      10 UNK        -0.4242 
     38 C         -48.7594  -27.1781   15.7448 C.2       10 UNK         0.5072 
     39 O         -48.6719  -28.0371   16.6237 O.2       10 UNK        -0.5224 
     40 CA        -48.0052  -25.8536   15.9118 C.3       9 UNK         0.0343 
     41 CB        -46.7736  -25.7796   14.9946 C.3       9 UNK        -0.2003 
     42 N         -48.8912  -24.7196   15.6439 N.am      9 UNK        -0.4272 
     43 C         -49.3565  -23.8889   16.5860 C.2       9 UNK         0.4988 
     44 O         -49.0592  -23.9593   17.7795 O.2       9 UNK        -0.5108 
     45 CA        -50.3101  -22.7781   16.1234 C.3       8 UNK         0.0248 
     46 CB        -49.5178  -21.5817   15.5718 C.3       8 UNK        -0.2001 
     47 N         -51.2756  -23.2217   15.1193 N.am      8 UNK        -0.4140 
     48 C         -52.2930  -24.0646   15.3277 C.2       8 UNK         0.5028 
     49 O         -52.5165  -24.6079   16.4098 O.2       8 UNK        -0.5428 
     50 CA        -53.2510  -24.3256   14.1485 C.3       7 UNK         0.0264 
     51 CB        -54.3719  -23.2690   14.1107 C.3       7 UNK        -0.1988 
     52 N         -52.6211  -24.4739   12.8259 N.am      7 UNK        -0.4454 
     53 C         -51.9494  -23.5649   12.1037 C.2       7 UNK         0.5027 
     54 O         -51.6771  -22.4318   12.5073 O.2       7 UNK        -0.5083 
     55 CA        -51.4973  -23.9946   10.6915 C.3       6 UNK         0.0844 
     56 C56       -51.6478  -22.8004    9.7056 C.3       14 UNK        -0.0967 
     57 S57       -51.0973  -23.1406    7.9955 S.3       14 UNK        -0.2604 
     58 C58       -52.6779  -23.2343    7.0996 C.3       14 UNK         0.0134 
     59 N         -50.1430  -24.5555   10.6162 N.am      6 UNK        -0.4116 
     60 C         -49.3136  -25.0759   11.5337 C.2       5 UNK         0.5034 
     61 O         -49.5598  -25.1914   12.7375 O.2       5 UNK        -0.5045 
     62 CA        -47.9494  -25.5706   11.0068 C.3       5 UNK         0.0224 
     63 CB        -47.7078  -27.0466   11.3643 C.3       5 UNK        -0.1978 
     64 N         -47.7922  -25.4323    9.5553 N.am      5 UNK        -0.4737 
     65 C         -47.4535  -24.3129    8.9073 C.2       4 UNK         0.5027 
     66 O         -47.2481  -23.2358    9.4690 O.2       4 UNK        -0.5211 
     67 CA        -47.3143  -24.4482    7.3783 C.3       4 UNK         0.0297 
     68 CB        -47.1764  -23.0877    6.6640 C.3       4 UNK        -0.1993 
     69 N         -46.2126  -25.3473    7.0073 N.am      4 UNK        -0.4486 
     70 C         -44.9208  -25.2425    7.3675 C.2       3 UNK         0.4961 
     71 O         -44.4634  -24.3007    8.0169 O.2       3 UNK        -0.5105 
     72 CA        -43.9597  -26.3611    6.9080 C.3       3 UNK         0.0299 
     73 CB        -42.7947  -26.5826    7.8974 C.3       3 UNK        -0.1972 
     74 N         -44.6191  -27.6336    6.5904 N.am      3 UNK        -0.4305 
     75 C         -45.3195  -28.4211    7.4198 C.2       2 UNK         0.5006 
     76 O         -45.5020  -28.1944    8.6166 O.2       2 UNK        -0.5106 
     77 CA        -45.9538  -29.6658    6.7757 C.3       2 UNK         0.0296 
     78 CB        -45.6827  -30.9255    7.6168 C.3       2 UNK        -0.2002 
     79 N         -47.3986  -29.5255    6.5750 N.am      2 UNK        -0.4032 
     80 C         -48.0263  -28.5389    5.9143 C.2       1 UNK         0.5000 
     81 O         -47.4446  -27.5727    5.4125 O.2       1 UNK        -0.5238 
     82 H82       -51.4070  -28.1664    9.9433 H         1 UNK         0.0889 
     83 H83       -50.2537  -29.5014   10.0648 H         1 UNK         0.0889 
     84 H84       -51.7032  -29.6647    9.0656 H         1 UNK         0.0889 
     85 H85       -50.6666  -29.9778    7.0427 H         1 UNK         0.3028 
     86 H86       -49.7083  -29.5097    5.1025 H         1 UNK         0.0864 
     87 H87       -49.6476  -26.9829    4.4076 H         1 UNK         0.0720 
     88 H88       -50.3924  -26.6505    5.9356 H         1 UNK         0.0720 
     89 H89       -52.6899  -28.9390    6.3329 H         1 UNK         0.0814 
     90 H90       -53.9614  -28.4996    5.2386 H         1 UNK         0.0814 
     91 H91       -52.2315  -25.4315    5.6197 H         1 UNK         0.1469 
     92 H92       -54.5351  -24.0410    8.9385 H         1 UNK         0.1381 
     93 H93       -54.7644  -28.1560    7.7681 H         1 UNK         0.1206 
     94 H94       -56.2758  -27.3377    9.4385 H         1 UNK         0.0813 
     95 H95       -56.5742  -25.6192    9.4933 H         1 UNK         0.0813 
     96 H96       -53.1748  -27.6716   11.7811 H         1 UNK         0.0638 
     97 H97       -53.9095  -28.1989   10.2952 H         1 UNK         0.0638 
     98 H98       -55.8231  -29.1564   11.5060 H         1 UNK         0.0568 
     99 H99       -53.3484  -31.7795   13.2265 H         1 UNK         0.3450 
    100 H100      -54.1094  -30.4984   14.1386 H         1 UNK         0.3450 
    101 H101      -54.6365  -27.9432   13.9108 H         1 UNK         0.2987 
    102 H102      -57.1975  -27.4451   15.3984 H         1 UNK         0.0766 
    103 H103      -58.4985  -29.4794   15.9007 H         1 UNK         0.0798 
    104 H104      -57.6651  -28.9520   17.3514 H         1 UNK         0.0798 
    105 H105      -57.0539  -30.3267   16.4323 H         1 UNK         0.0798 
    106 H106      -55.3094  -27.0858   16.4864 H         1 UNK         0.3198 
    107 H107      -53.2854  -27.1573   17.1690 H         1 UNK         0.0843 
    108 H108      -52.7291  -29.8651   18.5009 H         1 UNK         0.0831 
    109 H109      -53.8037  -28.6262   19.1335 H         1 UNK         0.0831 
    110 H110      -52.0821  -28.3040   19.0098 H         1 UNK         0.0831 
    111 H111      -51.1419  -28.8841   16.7728 H         1 UNK         0.3133 
    112 H112      -50.0195  -29.3468   14.8511 H         1 UNK         0.0566 
    113 H113      -49.5577  -29.0470   12.4838 H         1 UNK         0.0814 
    114 H114      -50.7753  -27.7765   12.3351 H         1 UNK         0.0814 
    115 H115      -51.2566  -29.4392   12.6520 H         1 UNK         0.0814 
    116 H116      -49.5631  -26.5412   13.9845 H         1 UNK         0.3091 
    117 H117      -47.6427  -25.8234   16.9415 H         1 UNK         0.0702 
    118 H118      -46.1594  -26.6767   15.0841 H         1 UNK         0.0785 
    119 H119      -46.1444  -24.9292   15.2576 H         1 UNK         0.0785 
    120 H120      -47.0493  -25.6694   13.9477 H         1 UNK         0.0785 
    121 H121      -49.2113  -24.6044   14.6881 H         1 UNK         0.2998 
    122 H122      -50.8721  -22.4402   16.9967 H         1 UNK         0.0697 
    123 H123      -48.9623  -21.8454   14.6707 H         1 UNK         0.0825 
    124 H124      -48.7975  -21.2177   16.3058 H         1 UNK         0.0825 
    125 H125      -50.1775  -20.7493   15.3258 H         1 UNK         0.0825 
    126 H126      -51.2087  -22.8106   14.1897 H         1 UNK         0.3029 
    127 H127      -53.7332  -25.2817   14.3514 H         1 UNK         0.0897 
    128 H128      -53.9854  -22.2685   13.9140 H         1 UNK         0.0792 
    129 H129      -54.9012  -23.2296   15.0637 H         1 UNK         0.0792 
    130 H130      -55.1081  -23.5024   13.3412 H         1 UNK         0.0792 
    131 H131      -52.7374  -25.3933   12.4215 H         1 UNK         0.3086 
    132 H132      -52.1685  -24.7876   10.3573 H         1 UNK         0.0583 
    133 H133      -52.6804  -22.4473    9.6932 H         1 UNK         0.1020 
    134 H134      -51.0539  -21.9514   10.0509 H         1 UNK         0.1020 
    135 H135      -53.3562  -22.4488    7.4358 H         1 UNK         0.0694 
    136 H136      -52.4928  -23.0411    6.0418 H         1 UNK         0.0694 
    137 H137      -49.7757  -24.5567    9.6756 H         1 UNK         0.2989 
    138 H138      -47.1839  -24.9676   11.4996 H         1 UNK         0.1055 
    139 H139      -48.4175  -27.7002   10.8581 H         1 UNK         0.0806 
    140 H140      -47.8002  -27.2290   12.4334 H         1 UNK         0.0806 
    141 H141      -46.7055  -27.3613   11.0727 H         1 UNK         0.0806 
    142 H142      -48.0440  -26.2518    9.0069 H         1 UNK         0.3061 
    143 H143      -48.2324  -24.9170    7.0185 H         1 UNK         0.0734 
    144 H144      -46.2792  -22.5521    6.9755 H         1 UNK         0.0832 
    145 H145      -47.1361  -23.2107    5.5819 H         1 UNK         0.0832 
    146 H146      -48.0306  -22.4467    6.8864 H         1 UNK         0.0832 
    147 H147      -46.4881  -26.1661    6.4706 H         1 UNK         0.3156 
    148 H148      -43.5273  -26.0097    5.9701 H         1 UNK         0.0589 
    149 H149      -42.1219  -27.3669    7.5508 H         1 UNK         0.0808 
    150 H150      -42.1988  -25.6764    8.0124 H         1 UNK         0.0808 
    151 H151      -43.1540  -26.8615    8.8885 H         1 UNK         0.0808 
    152 H152      -44.5830  -27.9006    5.6157 H         1 UNK         0.3098 
    153 H153      -45.5022  -29.8191    5.7934 H         1 UNK         0.0720 
    154 H154      -46.1622  -30.8695    8.5952 H         1 UNK         0.0791 
    155 H155      -44.6132  -31.0582    7.7863 H         1 UNK         0.0791 
    156 H156      -46.0437  -31.8243    7.1165 H         1 UNK         0.0791 
    157 H157      -47.9727  -30.2485    6.9824 H         1 UNK         0.3028 
@<TRIPOS>BOND
     1    1    2 1    
     2    1   82 1    
     3    1   83 1    
     4    1   84 1    
     5    2    3 2    
     6    2    4 am   BACKBONE|DICT|INTERRES
     7    4    5 1    
     8    4   85 1    
     9    5    6 1    
    10    5   80 1    
    11    5   86 1    
    12    6    7 1    
    13    6   87 1    
    14    6   88 1    
    15    7    8 1    
    16    8    9 1    
    17    8   89 1    
    18    8   90 1    
    19    9   10 ar   
    20    9   14 ar   
    21   10   11 ar   
    22   10   91 1    
    23   11   12 ar   
    24   11   58 1    
    25   12   13 ar   
    26   12   92 1    
    27   13   14 ar   
    28   13   15 1    
    29   14   93 1    
    30   15   16 1    
    31   15   94 1    
    32   15   95 1    
    33   16   17 1    
    34   17   18 1    
    35   17   96 1    
    36   17   97 1    
    37   18   19 1    
    38   18   22 1    
    39   18   98 1    
    40   19   20 am   BACKBONE|DICT|INTERRES
    41   19   21 2    
    42   20   99 1    
    43   20  100 1    
    44   22   23 am   BACKBONE|DICT|INTERRES
    45   22  101 1    
    46   23   24 2    
    47   23   25 1    
    48   25   26 1    
    49   25   27 1    
    50   25  102 1    
    51   26  103 1    
    52   26  104 1    
    53   26  105 1    
    54   27   28 am   BACKBONE|DICT|INTERRES
    55   27  106 1    
    56   28   29 2    
    57   28   30 1    
    58   30   31 1    
    59   30   32 1    
    60   30  107 1    
    61   31  108 1    
    62   31  109 1    
    63   31  110 1    
    64   32   33 am   BACKBONE|DICT|INTERRES
    65   32  111 1    
    66   33   34 2    
    67   33   35 1    
    68   35   36 1    
    69   35   37 1    
    70   35  112 1    
    71   36  113 1    
    72   36  114 1    
    73   36  115 1    
    74   37   38 am   BACKBONE|DICT|INTERRES
    75   37  116 1    
    76   38   39 2    
    77   38   40 1    
    78   40   41 1    
    79   40   42 1    
    80   40  117 1    
    81   41  118 1    
    82   41  119 1    
    83   41  120 1    
    84   42   43 am   BACKBONE|DICT|INTERRES
    85   42  121 1    
    86   43   44 2    
    87   43   45 1    
    88   45   46 1    
    89   45   47 1    
    90   45  122 1    
    91   46  123 1    
    92   46  124 1    
    93   46  125 1    
    94   47   48 am   BACKBONE|DICT|INTERRES
    95   47  126 1    
    96   48   49 2    
    97   48   50 1    
    98   50   51 1    
    99   50   52 1    
   100   50  127 1    
   101   51  128 1    
   102   51  129 1    
   103   51  130 1    
   104   52   53 am   BACKBONE|DICT|INTERRES
   105   52  131 1    
   106   53   54 2    
   107   53   55 1    
   108   55   56 1    
   109   55   59 1    
   110   55  132 1    
   111   56   57 1    
   112   56  133 1    
   113   56  134 1    
   114   57   58 1    
   115   58  135 1    
   116   58  136 1    
   117   59   60 am   BACKBONE|DICT|INTERRES
   118   59  137 1    
   119   60   61 2    
   120   60   62 1    
   121   62   63 1    
   122   62   64 1    
   123   62  138 1    
   124   63  139 1    
   125   63  140 1    
   126   63  141 1    
   127   64   65 am   BACKBONE|DICT|INTERRES
   128   64  142 1    
   129   65   66 2    
   130   65   67 1    
   131   67   68 1    
   132   67   69 1    
   133   67  143 1    
   134   68  144 1    
   135   68  145 1    
   136   68  146 1    
   137   69   70 am   BACKBONE|DICT|INTERRES
   138   69  147 1    
   139   70   71 2    
   140   70   72 1    
   141   72   73 1    
   142   72   74 1    
   143   72  148 1    
   144   73  149 1    
   145   73  150 1    
   146   73  151 1    
   147   74   75 am   BACKBONE|DICT|INTERRES
   148   74  152 1    
   149   75   76 2    
   150   75   77 1    
   151   77   78 1    
   152   77   79 1    
   153   77  153 1    
   154   78  154 1    
   155   78  155 1    
   156   78  156 1    
   157   79   80 am   BACKBONE|DICT|INTERRES
   158   79  157 1    
   159   80   81 2    
@<TRIPOS>SUBSTRUCTURE
     1 UNK         1 GROUP             0       ****    0 ROOT    
