@<TRIPOS>MOLECULE
3R207
157   159    1
SMALL
USER_CHARGES


@<TRIPOS>ATOM
      1 CA        -47.7701  -26.0109    3.3404 C.3       0 UNK        -0.1975 
      2 C         -49.0779  -26.3472    4.0407 C.2       0 UNK         0.4852 
      3 O         -49.9453  -25.4816    4.1671 O.2       0 UNK        -0.5216 
      4 N         -49.2296  -27.5966    4.5000 N.am      1 UNK        -0.4461 
      5 CA        -50.3760  -28.0597    5.2885 C.3       1 UNK         0.0864 
      6 C6        -50.4447  -29.6058    5.3924 C.3       14 UNK        -0.0898 
      7 S7        -48.8828  -30.4182    5.8827 S.3       14 UNK        -0.2598 
      8 C8        -49.3789  -31.3380    7.3758 C.3       14 UNK         0.0286 
      9 C9        -49.4745  -30.4419    8.6021 C.ar      14 UNK        -0.0844 
     10 C10       -48.3153  -29.8713    9.1362 C.ar      14 UNK        -0.0881 
     11 C11       -48.3808  -29.0600   10.2713 C.ar      14 UNK        -0.0643 
     12 C12       -49.6156  -28.8364   10.8861 C.ar      14 UNK        -0.0930 
     13 C13       -50.7812  -29.4139   10.3735 C.ar      14 UNK        -0.0827 
     14 C14       -50.7067  -30.2041    9.2205 C.ar      14 UNK        -0.1249 
     15 C15       -52.1175  -29.1551   11.0549 C.3       14 UNK         0.0141 
     16 S16       -52.9000  -30.6885   11.6486 S.3       14 UNK        -0.2313 
     17 C17       -53.8818  -30.0574   13.0471 C.3       14 UNK        -0.0915 
     18 CA        -55.0634  -29.1251   12.6371 C.3       13 UNK         0.0968 
     19 C         -56.3992  -29.8847   12.3669 C.2       13 UNK         0.5732 
     20 N         -57.5599  -29.3392   12.7173 N.am      13 UNK        -0.7310 
     21 O         -56.3936  -30.9755   11.8018 O.2       13 UNK        -0.5035 
     22 N         -55.1971  -27.9655   13.5316 N.am      13 UNK        -0.4233 
     23 C         -55.4373  -28.0156   14.8514 C.2       13 UNK         0.4989 
     24 O         -55.4522  -29.0557   15.5099 O.2       13 UNK        -0.4996 
     25 CA        -55.7413  -26.6846   15.5658 C.3       12 UNK         0.0216 
     26 CB        -54.5124  -26.1956   16.3485 C.3       12 UNK        -0.1964 
     27 N         -56.2095  -25.6285   14.6607 N.am      12 UNK        -0.4276 
     28 C         -57.3681  -25.6785   13.9842 C.2       12 UNK         0.5020 
     29 O         -58.1797  -26.5987   14.0974 O.2       12 UNK        -0.5489 
     30 CA        -57.6623  -24.5520   12.9771 C.3       11 UNK         0.0294 
     31 CB        -58.5988  -23.5070   13.6046 C.3       11 UNK        -0.2019 
     32 N         -56.4784  -23.8747   12.4372 N.am      11 UNK        -0.4493 
     33 C         -55.4686  -24.4546   11.7724 C.2       11 UNK         0.4932 
     34 O         -55.3847  -25.6703   11.5856 O.2       11 UNK        -0.5029 
     35 CA        -54.3528  -23.5293   11.2396 C.3       10 UNK         0.0280 
     36 CB        -54.5581  -22.0324   11.5672 C.3       10 UNK        -0.1976 
     37 N         -53.0152  -23.9493   11.6705 N.am      10 UNK        -0.4242 
     38 C         -52.6101  -24.1928   12.9230 C.2       10 UNK         0.5072 
     39 O         -53.3378  -24.1369   13.9192 O.2       10 UNK        -0.5224 
     40 CA        -51.1248  -24.5193   13.0983 C.3       9 UNK         0.0343 
     41 CB        -50.3168  -23.2376   13.3721 C.3       9 UNK        -0.2003 
     42 N         -50.9891  -25.4436   14.2170 N.am      9 UNK        -0.4272 
     43 C         -49.9957  -26.3225   14.3652 C.2       9 UNK         0.4988 
     44 O         -49.0281  -26.4027   13.6000 O.2       9 UNK        -0.5108 
     45 CA        -50.1113  -27.2835   15.5560 C.3       8 UNK         0.0248 
     46 CB        -51.1730  -28.3638   15.2940 C.3       8 UNK        -0.2001 
     47 N         -48.8164  -27.9234   15.7388 N.am      8 UNK        -0.4140 
     48 C         -48.1808  -28.1297   16.8967 C.2       8 UNK         0.5028 
     49 O         -48.6862  -27.9440   18.0045 O.2       8 UNK        -0.5428 
     50 CA        -46.7169  -28.6061   16.7993 C.3       7 UNK         0.0264 
     51 CB        -46.6274  -30.1243   17.0240 C.3       7 UNK        -0.1988 
     52 N         -46.0909  -28.2724   15.5133 N.am      7 UNK        -0.4454 
     53 C         -45.8140  -27.0281   15.0980 C.2       7 UNK         0.5027 
     54 O         -45.9395  -26.0331   15.8152 O.2       7 UNK        -0.5083 
     55 CA        -45.3511  -26.8432   13.6413 C.3       6 UNK         0.0844 
     56 C56       -45.1384  -28.1414   12.8084 C.3       14 UNK        -0.0967 
     57 S57       -46.6603  -29.0910   12.4409 S.3       14 UNK        -0.2604 
     58 C58       -47.1243  -28.4046   10.8198 C.3       14 UNK         0.0134 
     59 N         -46.2704  -25.9104   12.9932 N.am      6 UNK        -0.4116 
     60 C         -45.9191  -25.0017   12.0805 C.2       5 UNK         0.5034 
     61 O         -44.7542  -24.8146   11.7250 O.2       5 UNK        -0.5045 
     62 CA        -47.0657  -24.1629   11.4831 C.3       5 UNK         0.0224 
     63 CB        -46.9273  -22.6715   11.8471 C.3       5 UNK        -0.1978 
     64 N         -47.2293  -24.3516   10.0351 N.am      5 UNK        -0.4737 
     65 C         -46.3901  -24.0301    9.0368 C.2       4 UNK         0.5027 
     66 O         -45.3136  -23.4494    9.1722 O.2       4 UNK        -0.5211 
     67 CA        -46.8539  -24.4035    7.6179 C.3       4 UNK         0.0297 
     68 CB        -46.4306  -25.8431    7.2817 C.3       4 UNK        -0.1993 
     69 N         -48.3008  -24.2463    7.4261 N.am      4 UNK        -0.4486 
     70 C         -48.9294  -23.0573    7.4201 C.2       3 UNK         0.4961 
     71 O         -48.3413  -21.9828    7.5485 O.2       3 UNK        -0.5105 
     72 CA        -50.4588  -23.0293    7.2292 C.3       3 UNK         0.0299 
     73 CB        -50.8253  -22.4105    5.8699 C.3       3 UNK        -0.1972 
     74 N         -51.0845  -24.3461    7.3372 N.am      3 UNK        -0.4305 
     75 C         -51.3503  -24.9701    8.4929 C.2       2 UNK         0.5006 
     76 O         -51.1643  -24.4637    9.5999 O.2       2 UNK        -0.5106 
     77 CA        -51.9083  -26.4041    8.4155 C.3       2 UNK         0.0296 
     78 CB        -53.4218  -26.4027    8.6769 C.3       2 UNK        -0.2002 
     79 N         -51.6439  -27.1014    7.1525 N.am      2 UNK        -0.4032 
     80 C         -50.4239  -27.3660    6.6654 C.2       1 UNK         0.5000 
     81 O         -49.3801  -27.0347    7.2328 O.2       1 UNK        -0.5238 
     82 H82       -47.9612  -25.7239    2.3068 H         1 UNK         0.0889 
     83 H83       -47.0806  -26.8549    3.3381 H         1 UNK         0.0889 
     84 H84       -47.2822  -25.1755    3.8421 H         1 UNK         0.0889 
     85 H85       -48.4770  -28.2644    4.4094 H         1 UNK         0.3028 
     86 H86       -51.2690  -27.7415    4.7454 H         1 UNK         0.0864 
     87 H87       -51.2508  -29.9105    6.0624 H         1 UNK         0.0720 
     88 H88       -50.7169  -30.0116    4.4169 H         1 UNK         0.0720 
     89 H89       -48.6372  -32.1147    7.5675 H         1 UNK         0.0814 
     90 H90       -50.3197  -31.8594    7.1924 H         1 UNK         0.0814 
     91 H91       -47.3635  -30.0502    8.6553 H         1 UNK         0.1469 
     92 H92       -49.6614  -28.2104   11.7664 H         1 UNK         0.1381 
     93 H93       -51.6079  -30.6447    8.8168 H         1 UNK         0.1206 
     94 H94       -51.9909  -28.4606   11.8872 H         1 UNK         0.0813 
     95 H95       -52.7915  -28.6708   10.3501 H         1 UNK         0.0813 
     96 H96       -53.1867  -29.5316   13.6993 H         1 UNK         0.0638 
     97 H97       -54.2361  -30.9041   13.6378 H         1 UNK         0.0638 
     98 H98       -54.8230  -28.6723   11.6757 H         1 UNK         0.0568 
     99 H99       -58.4118  -29.8409   12.5242 H         1 UNK         0.3450 
    100 H100      -57.6021  -28.4400   13.1809 H         1 UNK         0.3450 
    101 H101      -55.2363  -27.0673   13.0605 H         1 UNK         0.2987 
    102 H102      -56.5411  -26.8804   16.2832 H         1 UNK         0.0766 
    103 H103      -54.7238  -25.2718   16.8874 H         1 UNK         0.0798 
    104 H104      -53.6625  -26.0157   15.6926 H         1 UNK         0.0798 
    105 H105      -54.2007  -26.9366   17.0860 H         1 UNK         0.0798 
    106 H106      -55.5719  -24.8624   14.4798 H         1 UNK         0.3198 
    107 H107      -58.1810  -25.0112   12.1328 H         1 UNK         0.0843 
    108 H108      -59.5043  -23.9768   13.9920 H         1 UNK         0.0831 
    109 H109      -58.9128  -22.7621   12.8731 H         1 UNK         0.0831 
    110 H110      -58.1227  -22.9849   14.4356 H         1 UNK         0.0831 
    111 H111      -56.4417  -22.8730   12.5600 H         1 UNK         0.3133 
    112 H112      -54.3694  -23.6329   10.1539 H         1 UNK         0.0566 
    113 H113      -53.7663  -21.4273   11.1249 H         1 UNK         0.0814 
    114 H114      -55.4995  -21.6585   11.1625 H         1 UNK         0.0814 
    115 H115      -54.5501  -21.8418   12.6414 H         1 UNK         0.0814 
    116 H116      -52.3298  -24.0619   10.9239 H         1 UNK         0.3091 
    117 H117      -50.7559  -25.0009   12.1900 H         1 UNK         0.0702 
    118 H118      -50.7308  -22.6744   14.2096 H         1 UNK         0.0785 
    119 H119      -50.3217  -22.5817   12.5007 H         1 UNK         0.0785 
    120 H120      -49.2773  -23.4590   13.6100 H         1 UNK         0.0785 
    121 H121      -51.7674  -25.4283   14.8633 H         1 UNK         0.2998 
    122 H122      -50.3778  -26.7048   16.4430 H         1 UNK         0.0697 
    123 H123      -50.9391  -28.9463   14.4016 H         1 UNK         0.0825 
    124 H124      -52.1596  -27.9229   15.1525 H         1 UNK         0.0825 
    125 H125      -51.2474  -29.0558   16.1330 H         1 UNK         0.0825 
    126 H126      -48.2979  -28.0472   14.8789 H         1 UNK         0.3029 
    127 H127      -46.1564  -28.1051   17.5917 H         1 UNK         0.0897 
    128 H128      -45.5918  -30.4651   17.0281 H         1 UNK         0.0792 
    129 H129      -47.0620  -30.4021   17.9854 H         1 UNK         0.0792 
    130 H130      -47.1621  -30.6795   16.2522 H         1 UNK         0.0792 
    131 H131      -45.9865  -29.0274   14.8478 H         1 UNK         0.3086 
    132 H132      -44.3757  -26.3601   13.7304 H         1 UNK         0.0583 
    133 H133      -44.6527  -27.8838   11.8658 H         1 UNK         0.1020 
    134 H134      -44.4290  -28.8013   13.3112 H         1 UNK         0.1020 
    135 H135      -47.3049  -27.3341   10.9072 H         1 UNK         0.0694 
    136 H136      -46.2917  -28.5234   10.1248 H         1 UNK         0.0694 
    137 H137      -47.2491  -26.0090   13.2589 H         1 UNK         0.2989 
    138 H138      -47.9998  -24.5175   11.9203 H         1 UNK         0.1055 
    139 H139      -46.9105  -22.5361   12.9292 H         1 UNK         0.0806 
    140 H140      -47.7633  -22.0897   11.4588 H         1 UNK         0.0806 
    141 H141      -46.0065  -22.2393   11.4544 H         1 UNK         0.0806 
    142 H142      -48.0845  -24.8161    9.7619 H         1 UNK         0.3061 
    143 H143      -46.3520  -23.7335    6.9163 H         1 UNK         0.0734 
    144 H144      -46.7293  -26.1232    6.2721 H         1 UNK         0.0832 
    145 H145      -45.3472  -25.9533    7.3426 H         1 UNK         0.0832 
    146 H146      -46.8682  -26.5657    7.9719 H         1 UNK         0.0832 
    147 H147      -48.8386  -25.1017    7.3151 H         1 UNK         0.3156 
    148 H148      -50.8693  -22.3859    8.0105 H         1 UNK         0.0589 
    149 H149      -50.4234  -22.9912    5.0392 H         1 UNK         0.0808 
    150 H150      -51.9057  -22.3423    5.7417 H         1 UNK         0.0808 
    151 H151      -50.4262  -21.3992    5.7808 H         1 UNK         0.0808 
    152 H152      -51.2488  -24.8380    6.4697 H         1 UNK         0.3098 
    153 H153      -51.4171  -26.9709    9.2065 H         1 UNK         0.0720 
    154 H154      -53.9563  -25.7717    7.9656 H         1 UNK         0.0791 
    155 H155      -53.6360  -26.0257    9.6755 H         1 UNK         0.0791 
    156 H156      -53.8446  -27.4055    8.6171 H         1 UNK         0.0791 
    157 H157      -52.4539  -27.3904    6.6228 H         1 UNK         0.3028 
@<TRIPOS>BOND
     1    1    2 1    
     2    1   82 1    
     3    1   83 1    
     4    1   84 1    
     5    2    3 2    
     6    2    4 am   BACKBONE|DICT|INTERRES
     7    4    5 1    
     8    4   85 1    
     9    5    6 1    
    10    5   80 1    
    11    5   86 1    
    12    6    7 1    
    13    6   87 1    
    14    6   88 1    
    15    7    8 1    
    16    8    9 1    
    17    8   89 1    
    18    8   90 1    
    19    9   10 ar   
    20    9   14 ar   
    21   10   11 ar   
    22   10   91 1    
    23   11   12 ar   
    24   11   58 1    
    25   12   13 ar   
    26   12   92 1    
    27   13   14 ar   
    28   13   15 1    
    29   14   93 1    
    30   15   16 1    
    31   15   94 1    
    32   15   95 1    
    33   16   17 1    
    34   17   18 1    
    35   17   96 1    
    36   17   97 1    
    37   18   19 1    
    38   18   22 1    
    39   18   98 1    
    40   19   20 am   BACKBONE|DICT|INTERRES
    41   19   21 2    
    42   20   99 1    
    43   20  100 1    
    44   22   23 am   BACKBONE|DICT|INTERRES
    45   22  101 1    
    46   23   24 2    
    47   23   25 1    
    48   25   26 1    
    49   25   27 1    
    50   25  102 1    
    51   26  103 1    
    52   26  104 1    
    53   26  105 1    
    54   27   28 am   BACKBONE|DICT|INTERRES
    55   27  106 1    
    56   28   29 2    
    57   28   30 1    
    58   30   31 1    
    59   30   32 1    
    60   30  107 1    
    61   31  108 1    
    62   31  109 1    
    63   31  110 1    
    64   32   33 am   BACKBONE|DICT|INTERRES
    65   32  111 1    
    66   33   34 2    
    67   33   35 1    
    68   35   36 1    
    69   35   37 1    
    70   35  112 1    
    71   36  113 1    
    72   36  114 1    
    73   36  115 1    
    74   37   38 am   BACKBONE|DICT|INTERRES
    75   37  116 1    
    76   38   39 2    
    77   38   40 1    
    78   40   41 1    
    79   40   42 1    
    80   40  117 1    
    81   41  118 1    
    82   41  119 1    
    83   41  120 1    
    84   42   43 am   BACKBONE|DICT|INTERRES
    85   42  121 1    
    86   43   44 2    
    87   43   45 1    
    88   45   46 1    
    89   45   47 1    
    90   45  122 1    
    91   46  123 1    
    92   46  124 1    
    93   46  125 1    
    94   47   48 am   BACKBONE|DICT|INTERRES
    95   47  126 1    
    96   48   49 2    
    97   48   50 1    
    98   50   51 1    
    99   50   52 1    
   100   50  127 1    
   101   51  128 1    
   102   51  129 1    
   103   51  130 1    
   104   52   53 am   BACKBONE|DICT|INTERRES
   105   52  131 1    
   106   53   54 2    
   107   53   55 1    
   108   55   56 1    
   109   55   59 1    
   110   55  132 1    
   111   56   57 1    
   112   56  133 1    
   113   56  134 1    
   114   57   58 1    
   115   58  135 1    
   116   58  136 1    
   117   59   60 am   BACKBONE|DICT|INTERRES
   118   59  137 1    
   119   60   61 2    
   120   60   62 1    
   121   62   63 1    
   122   62   64 1    
   123   62  138 1    
   124   63  139 1    
   125   63  140 1    
   126   63  141 1    
   127   64   65 am   BACKBONE|DICT|INTERRES
   128   64  142 1    
   129   65   66 2    
   130   65   67 1    
   131   67   68 1    
   132   67   69 1    
   133   67  143 1    
   134   68  144 1    
   135   68  145 1    
   136   68  146 1    
   137   69   70 am   BACKBONE|DICT|INTERRES
   138   69  147 1    
   139   70   71 2    
   140   70   72 1    
   141   72   73 1    
   142   72   74 1    
   143   72  148 1    
   144   73  149 1    
   145   73  150 1    
   146   73  151 1    
   147   74   75 am   BACKBONE|DICT|INTERRES
   148   74  152 1    
   149   75   76 2    
   150   75   77 1    
   151   77   78 1    
   152   77   79 1    
   153   77  153 1    
   154   78  154 1    
   155   78  155 1    
   156   78  156 1    
   157   79   80 am   BACKBONE|DICT|INTERRES
   158   79  157 1    
   159   80   81 2    
@<TRIPOS>SUBSTRUCTURE
     1 UNK         1 GROUP             0       ****    0 ROOT    
