@<TRIPOS>MOLECULE
3R207
157   159    1
SMALL
USER_CHARGES


@<TRIPOS>ATOM
      1 CA        -44.6049  -26.7345    3.7366 C.3       0 UNK        -0.1975 
      2 C         -46.0430  -27.2003    3.9085 C.2       0 UNK         0.4852 
      3 O         -46.9062  -26.8287    3.1122 O.2       0 UNK        -0.5216 
      4 N         -46.3086  -28.0123    4.9408 N.am      1 UNK        -0.4461 
      5 CA        -47.6419  -28.4913    5.3116 C.3       1 UNK         0.0864 
      6 C6        -47.5449  -29.7562    6.2040 C.3       14 UNK        -0.0898 
      7 S7        -49.1663  -30.4974    6.6071 S.3       14 UNK        -0.2598 
      8 C8        -49.2868  -30.1254    8.3869 C.3       14 UNK         0.0286 
      9 C9        -50.7050  -29.7675    8.7930 C.ar      14 UNK        -0.0844 
     10 C10       -51.2327  -28.5286    8.4276 C.ar      14 UNK        -0.0881 
     11 C11       -52.5156  -28.1526    8.8273 C.ar      14 UNK        -0.0643 
     12 C12       -53.2848  -29.0426    9.5831 C.ar      14 UNK        -0.0930 
     13 C13       -52.7703  -30.2914    9.9558 C.ar      14 UNK        -0.0827 
     14 C14       -51.4771  -30.6460    9.5563 C.ar      14 UNK        -0.1249 
     15 C15       -53.6030  -31.2785   10.7662 C.3       14 UNK         0.0141 
     16 S16       -54.2885  -30.5483   12.2895 S.3       14 UNK        -0.2313 
     17 C17       -56.0326  -30.2901   11.8044 C.3       14 UNK        -0.0915 
     18 CA        -56.9958  -30.1473   13.0103 C.3       13 UNK         0.0968 
     19 C         -57.1827  -31.4848   13.7878 C.2       13 UNK         0.5732 
     20 N         -56.8203  -31.5728   15.0623 N.am      13 UNK        -0.7310 
     21 O         -57.6807  -32.4567   13.2242 O.2       13 UNK        -0.5035 
     22 N         -56.6397  -28.9808   13.8296 N.am      13 UNK        -0.4233 
     23 C         -57.4637  -28.3505   14.6743 C.2       13 UNK         0.4989 
     24 O         -58.6345  -28.6798   14.8690 O.2       13 UNK        -0.4996 
     25 CA        -56.8880  -27.1429   15.4307 C.3       12 UNK         0.0216 
     26 CB        -56.3922  -27.5669   16.8225 C.3       12 UNK        -0.1964 
     27 N         -55.8029  -26.4648   14.7132 N.am      12 UNK        -0.4276 
     28 C         -55.9783  -25.6899   13.6293 C.2       12 UNK         0.5020 
     29 O         -57.0716  -25.5396   13.0802 O.2       12 UNK        -0.5489 
     30 CA        -54.7403  -24.9491   13.0703 C.3       11 UNK         0.0294 
     31 CB        -55.1066  -23.6451   12.3326 C.3       11 UNK        -0.2019 
     32 N         -53.6987  -24.6937   14.0717 N.am      11 UNK        -0.4493 
     33 C         -53.8310  -24.0711   15.2544 C.2       11 UNK         0.4932 
     34 O         -54.8447  -23.4606   15.5971 O.2       11 UNK        -0.5029 
     35 CA        -52.6506  -24.1910   16.2412 C.3       10 UNK         0.0280 
     36 CB        -53.1215  -24.2288   17.7103 C.3       10 UNK        -0.1976 
     37 N         -51.7516  -25.3226   15.9685 N.am      10 UNK        -0.4242 
     38 C         -52.0609  -26.6300   15.9048 C.2       10 UNK         0.5072 
     39 O         -53.2002  -27.0630   16.0882 O.2       10 UNK        -0.5224 
     40 CA        -50.9444  -27.6229   15.5163 C.3       9 UNK         0.0343 
     41 CB        -51.3672  -28.4738   14.3040 C.3       9 UNK        -0.2003 
     42 N         -49.6728  -26.9648   15.2057 N.am      9 UNK        -0.4272 
     43 C         -48.7495  -26.6006   16.1062 C.2       9 UNK         0.4988 
     44 O         -48.8195  -26.8684   17.3057 O.2       9 UNK        -0.5108 
     45 CA        -47.5691  -25.7555   15.5899 C.3       8 UNK         0.0248 
     46 CB        -46.4086  -26.6634   15.1533 C.3       8 UNK        -0.2001 
     47 N         -47.9331  -24.8568   14.4876 N.am      8 UNK        -0.4140 
     48 C         -48.8291  -23.8623   14.5729 C.2       8 UNK         0.5028 
     49 O         -49.4003  -23.5516   15.6173 O.2       8 UNK        -0.5428 
     50 CA        -49.2106  -23.1396   13.2691 C.3       7 UNK         0.0264 
     51 CB        -48.1972  -22.0355   12.9315 C.3       7 UNK        -0.1988 
     52 N         -49.3565  -24.0538   12.1322 N.am      7 UNK        -0.4454 
     53 C         -50.2705  -25.0352   12.0581 C.2       7 UNK         0.5027 
     54 O         -51.1119  -25.2534   12.9301 O.2       7 UNK        -0.5083 
     55 CA        -50.2010  -25.9542   10.8239 C.3       6 UNK         0.0844 
     56 C56       -50.9208  -25.3203    9.6077 C.3       14 UNK        -0.0967 
     57 S57       -52.7358  -25.5191    9.6940 S.3       14 UNK        -0.2604 
     58 C58       -53.0679  -26.7908    8.4314 C.3       14 UNK         0.0134 
     59 N         -48.8104  -26.3125   10.5278 N.am      6 UNK        -0.4116 
     60 C         -48.0669  -27.1391   11.2787 C.2       5 UNK         0.5034 
     61 O         -48.5060  -27.7678   12.2413 O.2       5 UNK        -0.5045 
     62 CA        -46.5664  -27.2418   10.9426 C.3       5 UNK         0.0224 
     63 CB        -46.2846  -28.3810    9.9541 C.3       5 UNK        -0.1978 
     64 N         -46.0054  -25.9940   10.4173 N.am      5 UNK        -0.4737 
     65 C         -45.8297  -24.8888   11.1526 C.2       4 UNK         0.5027 
     66 O         -46.0838  -24.8286   12.3536 O.2       4 UNK        -0.5211 
     67 CA        -45.3316  -23.6275   10.4259 C.3       4 UNK         0.0297 
     68 CB        -43.7962  -23.5722   10.4473 C.3       4 UNK        -0.1993 
     69 N         -45.8074  -23.4904    9.0441 N.am      4 UNK        -0.4486 
     70 C         -47.0906  -23.4729    8.6560 C.2       3 UNK         0.4961 
     71 O         -48.0368  -23.6378    9.4300 O.2       3 UNK        -0.5105 
     72 CA        -47.3759  -23.2617    7.1608 C.3       3 UNK         0.0299 
     73 CB        -46.1237  -23.2592    6.2559 C.3       3 UNK        -0.1972 
     74 N         -48.2937  -24.3062    6.7251 N.am      3 UNK        -0.4305 
     75 C         -49.2263  -24.2073    5.7754 C.2       2 UNK         0.5006 
     76 O         -49.4274  -23.1850    5.1170 O.2       2 UNK        -0.5106 
     77 CA        -50.0621  -25.4799    5.5169 C.3       2 UNK         0.0296 
     78 CB        -51.1432  -25.2735    4.4398 C.3       2 UNK        -0.2002 
     79 N         -49.2408  -26.6377    5.1477 N.am      2 UNK        -0.4032 
     80 C         -48.4293  -27.3319    5.9586 C.2       1 UNK         0.5000 
     81 O         -48.2590  -27.0588    7.1511 O.2       1 UNK        -0.5238 
     82 H82       -43.9469  -27.1500    4.4995 H         1 UNK         0.0889 
     83 H83       -44.5538  -25.6478    3.7997 H         1 UNK         0.0889 
     84 H84       -44.2266  -27.0378    2.7607 H         1 UNK         0.0889 
     85 H85       -45.5617  -28.2700    5.5701 H         1 UNK         0.3028 
     86 H86       -48.1623  -28.7856    4.3971 H         1 UNK         0.0864 
     87 H87       -46.9707  -30.5209    5.6787 H         1 UNK         0.0720 
     88 H88       -46.9827  -29.5504    7.1150 H         1 UNK         0.0720 
     89 H89       -48.6515  -29.2794    8.6416 H         1 UNK         0.0814 
     90 H90       -48.9133  -30.9749    8.9605 H         1 UNK         0.0814 
     91 H91       -50.6346  -27.8556    7.8332 H         1 UNK         0.1469 
     92 H92       -54.2816  -28.7572    9.8855 H         1 UNK         0.1381 
     93 H93       -51.0690  -31.6068    9.8395 H         1 UNK         0.1206 
     94 H94       -54.3964  -31.6777   10.1339 H         1 UNK         0.0813 
     95 H95       -52.9945  -32.1357   11.0582 H         1 UNK         0.0813 
     96 H96       -56.3601  -31.1104   11.1635 H         1 UNK         0.0638 
     97 H97       -56.0883  -29.3927   11.1876 H         1 UNK         0.0638 
     98 H98       -57.9803  -29.9342   12.5895 H         1 UNK         0.0568 
     99 H99       -56.4085  -30.7832   15.5312 H         1 UNK         0.3450 
    100 H100      -56.9526  -32.4423   15.5539 H         1 UNK         0.3450 
    101 H101      -55.6870  -28.6590   13.7479 H         1 UNK         0.2987 
    102 H102      -57.7003  -26.4255   15.5663 H         1 UNK         0.0766 
    103 H103      -55.5782  -28.2902   16.7591 H         1 UNK         0.0798 
    104 H104      -56.0323  -26.7100   17.3926 H         1 UNK         0.0798 
    105 H105      -57.1946  -28.0272   17.4006 H         1 UNK         0.0798 
    106 H106      -54.8721  -26.5466   15.1158 H         1 UNK         0.3198 
    107 H107      -54.2935  -25.6269   12.3415 H         1 UNK         0.0843 
    108 H108      -55.7791  -23.8428   11.4970 H         1 UNK         0.0831 
    109 H109      -54.2198  -23.1619   11.9224 H         1 UNK         0.0831 
    110 H110      -55.6045  -22.9342   12.9925 H         1 UNK         0.0831 
    111 H111      -52.7861  -25.0887   13.8519 H         1 UNK         0.3133 
    112 H112      -52.0543  -23.2881   16.1064 H         1 UNK         0.0566 
    113 H113      -52.2767  -24.2997   18.3953 H         1 UNK         0.0814 
    114 H114      -53.6716  -23.3239   17.9712 H         1 UNK         0.0814 
    115 H115      -53.7807  -25.0764   17.9009 H         1 UNK         0.0814 
    116 H116      -50.7947  -25.0504   15.7707 H         1 UNK         0.3091 
    117 H117      -50.8008  -28.2936   16.3657 H         1 UNK         0.0702 
    118 H118      -50.5897  -29.1865   14.0283 H         1 UNK         0.0785 
    119 H119      -51.5778  -27.8587   13.4286 H         1 UNK         0.0785 
    120 H120      -52.2687  -29.0486   14.5203 H         1 UNK         0.0785 
    121 H121      -49.5255  -26.7177   14.2354 H         1 UNK         0.2998 
    122 H122      -47.2229  -25.1337   16.4180 H         1 UNK         0.0697 
    123 H123      -46.6921  -27.3062   14.3197 H         1 UNK         0.0825 
    124 H124      -46.0906  -27.3111   15.9713 H         1 UNK         0.0825 
    125 H125      -45.5408  -26.0793   14.8463 H         1 UNK         0.0825 
    126 H126      -47.4304  -24.9815   13.6106 H         1 UNK         0.3029 
    127 H127      -50.1824  -22.6674   13.4296 H         1 UNK         0.0897 
    128 H128      -48.4621  -21.5185   12.0090 H         1 UNK         0.0792 
    129 H129      -48.1627  -21.2876   13.7248 H         1 UNK         0.0792 
    130 H130      -47.1885  -22.4309   12.8186 H         1 UNK         0.0792 
    131 H131      -48.7256  -23.9226   11.3477 H         1 UNK         0.3086 
    132 H132      -50.7171  -26.8840   11.0757 H         1 UNK         0.0583 
    133 H133      -50.6863  -24.2583    9.5093 H         1 UNK         0.1020 
    134 H134      -50.5596  -25.7732    8.6883 H         1 UNK         0.1020 
    135 H135      -54.1468  -26.8624    8.2863 H         1 UNK         0.0694 
    136 H136      -52.6570  -26.4733    7.4722 H         1 UNK         0.0694 
    137 H137      -48.3549  -25.7838    9.7965 H         1 UNK         0.2989 
    138 H138      -46.0500  -27.4772   11.8762 H         1 UNK         0.1055 
    139 H139      -46.7560  -29.3105   10.2768 H         1 UNK         0.0806 
    140 H140      -45.2150  -28.5742    9.8714 H         1 UNK         0.0806 
    141 H141      -46.6555  -28.1434    8.9588 H         1 UNK         0.0806 
    142 H142      -45.7707  -25.9653    9.4357 H         1 UNK         0.3061 
    143 H143      -45.7076  -22.7656   10.9796 H         1 UNK         0.0734 
    144 H144      -43.4178  -23.6497   11.4678 H         1 UNK         0.0832 
    145 H145      -43.3534  -24.3875    9.8737 H         1 UNK         0.0832 
    146 H146      -43.4254  -22.6320   10.0388 H         1 UNK         0.0832 
    147 H147      -45.0992  -23.3563    8.3367 H         1 UNK         0.3156 
    148 H148      -47.8705  -22.2921    7.0756 H         1 UNK         0.0589 
    149 H149      -45.5808  -24.2041    6.3071 H         1 UNK         0.0808 
    150 H150      -46.3981  -23.0991    5.2129 H         1 UNK         0.0808 
    151 H151      -45.4368  -22.4555    6.5241 H         1 UNK         0.0808 
    152 H152      -48.2005  -25.2081    7.1880 H         1 UNK         0.3098 
    153 H153      -50.5775  -25.7156    6.4466 H         1 UNK         0.0720 
    154 H154      -51.7663  -26.1610    4.3275 H         1 UNK         0.0791 
    155 H155      -50.7055  -25.0441    3.4674 H         1 UNK         0.0791 
    156 H156      -51.8057  -24.4478    4.7034 H         1 UNK         0.0791 
    157 H157      -49.2320  -26.8750    4.1651 H         1 UNK         0.3028 
@<TRIPOS>BOND
     1    1    2 1    
     2    1   82 1    
     3    1   83 1    
     4    1   84 1    
     5    2    3 2    
     6    2    4 am   BACKBONE|DICT|INTERRES
     7    4    5 1    
     8    4   85 1    
     9    5    6 1    
    10    5   80 1    
    11    5   86 1    
    12    6    7 1    
    13    6   87 1    
    14    6   88 1    
    15    7    8 1    
    16    8    9 1    
    17    8   89 1    
    18    8   90 1    
    19    9   10 ar   
    20    9   14 ar   
    21   10   11 ar   
    22   10   91 1    
    23   11   12 ar   
    24   11   58 1    
    25   12   13 ar   
    26   12   92 1    
    27   13   14 ar   
    28   13   15 1    
    29   14   93 1    
    30   15   16 1    
    31   15   94 1    
    32   15   95 1    
    33   16   17 1    
    34   17   18 1    
    35   17   96 1    
    36   17   97 1    
    37   18   19 1    
    38   18   22 1    
    39   18   98 1    
    40   19   20 am   BACKBONE|DICT|INTERRES
    41   19   21 2    
    42   20   99 1    
    43   20  100 1    
    44   22   23 am   BACKBONE|DICT|INTERRES
    45   22  101 1    
    46   23   24 2    
    47   23   25 1    
    48   25   26 1    
    49   25   27 1    
    50   25  102 1    
    51   26  103 1    
    52   26  104 1    
    53   26  105 1    
    54   27   28 am   BACKBONE|DICT|INTERRES
    55   27  106 1    
    56   28   29 2    
    57   28   30 1    
    58   30   31 1    
    59   30   32 1    
    60   30  107 1    
    61   31  108 1    
    62   31  109 1    
    63   31  110 1    
    64   32   33 am   BACKBONE|DICT|INTERRES
    65   32  111 1    
    66   33   34 2    
    67   33   35 1    
    68   35   36 1    
    69   35   37 1    
    70   35  112 1    
    71   36  113 1    
    72   36  114 1    
    73   36  115 1    
    74   37   38 am   BACKBONE|DICT|INTERRES
    75   37  116 1    
    76   38   39 2    
    77   38   40 1    
    78   40   41 1    
    79   40   42 1    
    80   40  117 1    
    81   41  118 1    
    82   41  119 1    
    83   41  120 1    
    84   42   43 am   BACKBONE|DICT|INTERRES
    85   42  121 1    
    86   43   44 2    
    87   43   45 1    
    88   45   46 1    
    89   45   47 1    
    90   45  122 1    
    91   46  123 1    
    92   46  124 1    
    93   46  125 1    
    94   47   48 am   BACKBONE|DICT|INTERRES
    95   47  126 1    
    96   48   49 2    
    97   48   50 1    
    98   50   51 1    
    99   50   52 1    
   100   50  127 1    
   101   51  128 1    
   102   51  129 1    
   103   51  130 1    
   104   52   53 am   BACKBONE|DICT|INTERRES
   105   52  131 1    
   106   53   54 2    
   107   53   55 1    
   108   55   56 1    
   109   55   59 1    
   110   55  132 1    
   111   56   57 1    
   112   56  133 1    
   113   56  134 1    
   114   57   58 1    
   115   58  135 1    
   116   58  136 1    
   117   59   60 am   BACKBONE|DICT|INTERRES
   118   59  137 1    
   119   60   61 2    
   120   60   62 1    
   121   62   63 1    
   122   62   64 1    
   123   62  138 1    
   124   63  139 1    
   125   63  140 1    
   126   63  141 1    
   127   64   65 am   BACKBONE|DICT|INTERRES
   128   64  142 1    
   129   65   66 2    
   130   65   67 1    
   131   67   68 1    
   132   67   69 1    
   133   67  143 1    
   134   68  144 1    
   135   68  145 1    
   136   68  146 1    
   137   69   70 am   BACKBONE|DICT|INTERRES
   138   69  147 1    
   139   70   71 2    
   140   70   72 1    
   141   72   73 1    
   142   72   74 1    
   143   72  148 1    
   144   73  149 1    
   145   73  150 1    
   146   73  151 1    
   147   74   75 am   BACKBONE|DICT|INTERRES
   148   74  152 1    
   149   75   76 2    
   150   75   77 1    
   151   77   78 1    
   152   77   79 1    
   153   77  153 1    
   154   78  154 1    
   155   78  155 1    
   156   78  156 1    
   157   79   80 am   BACKBONE|DICT|INTERRES
   158   79  157 1    
   159   80   81 2    
@<TRIPOS>SUBSTRUCTURE
     1 UNK         1 GROUP             0       ****    0 ROOT    
