@<TRIPOS>MOLECULE
3R207
157   159    1
SMALL
USER_CHARGES


@<TRIPOS>ATOM
      1 CA        -46.5514  -32.8924    4.8043 C.3       0 UNK        -0.1975 
      2 C         -46.7729  -31.6597    5.6691 C.2       0 UNK         0.4852 
      3 O         -45.8873  -31.2947    6.4436 O.2       0 UNK        -0.5216 
      4 N         -47.9489  -31.0276    5.5419 N.am      1 UNK        -0.4461 
      5 CA        -48.3566  -29.7977    6.2342 C.3       1 UNK         0.0864 
      6 C6        -48.4019  -29.9719    7.7832 C.3       14 UNK        -0.0898 
      7 S7        -49.5426  -28.8258    8.6255 S.3       14 UNK        -0.2598 
      8 C8        -51.1518  -29.6453    8.3619 C.3       14 UNK         0.0286 
      9 C9        -52.3362  -28.7743    8.7722 C.ar      14 UNK        -0.0844 
     10 C10       -52.3583  -27.4070    8.4784 C.ar      14 UNK        -0.0881 
     11 C11       -53.4380  -26.6123    8.8651 C.ar      14 UNK        -0.0643 
     12 C12       -54.5252  -27.1997    9.5168 C.ar      14 UNK        -0.0930 
     13 C13       -54.5412  -28.5744    9.7903 C.ar      14 UNK        -0.0827 
     14 C14       -53.4343  -29.3481    9.4217 C.ar      14 UNK        -0.1249 
     15 C15       -55.7103  -29.2569   10.5066 C.3       14 UNK         0.0141 
     16 S16       -57.3155  -28.4000   10.3472 S.3       14 UNK        -0.2313 
     17 C17       -58.4612  -29.6012   11.1061 C.3       14 UNK        -0.0915 
     18 CA        -59.0235  -29.1184   12.4767 C.3       13 UNK         0.0968 
     19 C         -60.2513  -29.9523   12.9603 C.2       13 UNK         0.5732 
     20 N         -60.4793  -30.0971   14.2606 N.am      13 UNK        -0.7310 
     21 O         -61.0336  -30.4475   12.1518 O.2       13 UNK        -0.5035 
     22 N         -57.9700  -28.9273   13.4907 N.am      13 UNK        -0.4233 
     23 C         -57.2078  -29.8834   14.0376 C.2       13 UNK         0.4989 
     24 O         -57.2995  -31.0810   13.7624 O.2       13 UNK        -0.4996 
     25 CA        -56.1417  -29.4023   15.0391 C.3       12 UNK         0.0216 
     26 CB        -55.3906  -30.5637   15.7166 C.3       12 UNK        -0.1964 
     27 N         -55.1675  -28.5424   14.3699 N.am      12 UNK        -0.4276 
     28 C         -55.3218  -27.2468   14.0825 C.2       12 UNK         0.5020 
     29 O         -56.3222  -26.6122   14.4249 O.2       12 UNK        -0.5489 
     30 CA        -54.2138  -26.5512   13.2537 C.3       11 UNK         0.0294 
     31 CB        -54.2499  -25.0230   13.4359 C.3       11 UNK        -0.2019 
     32 N         -52.8375  -27.0262   13.4763 N.am      11 UNK        -0.4493 
     33 C         -52.3479  -28.2437   13.1933 C.2       11 UNK         0.4932 
     34 O         -53.0310  -29.1592   12.7368 O.2       11 UNK        -0.5029 
     35 CA        -50.8687  -28.5332   13.5011 C.3       10 UNK         0.0280 
     36 CB        -50.0742  -28.7508   12.2037 C.3       10 UNK        -0.1976 
     37 N         -50.1972  -27.5406   14.3507 N.am      10 UNK        -0.4242 
     38 C         -50.4423  -27.4125   15.6638 C.2       10 UNK         0.5072 
     39 O         -51.3648  -27.9991   16.2322 O.2       10 UNK        -0.5224 
     40 CA        -49.5045  -26.5513   16.5241 C.3       9 UNK         0.0343 
     41 CB        -48.5611  -27.4754   17.3260 C.3       9 UNK        -0.2003 
     42 N         -48.7232  -25.5433   15.7951 N.am      9 UNK        -0.4272 
     43 C         -48.1081  -24.5204   16.4093 C.2       9 UNK         0.4988 
     44 O         -48.2130  -24.2791   17.6134 O.2       9 UNK        -0.5108 
     45 CA        -47.1953  -23.6251   15.5585 C.3       8 UNK         0.0248 
     46 CB        -45.9268  -24.3847   15.1352 C.3       8 UNK        -0.2001 
     47 N         -47.8665  -23.0597   14.3888 N.am      8 UNK        -0.4140 
     48 C         -48.8565  -22.1567   14.4454 C.2       8 UNK         0.5028 
     49 O         -49.2979  -21.6847   15.4944 O.2       8 UNK        -0.5428 
     50 CA        -49.4576  -21.6864   13.1093 C.3       7 UNK         0.0264 
     51 CB        -48.6231  -20.5404   12.5151 C.3       7 UNK        -0.1988 
     52 N         -49.5962  -22.7524   12.1156 N.am      7 UNK        -0.4454 
     53 C         -50.3655  -23.8421   12.2651 C.2       7 UNK         0.5027 
     54 O         -51.0377  -24.0813   13.2693 O.2       7 UNK        -0.5083 
     55 CA        -50.3205  -24.8741   11.1199 C.3       6 UNK         0.0844 
     56 C56       -51.0058  -24.3485    9.8314 C.3       14 UNK        -0.0967 
     57 S57       -52.8153  -24.1534    9.9805 S.3       14 UNK        -0.2604 
     58 C58       -53.4384  -25.1208    8.5701 C.3       14 UNK         0.0134 
     59 N         -48.9445  -25.3073   10.8530 N.am      6 UNK        -0.4116 
     60 C         -48.0696  -25.7909   11.7492 C.2       5 UNK         0.5034 
     61 O         -48.3348  -26.0269   12.9301 O.2       5 UNK        -0.5045 
     62 CA        -46.6303  -25.9932   11.2542 C.3       5 UNK         0.0224 
     63 CB        -46.4926  -27.3027   10.4614 C.3       5 UNK        -0.1978 
     64 N         -46.1642  -24.8616   10.4476 N.am      5 UNK        -0.4737 
     65 C         -45.9556  -23.6277   10.9304 C.2       4 UNK         0.5027 
     66 O         -46.0996  -23.3232   12.1121 O.2       4 UNK        -0.5211 
     67 CA        -45.5634  -22.5402    9.9181 C.3       4 UNK         0.0297 
     68 CB        -44.0621  -22.6122    9.5977 C.3       4 UNK        -0.1993 
     69 N         -46.3388  -22.6262    8.6798 N.am      4 UNK        -0.4486 
     70 C         -47.6626  -22.4294    8.5989 C.2       3 UNK         0.4961 
     71 O         -48.3670  -22.0930    9.5508 O.2       3 UNK        -0.5105 
     72 CA        -48.3160  -22.7110    7.2344 C.3       3 UNK         0.0299 
     73 CB        -48.2443  -21.4685    6.3334 C.3       3 UNK        -0.1972 
     74 N         -47.7241  -23.8627    6.5421 N.am      3 UNK        -0.4305 
     75 C         -47.7463  -25.1164    7.0136 C.2       2 UNK         0.5006 
     76 O         -48.2783  -25.4388    8.0791 O.2       2 UNK        -0.5106 
     77 CA        -47.0063  -26.1759    6.1934 C.3       2 UNK         0.0296 
     78 CB        -45.5027  -26.1740    6.5262 C.3       2 UNK        -0.2002 
     79 N         -47.5850  -27.4765    6.5097 N.am      2 UNK        -0.4032 
     80 C         -47.5641  -28.5631    5.7328 C.2       1 UNK         0.5000 
     81 O         -46.9969  -28.5966    4.6360 O.2       1 UNK        -0.5238 
     82 H82       -46.3575  -33.7614    5.4325 H         1 UNK         0.0889 
     83 H83       -45.6904  -32.7432    4.1533 H         1 UNK         0.0889 
     84 H84       -47.4155  -33.1132    4.1780 H         1 UNK         0.0889 
     85 H85       -48.6116  -31.3704    4.8603 H         1 UNK         0.3028 
     86 H86       -49.3772  -29.6251    5.8913 H         1 UNK         0.0864 
     87 H87       -48.7146  -30.9859    8.0379 H         1 UNK         0.0720 
     88 H88       -47.4067  -29.8560    8.2165 H         1 UNK         0.0720 
     89 H89       -51.1565  -30.5833    8.9193 H         1 UNK         0.0814 
     90 H90       -51.2666  -29.9050    7.3095 H         1 UNK         0.0814 
     91 H91       -51.5262  -26.9568    7.9559 H         1 UNK         0.1469 
     92 H92       -55.3534  -26.5725    9.8138 H         1 UNK         0.1381 
     93 H93       -53.4277  -30.4060    9.6462 H         1 UNK         0.1206 
     94 H94       -55.8251  -30.2698   10.1177 H         1 UNK         0.0813 
     95 H95       -55.4649  -29.3564   11.5633 H         1 UNK         0.0813 
     96 H96       -59.2710  -29.7415   10.3884 H         1 UNK         0.0638 
     97 H97       -57.9792  -30.5749   11.2029 H         1 UNK         0.0638 
     98 H98       -59.4389  -28.1237   12.3128 H         1 UNK         0.0568 
     99 H99       -61.2809  -30.6270   14.5642 H         1 UNK         0.3450 
    100 H100      -59.8595  -29.6844   14.9385 H         1 UNK         0.3450 
    101 H101      -57.7888  -27.9691   13.7693 H         1 UNK         0.2987 
    102 H102      -56.6511  -28.8318   15.8186 H         1 UNK         0.0766 
    103 H103      -54.6723  -30.1957   16.4496 H         1 UNK         0.0798 
    104 H104      -54.8464  -31.1711   14.9919 H         1 UNK         0.0798 
    105 H105      -56.0821  -31.2226   16.2434 H         1 UNK         0.0798 
    106 H106      -54.3611  -29.0017   13.9506 H         1 UNK         0.3198 
    107 H107      -54.4535  -26.7590   12.2114 H         1 UNK         0.0843 
    108 H108      -53.5454  -24.5270   12.7720 H         1 UNK         0.0831 
    109 H109      -54.0078  -24.7341   14.4591 H         1 UNK         0.0831 
    110 H110      -55.2346  -24.6161   13.2025 H         1 UNK         0.0831 
    111 H111      -52.1968  -26.3494   13.8681 H         1 UNK         0.3133 
    112 H112      -50.8492  -29.4808   14.0438 H         1 UNK         0.0566 
    113 H113      -49.0240  -28.9631   12.4033 H         1 UNK         0.0814 
    114 H114      -50.4737  -29.5980   11.6445 H         1 UNK         0.0814 
    115 H115      -50.1271  -27.8890   11.5421 H         1 UNK         0.0814 
    116 H116      -49.4451  -27.0136   13.9124 H         1 UNK         0.3091 
    117 H117      -50.1517  -26.0256   17.2297 H         1 UNK         0.0702 
    118 H118      -49.1190  -28.2550   17.8470 H         1 UNK         0.0785 
    119 H119      -47.8400  -27.9706   16.6746 H         1 UNK         0.0785 
    120 H120      -48.0039  -26.9281   18.0860 H         1 UNK         0.0785 
    121 H121      -48.6064  -25.6571   14.7921 H         1 UNK         0.2998 
    122 H122      -46.8802  -22.7897   16.1875 H         1 UNK         0.0697 
    123 H123      -46.1507  -25.1979   14.4452 H         1 UNK         0.0825 
    124 H124      -45.4244  -24.8197   16.0002 H         1 UNK         0.0825 
    125 H125      -45.2123  -23.7206   14.6489 H         1 UNK         0.0825 
    126 H126      -47.5020  -23.3312   13.4800 H         1 UNK         0.3029 
    127 H127      -50.4594  -21.3056   13.3192 H         1 UNK         0.0897 
    128 H128      -47.6185  -20.8711   12.2476 H         1 UNK         0.0792 
    129 H129      -48.5199  -19.7206   13.2272 H         1 UNK         0.0792 
    130 H130      -49.0899  -20.1341   11.6175 H         1 UNK         0.0792 
    131 H131      -49.0805  -22.6296   11.2467 H         1 UNK         0.3086 
    132 H132      -50.8713  -25.7543   11.4535 H         1 UNK         0.0583 
    133 H133      -50.5909  -23.3879    9.5279 H         1 UNK         0.1020 
    134 H134      -50.7919  -25.0261    9.0055 H         1 UNK         0.1020 
    135 H135      -54.4554  -24.7947    8.3471 H         1 UNK         0.0694 
    136 H136      -52.8493  -24.9002    7.6785 H         1 UNK         0.0694 
    137 H137      -48.6266  -25.2082    9.8917 H         1 UNK         0.2989 
    138 H138      -45.9887  -26.0641   12.1351 H         1 UNK         0.1055 
    139 H139      -46.8378  -28.1536   11.0505 H         1 UNK         0.0806 
    140 H140      -45.4542  -27.4962   10.1926 H         1 UNK         0.0806 
    141 H141      -47.0777  -27.2882    9.5431 H         1 UNK         0.0806 
    142 H142      -46.0696  -25.0138    9.4550 H         1 UNK         0.3061 
    143 H143      -45.7693  -21.5705   10.3767 H         1 UNK         0.0734 
    144 H144      -43.7560  -21.7952    8.9440 H         1 UNK         0.0832 
    145 H145      -43.4669  -22.5351   10.5089 H         1 UNK         0.0832 
    146 H146      -43.7930  -23.5511    9.1122 H         1 UNK         0.0832 
    147 H147      -45.8416  -22.8901    7.8422 H         1 UNK         0.3156 
    148 H148      -49.3688  -22.9386    7.4133 H         1 UNK         0.0589 
    149 H149      -47.2153  -21.2013    6.0894 H         1 UNK         0.0808 
    150 H150      -48.7823  -21.6246    5.3981 H         1 UNK         0.0808 
    151 H151      -48.6970  -20.6056    6.8243 H         1 UNK         0.0808 
    152 H152      -47.2662  -23.6790    5.6603 H         1 UNK         0.3098 
    153 H153      -47.1540  -25.9622    5.1327 H         1 UNK         0.0720 
    154 H154      -44.9658  -26.9125    5.9304 H         1 UNK         0.0791 
    155 H155      -45.3216  -26.4024    7.5771 H         1 UNK         0.0791 
    156 H156      -45.0512  -25.2037    6.3165 H         1 UNK         0.0791 
    157 H157      -48.1246  -27.4961    7.3698 H         1 UNK         0.3028 
@<TRIPOS>BOND
     1    1    2 1    
     2    1   82 1    
     3    1   83 1    
     4    1   84 1    
     5    2    3 2    
     6    2    4 am   BACKBONE|DICT|INTERRES
     7    4    5 1    
     8    4   85 1    
     9    5    6 1    
    10    5   80 1    
    11    5   86 1    
    12    6    7 1    
    13    6   87 1    
    14    6   88 1    
    15    7    8 1    
    16    8    9 1    
    17    8   89 1    
    18    8   90 1    
    19    9   10 ar   
    20    9   14 ar   
    21   10   11 ar   
    22   10   91 1    
    23   11   12 ar   
    24   11   58 1    
    25   12   13 ar   
    26   12   92 1    
    27   13   14 ar   
    28   13   15 1    
    29   14   93 1    
    30   15   16 1    
    31   15   94 1    
    32   15   95 1    
    33   16   17 1    
    34   17   18 1    
    35   17   96 1    
    36   17   97 1    
    37   18   19 1    
    38   18   22 1    
    39   18   98 1    
    40   19   20 am   BACKBONE|DICT|INTERRES
    41   19   21 2    
    42   20   99 1    
    43   20  100 1    
    44   22   23 am   BACKBONE|DICT|INTERRES
    45   22  101 1    
    46   23   24 2    
    47   23   25 1    
    48   25   26 1    
    49   25   27 1    
    50   25  102 1    
    51   26  103 1    
    52   26  104 1    
    53   26  105 1    
    54   27   28 am   BACKBONE|DICT|INTERRES
    55   27  106 1    
    56   28   29 2    
    57   28   30 1    
    58   30   31 1    
    59   30   32 1    
    60   30  107 1    
    61   31  108 1    
    62   31  109 1    
    63   31  110 1    
    64   32   33 am   BACKBONE|DICT|INTERRES
    65   32  111 1    
    66   33   34 2    
    67   33   35 1    
    68   35   36 1    
    69   35   37 1    
    70   35  112 1    
    71   36  113 1    
    72   36  114 1    
    73   36  115 1    
    74   37   38 am   BACKBONE|DICT|INTERRES
    75   37  116 1    
    76   38   39 2    
    77   38   40 1    
    78   40   41 1    
    79   40   42 1    
    80   40  117 1    
    81   41  118 1    
    82   41  119 1    
    83   41  120 1    
    84   42   43 am   BACKBONE|DICT|INTERRES
    85   42  121 1    
    86   43   44 2    
    87   43   45 1    
    88   45   46 1    
    89   45   47 1    
    90   45  122 1    
    91   46  123 1    
    92   46  124 1    
    93   46  125 1    
    94   47   48 am   BACKBONE|DICT|INTERRES
    95   47  126 1    
    96   48   49 2    
    97   48   50 1    
    98   50   51 1    
    99   50   52 1    
   100   50  127 1    
   101   51  128 1    
   102   51  129 1    
   103   51  130 1    
   104   52   53 am   BACKBONE|DICT|INTERRES
   105   52  131 1    
   106   53   54 2    
   107   53   55 1    
   108   55   56 1    
   109   55   59 1    
   110   55  132 1    
   111   56   57 1    
   112   56  133 1    
   113   56  134 1    
   114   57   58 1    
   115   58  135 1    
   116   58  136 1    
   117   59   60 am   BACKBONE|DICT|INTERRES
   118   59  137 1    
   119   60   61 2    
   120   60   62 1    
   121   62   63 1    
   122   62   64 1    
   123   62  138 1    
   124   63  139 1    
   125   63  140 1    
   126   63  141 1    
   127   64   65 am   BACKBONE|DICT|INTERRES
   128   64  142 1    
   129   65   66 2    
   130   65   67 1    
   131   67   68 1    
   132   67   69 1    
   133   67  143 1    
   134   68  144 1    
   135   68  145 1    
   136   68  146 1    
   137   69   70 am   BACKBONE|DICT|INTERRES
   138   69  147 1    
   139   70   71 2    
   140   70   72 1    
   141   72   73 1    
   142   72   74 1    
   143   72  148 1    
   144   73  149 1    
   145   73  150 1    
   146   73  151 1    
   147   74   75 am   BACKBONE|DICT|INTERRES
   148   74  152 1    
   149   75   76 2    
   150   75   77 1    
   151   77   78 1    
   152   77   79 1    
   153   77  153 1    
   154   78  154 1    
   155   78  155 1    
   156   78  156 1    
   157   79   80 am   BACKBONE|DICT|INTERRES
   158   79  157 1    
   159   80   81 2    
@<TRIPOS>SUBSTRUCTURE
     1 UNK         1 GROUP             0       ****    0 ROOT    
