@<TRIPOS>MOLECULE
3R207
157   159    1
SMALL
USER_CHARGES


@<TRIPOS>ATOM
      1 CA        -44.9676  -28.4619    8.0865 C.3       0 UNK        -0.1975 
      2 C         -46.0240  -27.7703    7.2394 C.2       0 UNK         0.4852 
      3 O         -45.8544  -26.6012    6.8905 O.2       0 UNK        -0.5216 
      4 N         -47.0985  -28.4958    6.8921 N.am      1 UNK        -0.4461 
      5 CA        -48.3016  -28.0171    6.1867 C.3       1 UNK         0.0864 
      6 C6        -49.1915  -27.1101    7.0825 C.3       14 UNK        -0.0898 
      7 S7        -49.7687  -27.9761    8.5842 S.3       14 UNK        -0.2598 
      8 C8        -51.5715  -28.0608    8.3071 C.3       14 UNK         0.0286 
      9 C9        -52.3473  -26.8946    8.9194 C.ar      14 UNK        -0.0844 
     10 C10       -51.9111  -25.5701    8.7881 C.ar      14 UNK        -0.0881 
     11 C11       -52.6341  -24.5140    9.3567 C.ar      14 UNK        -0.0643 
     12 C12       -53.8347  -24.7932   10.0181 C.ar      14 UNK        -0.0930 
     13 C13       -54.3085  -26.1041   10.1197 C.ar      14 UNK        -0.0827 
     14 C14       -53.5511  -27.1493    9.5848 C.ar      14 UNK        -0.1249 
     15 C15       -55.6767  -26.3790   10.7322 C.3       14 UNK         0.0141 
     16 S16       -55.6960  -26.2287   12.5450 S.3       14 UNK        -0.2313 
     17 C17       -54.9117  -27.7928   13.0590 C.3       14 UNK        -0.0915 
     18 CA        -55.9188  -28.9575   13.2345 C.3       13 UNK         0.0968 
     19 C         -55.1813  -30.2972   13.5308 C.2       13 UNK         0.5732 
     20 N         -55.4273  -30.9768   14.6459 N.am      13 UNK        -0.7310 
     21 O         -54.3772  -30.7421   12.7156 O.2       13 UNK        -0.5035 
     22 N         -56.9742  -28.6245   14.2021 N.am      13 UNK        -0.4233 
     23 C         -58.1910  -29.1832   14.2206 C.2       13 UNK         0.4989 
     24 O         -58.5903  -29.9709   13.3606 O.2       13 UNK        -0.4996 
     25 CA        -59.1161  -28.8015   15.3979 C.3       12 UNK         0.0216 
     26 CB        -60.1943  -29.8724   15.6716 C.3       12 UNK        -0.1964 
     27 N         -58.4019  -28.4694   16.6409 N.am      12 UNK        -0.4276 
     28 C         -57.5288  -29.2454   17.2992 C.2       12 UNK         0.5020 
     29 O         -57.1924  -30.3758   16.9366 O.2       12 UNK        -0.5489 
     30 CA        -56.9145  -28.6495   18.5761 C.3       11 UNK         0.0294 
     31 CB        -57.5773  -29.2512   19.8257 C.3       11 UNK        -0.2019 
     32 N         -55.4705  -28.8856   18.6295 N.am      11 UNK        -0.4493 
     33 C         -54.5852  -28.3525   17.7784 C.2       11 UNK         0.4932 
     34 O         -54.8869  -27.5667   16.8759 O.2       11 UNK        -0.5029 
     35 CA        -53.1289  -28.8083   17.9480 C.3       10 UNK         0.0280 
     36 CB        -52.8389  -30.0105   17.0349 C.3       10 UNK        -0.1976 
     37 N         -52.2183  -27.7172   17.6091 N.am      10 UNK        -0.4242 
     38 C         -51.8151  -26.7648   18.4636 C.2       10 UNK         0.5072 
     39 O         -52.0761  -26.7731   19.6679 O.2       10 UNK        -0.5224 
     40 CA        -50.9837  -25.5980   17.8896 C.3       9 UNK         0.0343 
     41 CB        -49.4803  -25.8871   18.0276 C.3       9 UNK        -0.2003 
     42 N         -51.2927  -25.3187   16.4864 N.am      9 UNK        -0.4272 
     43 C         -52.4648  -24.8384   16.0498 C.2       9 UNK         0.4988 
     44 O         -53.3219  -24.3687   16.7995 O.2       9 UNK        -0.5108 
     45 CA        -52.7557  -24.9012   14.5361 C.3       8 UNK         0.0248 
     46 CB        -52.8645  -23.4872   13.9398 C.3       8 UNK        -0.2001 
     47 N         -51.8262  -25.6836   13.7086 N.am      8 UNK        -0.4140 
     48 C         -51.4597  -26.9667   13.8513 C.2       8 UNK         0.5028 
     49 O         -51.8164  -27.6764   14.7897 O.2       8 UNK        -0.5428 
     50 CA        -50.5184  -27.5609   12.7860 C.3       7 UNK         0.0264 
     51 CB        -51.1428  -28.7984   12.1196 C.3       7 UNK        -0.1988 
     52 N         -50.1337  -26.6003   11.7471 N.am      7 UNK        -0.4454 
     53 C         -49.1725  -25.6785   11.8807 C.2       7 UNK         0.5027 
     54 O         -48.4875  -25.5396   12.8972 O.2       7 UNK        -0.5083 
     55 CA        -48.9822  -24.7195   10.6990 C.3       6 UNK         0.0844 
     56 C56       -49.8859  -23.4639   10.8423 C.3       14 UNK        -0.0967 
     57 S57       -50.3722  -22.7962    9.2181 S.3       14 UNK        -0.2604 
     58 C58       -52.1823  -23.0583    9.2210 C.3       14 UNK         0.0134 
     59 N         -47.5605  -24.3947   10.6493 N.am      6 UNK        -0.4116 
     60 C         -46.8380  -24.2317    9.5377 C.2       5 UNK         0.5034 
     61 O         -47.3229  -24.1823    8.4053 O.2       5 UNK        -0.5045 
     62 CA        -45.3135  -24.1235    9.7146 C.3       5 UNK         0.0224 
     63 CB        -44.7607  -25.0609   10.8112 C.3       5 UNK        -0.1978 
     64 N         -44.6849  -24.4334    8.4345 N.am      5 UNK        -0.4737 
     65 C         -43.4787  -24.0371    8.0182 C.2       4 UNK         0.5027 
     66 O         -42.6988  -23.3753    8.7036 O.2       4 UNK        -0.5211 
     67 CA        -43.0824  -24.4336    6.5872 C.3       4 UNK         0.0297 
     68 CB        -42.3970  -25.8090    6.5724 C.3       4 UNK        -0.1993 
     69 N         -44.2500  -24.4588    5.7015 N.am      4 UNK        -0.4486 
     70 C         -44.6670  -23.4094    4.9806 C.2       3 UNK         0.4961 
     71 O         -44.0648  -22.3343    4.9459 O.2       3 UNK        -0.5105 
     72 CA        -45.9792  -23.5601    4.1805 C.3       3 UNK         0.0299 
     73 CB        -45.9958  -22.6854    2.9086 C.3       3 UNK        -0.1972 
     74 N         -46.3552  -24.9411    3.8542 N.am      3 UNK        -0.4305 
     75 C         -45.6808  -25.8418    3.1249 C.2       2 UNK         0.5006 
     76 O         -44.5731  -25.6284    2.6292 O.2       2 UNK        -0.5106 
     77 CA        -46.3653  -27.2145    2.9207 C.3       2 UNK         0.0296 
     78 CB        -45.4301  -28.2501    2.2674 C.3       2 UNK        -0.2002 
     79 N         -46.8978  -27.7810    4.1656 N.am      2 UNK        -0.4032 
     80 C         -47.9995  -27.3700    4.8119 C.2       1 UNK         0.5000 
     81 O         -48.7382  -26.4878    4.3679 O.2       1 UNK        -0.5238 
     82 H82       -45.3710  -29.3341    8.6006 H         1 UNK         0.0889 
     83 H83       -44.5816  -27.7765    8.8403 H         1 UNK         0.0889 
     84 H84       -44.1364  -28.7856    7.4612 H         1 UNK         0.0889 
     85 H85       -47.1509  -29.4561    7.2030 H         1 UNK         0.3028 
     86 H86       -48.8835  -28.9091    5.9497 H         1 UNK         0.0864 
     87 H87       -50.0606  -26.7501    6.5300 H         1 UNK         0.0720 
     88 H88       -48.6414  -26.2191    7.3863 H         1 UNK         0.0720 
     89 H89       -51.9183  -29.0007    8.7395 H         1 UNK         0.0814 
     90 H90       -51.7911  -28.1245    7.2407 H         1 UNK         0.0814 
     91 H91       -51.0072  -25.3560    8.2374 H         1 UNK         0.1469 
     92 H92       -54.4235  -23.9845   10.4295 H         1 UNK         0.1381 
     93 H93       -53.9182  -28.1640    9.6603 H         1 UNK         0.1206 
     94 H94       -56.0396  -27.3673   10.4464 H         1 UNK         0.0813 
     95 H95       -56.3951  -25.6684   10.3211 H         1 UNK         0.0813 
     96 H96       -54.1412  -28.0480   12.3321 H         1 UNK         0.0638 
     97 H97       -54.3950  -27.6155   14.0026 H         1 UNK         0.0638 
     98 H98       -56.3992  -29.1065   12.2660 H         1 UNK         0.0568 
     99 H99       -54.9437  -31.8461   14.8000 H         1 UNK         0.3450 
    100 H100      -56.0949  -30.6463   15.3361 H         1 UNK         0.3450 
    101 H101      -56.7040  -28.0054   14.9530 H         1 UNK         0.2987 
    102 H102      -59.6291  -27.8899   15.0877 H         1 UNK         0.0766 
    103 H103      -60.8233  -30.0320   14.7948 H         1 UNK         0.0798 
    104 H104      -60.8520  -29.5745   16.4880 H         1 UNK         0.0798 
    105 H105      -59.7501  -30.8337   15.9328 H         1 UNK         0.0798 
    106 H106      -58.5930  -27.5491   17.0148 H         1 UNK         0.3198 
    107 H107      -57.0773  -27.5694   18.5829 H         1 UNK         0.0843 
    108 H108      -57.4332  -30.3313   19.8786 H         1 UNK         0.0831 
    109 H109      -58.6526  -29.0671   19.8234 H         1 UNK         0.0831 
    110 H110      -57.1769  -28.8125   20.7399 H         1 UNK         0.0831 
    111 H111      -55.1476  -29.5589   19.3092 H         1 UNK         0.3133 
    112 H112      -52.9628  -29.1125   18.9836 H         1 UNK         0.0566 
    113 H113      -53.0144  -29.7706   15.9852 H         1 UNK         0.0814 
    114 H114      -53.4813  -30.8559   17.2848 H         1 UNK         0.0814 
    115 H115      -51.8061  -30.3448   17.1330 H         1 UNK         0.0814 
    116 H116      -52.0189  -27.6090   16.6152 H         1 UNK         0.3091 
    117 H117      -51.2169  -24.7053   18.4738 H         1 UNK         0.0702 
    118 H118      -48.8806  -25.0424   17.6877 H         1 UNK         0.0785 
    119 H119      -49.1833  -26.7647   17.4519 H         1 UNK         0.0785 
    120 H120      -49.2140  -26.0744   19.0688 H         1 UNK         0.0785 
    121 H121      -50.6493  -25.6831   15.7993 H         1 UNK         0.2998 
    122 H122      -53.7317  -25.3768   14.4511 H         1 UNK         0.0697 
    123 H123      -51.9063  -22.9666   13.9591 H         1 UNK         0.0825 
    124 H124      -53.5772  -22.8787   14.4983 H         1 UNK         0.0825 
    125 H125      -53.2140  -23.5177   12.9074 H         1 UNK         0.0825 
    126 H126      -51.4656  -25.2081   12.8976 H         1 UNK         0.3029 
    127 H127      -49.6187  -27.8865   13.3130 H         1 UNK         0.0897 
    128 H128      -52.0208  -28.5417   11.5296 H         1 UNK         0.0792 
    129 H129      -51.4549  -29.5343   12.8623 H         1 UNK         0.0792 
    130 H130      -50.4307  -29.2916   11.4579 H         1 UNK         0.0792 
    131 H131      -50.6439  -26.6568   10.8744 H         1 UNK         0.3086 
    132 H132      -49.2463  -25.2729    9.7968 H         1 UNK         0.0583 
    133 H133      -50.7982  -23.6800   11.4006 H         1 UNK         0.1020 
    134 H134      -49.3791  -22.6818   11.4106 H         1 UNK         0.1020 
    135 H135      -52.6096  -22.4560   10.0245 H         1 UNK         0.0694 
    136 H136      -52.5883  -22.6600    8.2904 H         1 UNK         0.0694 
    137 H137      -47.0939  -24.4655   11.5444 H         1 UNK         0.2989 
    138 H138      -45.0890  -23.0871    9.9757 H         1 UNK         0.1055 
    139 H139      -45.0606  -26.0960   10.6438 H         1 UNK         0.0806 
    140 H140      -45.1113  -24.7704   11.8019 H         1 UNK         0.0806 
    141 H141      -43.6715  -25.0340   10.8467 H         1 UNK         0.0806 
    142 H142      -45.2763  -24.9646    7.7976 H         1 UNK         0.3061 
    143 H143      -42.3590  -23.6997    6.2256 H         1 UNK         0.0734 
    144 H144      -43.0553  -26.5939    6.9417 H         1 UNK         0.0832 
    145 H145      -42.0811  -26.0826    5.5656 H         1 UNK         0.0832 
    146 H146      -41.5072  -25.8066    7.2034 H         1 UNK         0.0832 
    147 H147      -44.8378  -25.2859    5.7468 H         1 UNK         0.3156 
    148 H148      -46.7661  -23.1920    4.8404 H         1 UNK         0.0589 
    149 H149      -46.9408  -22.7800    2.3737 H         1 UNK         0.0808 
    150 H150      -45.8709  -21.6300    3.1536 H         1 UNK         0.0808 
    151 H151      -45.1928  -22.9571    2.2225 H         1 UNK         0.0808 
    152 H152      -47.2604  -25.2423    4.2060 H         1 UNK         0.3098 
    153 H153      -47.2004  -27.0481    2.2369 H         1 UNK         0.0720 
    154 H154      -44.5570  -28.4532    2.8889 H         1 UNK         0.0791 
    155 H155      -45.0681  -27.8974    1.3006 H         1 UNK         0.0791 
    156 H156      -45.9447  -29.1948    2.0906 H         1 UNK         0.0791 
    157 H157      -46.3281  -28.4809    4.6183 H         1 UNK         0.3028 
@<TRIPOS>BOND
     1    1    2 1    
     2    1   82 1    
     3    1   83 1    
     4    1   84 1    
     5    2    3 2    
     6    2    4 am   BACKBONE|DICT|INTERRES
     7    4    5 1    
     8    4   85 1    
     9    5    6 1    
    10    5   80 1    
    11    5   86 1    
    12    6    7 1    
    13    6   87 1    
    14    6   88 1    
    15    7    8 1    
    16    8    9 1    
    17    8   89 1    
    18    8   90 1    
    19    9   10 ar   
    20    9   14 ar   
    21   10   11 ar   
    22   10   91 1    
    23   11   12 ar   
    24   11   58 1    
    25   12   13 ar   
    26   12   92 1    
    27   13   14 ar   
    28   13   15 1    
    29   14   93 1    
    30   15   16 1    
    31   15   94 1    
    32   15   95 1    
    33   16   17 1    
    34   17   18 1    
    35   17   96 1    
    36   17   97 1    
    37   18   19 1    
    38   18   22 1    
    39   18   98 1    
    40   19   20 am   BACKBONE|DICT|INTERRES
    41   19   21 2    
    42   20   99 1    
    43   20  100 1    
    44   22   23 am   BACKBONE|DICT|INTERRES
    45   22  101 1    
    46   23   24 2    
    47   23   25 1    
    48   25   26 1    
    49   25   27 1    
    50   25  102 1    
    51   26  103 1    
    52   26  104 1    
    53   26  105 1    
    54   27   28 am   BACKBONE|DICT|INTERRES
    55   27  106 1    
    56   28   29 2    
    57   28   30 1    
    58   30   31 1    
    59   30   32 1    
    60   30  107 1    
    61   31  108 1    
    62   31  109 1    
    63   31  110 1    
    64   32   33 am   BACKBONE|DICT|INTERRES
    65   32  111 1    
    66   33   34 2    
    67   33   35 1    
    68   35   36 1    
    69   35   37 1    
    70   35  112 1    
    71   36  113 1    
    72   36  114 1    
    73   36  115 1    
    74   37   38 am   BACKBONE|DICT|INTERRES
    75   37  116 1    
    76   38   39 2    
    77   38   40 1    
    78   40   41 1    
    79   40   42 1    
    80   40  117 1    
    81   41  118 1    
    82   41  119 1    
    83   41  120 1    
    84   42   43 am   BACKBONE|DICT|INTERRES
    85   42  121 1    
    86   43   44 2    
    87   43   45 1    
    88   45   46 1    
    89   45   47 1    
    90   45  122 1    
    91   46  123 1    
    92   46  124 1    
    93   46  125 1    
    94   47   48 am   BACKBONE|DICT|INTERRES
    95   47  126 1    
    96   48   49 2    
    97   48   50 1    
    98   50   51 1    
    99   50   52 1    
   100   50  127 1    
   101   51  128 1    
   102   51  129 1    
   103   51  130 1    
   104   52   53 am   BACKBONE|DICT|INTERRES
   105   52  131 1    
   106   53   54 2    
   107   53   55 1    
   108   55   56 1    
   109   55   59 1    
   110   55  132 1    
   111   56   57 1    
   112   56  133 1    
   113   56  134 1    
   114   57   58 1    
   115   58  135 1    
   116   58  136 1    
   117   59   60 am   BACKBONE|DICT|INTERRES
   118   59  137 1    
   119   60   61 2    
   120   60   62 1    
   121   62   63 1    
   122   62   64 1    
   123   62  138 1    
   124   63  139 1    
   125   63  140 1    
   126   63  141 1    
   127   64   65 am   BACKBONE|DICT|INTERRES
   128   64  142 1    
   129   65   66 2    
   130   65   67 1    
   131   67   68 1    
   132   67   69 1    
   133   67  143 1    
   134   68  144 1    
   135   68  145 1    
   136   68  146 1    
   137   69   70 am   BACKBONE|DICT|INTERRES
   138   69  147 1    
   139   70   71 2    
   140   70   72 1    
   141   72   73 1    
   142   72   74 1    
   143   72  148 1    
   144   73  149 1    
   145   73  150 1    
   146   73  151 1    
   147   74   75 am   BACKBONE|DICT|INTERRES
   148   74  152 1    
   149   75   76 2    
   150   75   77 1    
   151   77   78 1    
   152   77   79 1    
   153   77  153 1    
   154   78  154 1    
   155   78  155 1    
   156   78  156 1    
   157   79   80 am   BACKBONE|DICT|INTERRES
   158   79  157 1    
   159   80   81 2    
@<TRIPOS>SUBSTRUCTURE
     1 UNK         1 GROUP             0       ****    0 ROOT    
