@<TRIPOS>MOLECULE
3R207
157   159    1
SMALL
USER_CHARGES


@<TRIPOS>ATOM
      1 CA        -54.1731  -23.8338   10.6103 C.3       0 UNK        -0.1975 
      2 C         -52.8575  -24.3208   10.0305 C.2       0 UNK         0.4852 
      3 O         -52.2209  -23.5928    9.2691 O.2       0 UNK        -0.5216 
      4 N         -52.4276  -25.5344   10.4097 N.am      1 UNK        -0.4461 
      5 CA        -51.2132  -26.2181    9.9224 C.3       1 UNK         0.0864 
      6 C6        -51.2796  -26.5659    8.4046 C.3       14 UNK        -0.0898 
      7 S7        -52.8399  -27.3828    7.9101 S.3       14 UNK        -0.2598 
      8 C8        -52.3202  -29.1030    7.6136 C.3       14 UNK         0.0286 
      9 C9        -51.6850  -29.7388    8.8420 C.ar      14 UNK        -0.0844 
     10 C10       -50.3663  -30.1952    8.7934 C.ar      14 UNK        -0.0881 
     11 C11       -49.7587  -30.7588    9.9238 C.ar      14 UNK        -0.0643 
     12 C12       -50.5032  -30.8843   11.1022 C.ar      14 UNK        -0.0930 
     13 C13       -51.8310  -30.4503   11.1557 C.ar      14 UNK        -0.0827 
     14 C14       -52.4143  -29.8785   10.0237 C.ar      14 UNK        -0.1249 
     15 C15       -52.6493  -30.5957   12.4266 C.3       14 UNK         0.0141 
     16 S16       -53.7478  -32.0402   12.3200 S.3       14 UNK        -0.2313 
     17 C17       -55.2013  -31.4616   13.2552 C.3       14 UNK        -0.0915 
     18 CA        -56.3282  -30.9565   12.3166 C.3       13 UNK         0.0968 
     19 C         -57.6548  -30.7632   13.1000 C.2       13 UNK         0.5732 
     20 N         -58.4495  -31.8152   13.2411 N.am      13 UNK        -0.7310 
     21 O         -57.9511  -29.6848   13.6115 O.2       13 UNK        -0.5035 
     22 N         -55.9304  -29.7319   11.6091 N.am      13 UNK        -0.4233 
     23 C         -56.5423  -29.2369   10.5286 C.2       13 UNK         0.4989 
     24 O         -57.4433  -29.8190    9.9217 O.2       13 UNK        -0.4996 
     25 CA        -56.0892  -27.8324   10.0861 C.3       12 UNK         0.0216 
     26 CB        -56.7135  -27.3926    8.7490 C.3       12 UNK        -0.1964 
     27 N         -56.4122  -26.8436   11.1165 N.am      12 UNK        -0.4276 
     28 C         -55.6758  -26.6194   12.2100 C.2       12 UNK         0.5020 
     29 O         -54.6015  -27.1860   12.4381 O.2       12 UNK        -0.5489 
     30 CA        -56.2400  -25.6119   13.2166 C.3       11 UNK         0.0294 
     31 CB        -57.3605  -26.2436   14.0599 C.3       11 UNK        -0.2019 
     32 N         -55.1578  -25.1882   14.0964 N.am      11 UNK        -0.4493 
     33 C         -54.9448  -23.9423   14.5370 C.2       11 UNK         0.4932 
     34 O         -55.6972  -22.9952   14.2941 O.2       11 UNK        -0.5029 
     35 CA        -53.6891  -23.6960   15.3972 C.3       10 UNK         0.0280 
     36 CB        -54.0867  -23.2934   16.8277 C.3       10 UNK        -0.1976 
     37 N         -52.7726  -24.8396   15.4670 N.am      10 UNK        -0.4242 
     38 C         -51.9510  -25.2260   14.4840 C.2       10 UNK         0.5072 
     39 O         -51.8908  -24.6839   13.3783 O.2       10 UNK        -0.5224 
     40 CA        -51.0763  -26.4540   14.7719 C.3       9 UNK         0.0343 
     41 CB        -51.5402  -27.6584   13.9398 C.3       9 UNK        -0.2003 
     42 N         -49.6714  -26.1808   14.4791 N.am      9 UNK        -0.4272 
     43 C         -48.8570  -25.4539   15.2575 C.2       9 UNK         0.4988 
     44 O         -49.2196  -24.9212   16.3080 O.2       9 UNK        -0.5108 
     45 CA        -47.3956  -25.2957   14.7780 C.3       8 UNK         0.0248 
     46 CB        -46.4285  -24.9407   15.9280 C.3       8 UNK        -0.2001 
     47 N         -46.8918  -26.4476   14.0113 N.am      8 UNK        -0.4140 
     48 C         -46.8104  -27.7217   14.4321 C.2       8 UNK         0.5028 
     49 O         -47.1310  -28.0887   15.5632 O.2       8 UNK        -0.5428 
     50 CA        -46.3092  -28.7663   13.4194 C.3       7 UNK         0.0264 
     51 CB        -47.0076  -30.1316   13.5936 C.3       7 UNK        -0.1988 
     52 N         -46.4485  -28.3133   12.0300 N.am      7 UNK        -0.4454 
     53 C         -45.6447  -28.6955   11.0286 C.2       7 UNK         0.5027 
     54 O         -44.6636  -29.4260   11.1775 O.2       7 UNK        -0.5083 
     55 CA        -45.9967  -28.1674    9.6239 C.3       6 UNK         0.0844 
     56 C56       -47.3332  -28.7300    9.0881 C.3       14 UNK        -0.0967 
     57 S57       -47.2363  -30.4963    8.6395 S.3       14 UNK        -0.2604 
     58 C58       -48.3113  -31.2554    9.9082 C.3       14 UNK         0.0134 
     59 N         -45.9882  -26.7061    9.5739 N.am      6 UNK        -0.4116 
     60 C         -44.8806  -25.9498    9.5888 C.2       5 UNK         0.5034 
     61 O         -43.7471  -26.3971    9.7715 O.2       5 UNK        -0.5045 
     62 CA        -45.0764  -24.4438    9.3192 C.3       5 UNK         0.0224 
     63 CB        -43.7802  -23.7371    8.8690 C.3       5 UNK        -0.1978 
     64 N         -46.1702  -24.1734    8.3760 N.am      5 UNK        -0.4737 
     65 C         -46.2959  -24.6079    7.1098 C.2       4 UNK         0.5027 
     66 O         -45.4275  -25.2467    6.5156 O.2       4 UNK        -0.5211 
     67 CA        -47.6294  -24.3241    6.3905 C.3       4 UNK         0.0297 
     68 CB        -48.3435  -25.6422    6.0448 C.3       4 UNK        -0.1993 
     69 N         -48.5322  -23.5049    7.2004 N.am      4 UNK        -0.4486 
     70 C         -48.5597  -22.1656    7.2010 C.2       3 UNK         0.4961 
     71 O         -47.9027  -21.4639    6.4320 O.2       3 UNK        -0.5105 
     72 CA        -49.4459  -21.4936    8.2647 C.3       3 UNK         0.0299 
     73 CB        -50.8161  -21.1317    7.6708 C.3       3 UNK        -0.1972 
     74 N         -49.6253  -22.3176    9.4674 N.am      3 UNK        -0.4305 
     75 C         -48.6429  -22.5914   10.3423 C.2       2 UNK         0.5006 
     76 O         -47.4943  -22.1676   10.2221 O.2       2 UNK        -0.5106 
     77 CA        -48.9611  -23.5146   11.5322 C.3       2 UNK         0.0296 
     78 CB        -49.4165  -22.6576   12.7250 C.3       2 UNK        -0.2002 
     79 N         -49.9746  -24.5320   11.2434 N.am      2 UNK        -0.4032 
     80 C         -49.9062  -25.4551   10.2700 C.2       1 UNK         0.5000 
     81 O         -48.8710  -25.6756    9.6320 O.2       1 UNK        -0.5238 
     82 H82       -55.0059  -24.4090   10.1964 H         1 UNK         0.0889 
     83 H83       -54.3332  -22.7778   10.3709 H         1 UNK         0.0889 
     84 H84       -54.1675  -23.9360   11.6978 H         1 UNK         0.0889 
     85 H85       -52.9834  -26.0646   11.0703 H         1 UNK         0.3028 
     86 H86       -51.1585  -27.1599   10.4694 H         1 UNK         0.0864 
     87 H87       -51.1797  -25.6620    7.8012 H         1 UNK         0.0720 
     88 H88       -50.4423  -27.2069    8.1243 H         1 UNK         0.0720 
     89 H89       -51.6374  -29.1229    6.7628 H         1 UNK         0.0814 
     90 H90       -53.1923  -29.6893    7.3214 H         1 UNK         0.0814 
     91 H91       -49.8145  -30.1020    7.8691 H         1 UNK         0.1469 
     92 H92       -50.0511  -31.3294   11.9780 H         1 UNK         0.1381 
     93 H93       -53.4396  -29.5430   10.0617 H         1 UNK         0.1206 
     94 H94       -53.2316  -29.6864   12.5768 H         1 UNK         0.0813 
     95 H95       -52.0037  -30.6983   13.2998 H         1 UNK         0.0813 
     96 H96       -55.5504  -32.3089   13.8485 H         1 UNK         0.0638 
     97 H97       -54.9094  -30.6917   13.9721 H         1 UNK         0.0638 
     98 H98       -56.5079  -31.7249   11.5616 H         1 UNK         0.0568 
     99 H99       -59.3081  -31.7126   13.7590 H         1 UNK         0.3450 
    100 H100      -58.2117  -32.7078   12.8372 H         1 UNK         0.3450 
    101 H101      -55.2610  -29.1348   12.0799 H         1 UNK         0.2987 
    102 H102      -55.0073  -27.8606    9.9474 H         1 UNK         0.0766 
    103 H103      -56.3319  -26.4203    8.4364 H         1 UNK         0.0798 
    104 H104      -57.8006  -27.3258    8.8082 H         1 UNK         0.0798 
    105 H105      -56.4710  -28.1015    7.9561 H         1 UNK         0.0798 
    106 H106      -57.3013  -26.3726   11.0217 H         1 UNK         0.3198 
    107 H107      -56.6325  -24.7567   12.6617 H         1 UNK         0.0843 
    108 H108      -57.7615  -25.5320   14.7817 H         1 UNK         0.0831 
    109 H109      -57.0057  -27.1155   14.6115 H         1 UNK         0.0831 
    110 H110      -58.1911  -26.5729   13.4343 H         1 UNK         0.0831 
    111 H111      -54.4491  -25.8955   14.2522 H         1 UNK         0.3133 
    112 H112      -53.1521  -22.8587   14.9461 H         1 UNK         0.0566 
    113 H113      -53.2116  -23.0459   17.4291 H         1 UNK         0.0814 
    114 H114      -54.7310  -22.4129   16.8226 H         1 UNK         0.0814 
    115 H115      -54.6308  -24.0909   17.3355 H         1 UNK         0.0814 
    116 H116      -52.7595  -25.3504   16.3385 H         1 UNK         0.3091 
    117 H117      -51.1603  -26.7196   15.8281 H         1 UNK         0.0702 
    118 H118      -50.9190  -28.5340   14.1289 H         1 UNK         0.0785 
    119 H119      -51.5138  -27.4513   12.8699 H         1 UNK         0.0785 
    120 H120      -52.5664  -27.9283   14.1919 H         1 UNK         0.0785 
    121 H121      -49.3066  -26.5588   13.6200 H         1 UNK         0.2998 
    122 H122      -47.3969  -24.4499   14.0906 H         1 UNK         0.0697 
    123 H123      -46.4154  -25.7125   16.6983 H         1 UNK         0.0825 
    124 H124      -46.7181  -24.0063   16.4104 H         1 UNK         0.0825 
    125 H125      -45.4090  -24.8120   15.5649 H         1 UNK         0.0825 
    126 H126      -46.5416  -26.2364   13.0884 H         1 UNK         0.3029 
    127 H127      -45.2483  -28.8971   13.6442 H         1 UNK         0.0897 
    128 H128      -46.5738  -30.8857   12.9372 H         1 UNK         0.0792 
    129 H129      -46.9025  -30.5055   14.6129 H         1 UNK         0.0792 
    130 H130      -48.0743  -30.0669   13.3765 H         1 UNK         0.0792 
    131 H131      -47.2456  -27.7318   11.8168 H         1 UNK         0.3086 
    132 H132      -45.2087  -28.5066    8.9470 H         1 UNK         0.0583 
    133 H133      -48.1504  -28.5457    9.7869 H         1 UNK         0.1020 
    134 H134      -47.6119  -28.1992    8.1765 H         1 UNK         0.1020 
    135 H135      -48.3188  -32.3348    9.7527 H         1 UNK         0.0694 
    136 H136      -47.8539  -31.0869   10.8833 H         1 UNK         0.0694 
    137 H137      -46.8849  -26.2508    9.4370 H         1 UNK         0.2989 
    138 H138      -45.3754  -24.0049   10.2724 H         1 UNK         0.1055 
    139 H139      -43.0026  -23.8227    9.6291 H         1 UNK         0.0806 
    140 H140      -43.9483  -22.6737    8.6989 H         1 UNK         0.0806 
    141 H141      -43.3831  -24.1659    7.9484 H         1 UNK         0.0806 
    142 H142      -46.9255  -23.6160    8.7563 H         1 UNK         0.3061 
    143 H143      -47.3979  -23.8049    5.4581 H         1 UNK         0.0734 
    144 H144      -49.2887  -25.4618    5.5326 H         1 UNK         0.0832 
    145 H145      -47.7309  -26.2574    5.3843 H         1 UNK         0.0832 
    146 H146      -48.5511  -26.2330    6.9366 H         1 UNK         0.0832 
    147 H147      -49.0910  -23.9971    7.8845 H         1 UNK         0.3156 
    148 H148      -48.9539  -20.5663    8.5661 H         1 UNK         0.0589 
    149 H149      -51.3430  -22.0132    7.3033 H         1 UNK         0.0808 
    150 H150      -51.4537  -20.6428    8.4075 H         1 UNK         0.0808 
    151 H151      -50.7065  -20.4459    6.8296 H         1 UNK         0.0808 
    152 H152      -50.5467  -22.7322    9.5960 H         1 UNK         0.3098 
    153 H153      -48.0402  -24.0343   11.8009 H         1 UNK         0.0720 
    154 H154      -49.5939  -23.2579   13.6141 H         1 UNK         0.0791 
    155 H155      -50.3410  -22.1223   12.5039 H         1 UNK         0.0791 
    156 H156      -48.6619  -21.9137   12.9847 H         1 UNK         0.0791 
    157 H157      -50.8369  -24.4686   11.7809 H         1 UNK         0.3028 
@<TRIPOS>BOND
     1    1    2 1    
     2    1   82 1    
     3    1   83 1    
     4    1   84 1    
     5    2    3 2    
     6    2    4 am   BACKBONE|DICT|INTERRES
     7    4    5 1    
     8    4   85 1    
     9    5    6 1    
    10    5   80 1    
    11    5   86 1    
    12    6    7 1    
    13    6   87 1    
    14    6   88 1    
    15    7    8 1    
    16    8    9 1    
    17    8   89 1    
    18    8   90 1    
    19    9   10 ar   
    20    9   14 ar   
    21   10   11 ar   
    22   10   91 1    
    23   11   12 ar   
    24   11   58 1    
    25   12   13 ar   
    26   12   92 1    
    27   13   14 ar   
    28   13   15 1    
    29   14   93 1    
    30   15   16 1    
    31   15   94 1    
    32   15   95 1    
    33   16   17 1    
    34   17   18 1    
    35   17   96 1    
    36   17   97 1    
    37   18   19 1    
    38   18   22 1    
    39   18   98 1    
    40   19   20 am   BACKBONE|DICT|INTERRES
    41   19   21 2    
    42   20   99 1    
    43   20  100 1    
    44   22   23 am   BACKBONE|DICT|INTERRES
    45   22  101 1    
    46   23   24 2    
    47   23   25 1    
    48   25   26 1    
    49   25   27 1    
    50   25  102 1    
    51   26  103 1    
    52   26  104 1    
    53   26  105 1    
    54   27   28 am   BACKBONE|DICT|INTERRES
    55   27  106 1    
    56   28   29 2    
    57   28   30 1    
    58   30   31 1    
    59   30   32 1    
    60   30  107 1    
    61   31  108 1    
    62   31  109 1    
    63   31  110 1    
    64   32   33 am   BACKBONE|DICT|INTERRES
    65   32  111 1    
    66   33   34 2    
    67   33   35 1    
    68   35   36 1    
    69   35   37 1    
    70   35  112 1    
    71   36  113 1    
    72   36  114 1    
    73   36  115 1    
    74   37   38 am   BACKBONE|DICT|INTERRES
    75   37  116 1    
    76   38   39 2    
    77   38   40 1    
    78   40   41 1    
    79   40   42 1    
    80   40  117 1    
    81   41  118 1    
    82   41  119 1    
    83   41  120 1    
    84   42   43 am   BACKBONE|DICT|INTERRES
    85   42  121 1    
    86   43   44 2    
    87   43   45 1    
    88   45   46 1    
    89   45   47 1    
    90   45  122 1    
    91   46  123 1    
    92   46  124 1    
    93   46  125 1    
    94   47   48 am   BACKBONE|DICT|INTERRES
    95   47  126 1    
    96   48   49 2    
    97   48   50 1    
    98   50   51 1    
    99   50   52 1    
   100   50  127 1    
   101   51  128 1    
   102   51  129 1    
   103   51  130 1    
   104   52   53 am   BACKBONE|DICT|INTERRES
   105   52  131 1    
   106   53   54 2    
   107   53   55 1    
   108   55   56 1    
   109   55   59 1    
   110   55  132 1    
   111   56   57 1    
   112   56  133 1    
   113   56  134 1    
   114   57   58 1    
   115   58  135 1    
   116   58  136 1    
   117   59   60 am   BACKBONE|DICT|INTERRES
   118   59  137 1    
   119   60   61 2    
   120   60   62 1    
   121   62   63 1    
   122   62   64 1    
   123   62  138 1    
   124   63  139 1    
   125   63  140 1    
   126   63  141 1    
   127   64   65 am   BACKBONE|DICT|INTERRES
   128   64  142 1    
   129   65   66 2    
   130   65   67 1    
   131   67   68 1    
   132   67   69 1    
   133   67  143 1    
   134   68  144 1    
   135   68  145 1    
   136   68  146 1    
   137   69   70 am   BACKBONE|DICT|INTERRES
   138   69  147 1    
   139   70   71 2    
   140   70   72 1    
   141   72   73 1    
   142   72   74 1    
   143   72  148 1    
   144   73  149 1    
   145   73  150 1    
   146   73  151 1    
   147   74   75 am   BACKBONE|DICT|INTERRES
   148   74  152 1    
   149   75   76 2    
   150   75   77 1    
   151   77   78 1    
   152   77   79 1    
   153   77  153 1    
   154   78  154 1    
   155   78  155 1    
   156   78  156 1    
   157   79   80 am   BACKBONE|DICT|INTERRES
   158   79  157 1    
   159   80   81 2    
@<TRIPOS>SUBSTRUCTURE
     1 UNK         1 GROUP             0       ****    0 ROOT    
