@<TRIPOS>MOLECULE
3R207
157   159    1
SMALL
USER_CHARGES


@<TRIPOS>ATOM
      1 CA        -45.5929  -32.4937    3.4280 C.3       0 UNK        -0.1975 
      2 C         -46.2378  -31.1226    3.5691 C.2       0 UNK         0.4852 
      3 O         -45.6062  -30.1139    3.2511 O.2       0 UNK        -0.5216 
      4 N         -47.4928  -31.0778    4.0353 N.am      1 UNK        -0.4461 
      5 CA        -48.2419  -29.8478    4.3000 C.3       1 UNK         0.0864 
      6 C6        -49.7559  -30.1397    4.4262 C.3       14 UNK        -0.0898 
      7 S7        -50.7802  -28.6307    4.5134 S.3       14 UNK        -0.2598 
      8 C8        -52.3197  -29.3031    5.2185 C.3       14 UNK         0.0286 
      9 C9        -52.4628  -29.0419    6.7149 C.ar      14 UNK        -0.0844 
     10 C10       -51.5610  -29.5884    7.6353 C.ar      14 UNK        -0.0881 
     11 C11       -51.7456  -29.4055    9.0098 C.ar      14 UNK        -0.0643 
     12 C12       -52.8415  -28.6651    9.4651 C.ar      14 UNK        -0.0930 
     13 C13       -53.7431  -28.1046    8.5567 C.ar      14 UNK        -0.0827 
     14 C14       -53.5454  -28.2922    7.1857 C.ar      14 UNK        -0.1249 
     15 C15       -54.9485  -27.3181    9.0475 C.3       14 UNK         0.0141 
     16 S16       -56.3985  -28.4052    9.2123 S.3       14 UNK        -0.2313 
     17 C17       -57.7664  -27.1968    9.2735 C.3       14 UNK        -0.0915 
     18 CA        -58.6492  -27.2195   10.5585 C.3       13 UNK         0.0968 
     19 C         -59.4672  -28.5218   10.8267 C.2       13 UNK         0.5732 
     20 N         -59.5997  -29.4182    9.8579 N.am      13 UNK        -0.7310 
     21 O         -60.0533  -28.6893   11.8951 O.2       13 UNK        -0.5035 
     22 N         -57.9735  -26.6481   11.7357 N.am      13 UNK        -0.4233 
     23 C         -57.1928  -27.2774   12.6240 C.2       13 UNK         0.4989 
     24 O         -56.8773  -28.4695   12.5775 O.2       13 UNK        -0.4996 
     25 CA        -56.6952  -26.4091   13.7862 C.3       12 UNK         0.0216 
     26 CB        -57.8214  -26.1364   14.8006 C.3       12 UNK        -0.1964 
     27 N         -55.5932  -27.0870   14.4652 N.am      12 UNK        -0.4276 
     28 C         -54.4843  -26.4923   14.9127 C.2       12 UNK         0.5020 
     29 O         -54.2688  -25.2811   14.8081 O.2       12 UNK        -0.5489 
     30 CA        -53.4322  -27.4166   15.5553 C.3       11 UNK         0.0294 
     31 CB        -52.7416  -28.2712   14.4809 C.3       11 UNK        -0.2019 
     32 N         -52.4251  -26.6300   16.2737 N.am      11 UNK        -0.4493 
     33 C         -52.6243  -26.1050   17.4911 C.2       11 UNK         0.4932 
     34 O         -53.5853  -26.4017   18.2046 O.2       11 UNK        -0.5029 
     35 CA        -51.6241  -25.0388   17.9780 C.3       10 UNK         0.0280 
     36 CB        -51.6150  -24.8657   19.5130 C.3       10 UNK        -0.1976 
     37 N         -50.2671  -25.1960   17.4458 N.am      10 UNK        -0.4242 
     38 C         -49.3733  -26.1545   17.7358 C.2       10 UNK         0.5072 
     39 O         -49.6041  -27.0899   18.5038 O.2       10 UNK        -0.5224 
     40 CA        -47.9771  -26.0661   17.0784 C.3       9 UNK         0.0343 
     41 CB        -47.6213  -27.3753   16.3519 C.3       9 UNK        -0.2003 
     42 N         -47.8304  -24.9485   16.1411 N.am      9 UNK        -0.4272 
     43 C         -47.6211  -23.6680   16.4772 C.2       9 UNK         0.4988 
     44 O         -47.4324  -23.2861   17.6322 O.2       9 UNK        -0.5108 
     45 CA        -47.6876  -22.6295   15.3398 C.3       8 UNK         0.0248 
     46 CB        -46.3039  -22.4310   14.7020 C.3       8 UNK        -0.2001 
     47 N         -48.6741  -22.9650   14.3036 N.am      8 UNK        -0.4140 
     48 C         -49.9941  -23.0717   14.5242 C.2       8 UNK         0.5028 
     49 O         -50.5215  -22.8375   15.6113 O.2       8 UNK        -0.5428 
     50 CA        -50.8681  -23.5865   13.3680 C.3       7 UNK         0.0264 
     51 CB        -51.1898  -22.4585   12.3756 C.3       7 UNK        -0.1988 
     52 N         -50.2648  -24.7186   12.6601 N.am      7 UNK        -0.4454 
     53 C         -49.9887  -25.9064   13.2192 C.2       7 UNK         0.5027 
     54 O         -50.2678  -26.1876   14.3845 O.2       7 UNK        -0.5083 
     55 CA        -49.2313  -26.9347   12.3519 C.3       6 UNK         0.0844 
     56 C56       -50.2006  -27.6698   11.3972 C.3       14 UNK        -0.0967 
     57 S57       -49.3794  -28.9476   10.3907 S.3       14 UNK        -0.2604 
     58 C58       -50.7800  -30.0417   10.0004 C.3       14 UNK         0.0134 
     59 N         -48.1004  -26.3140   11.6551 N.am      6 UNK        -0.4116 
     60 C         -47.0551  -25.7369   12.2654 C.2       5 UNK         0.5034 
     61 O         -46.8815  -25.7444   13.4829 O.2       5 UNK        -0.5045 
     62 CA        -46.0711  -24.9637   11.3763 C.3       5 UNK         0.0224 
     63 CB        -44.9844  -25.8934   10.8130 C.3       5 UNK        -0.1978 
     64 N         -46.7671  -24.2726   10.2882 N.am      5 UNK        -0.4737 
     65 C         -47.5222  -23.1783   10.4641 C.2       4 UNK         0.5027 
     66 O         -47.6489  -22.6096   11.5483 O.2       4 UNK        -0.5211 
     67 CA        -48.2971  -22.6536    9.2417 C.3       4 UNK         0.0297 
     68 CB        -47.4143  -21.7107    8.4097 C.3       4 UNK        -0.1993 
     69 N         -48.8130  -23.7264    8.3867 N.am      4 UNK        -0.4486 
     70 C         -49.7530  -24.6073    8.7593 C.2       3 UNK         0.4961 
     71 O         -50.3385  -24.5562    9.8393 O.2       3 UNK        -0.5105 
     72 CA        -50.0628  -25.7652    7.7907 C.3       3 UNK         0.0299 
     73 CB        -51.2397  -25.3909    6.8771 C.3       3 UNK        -0.1972 
     74 N         -48.9221  -26.1977    6.9722 N.am      3 UNK        -0.4305 
     75 C         -47.7329  -26.5991    7.4482 C.2       2 UNK         0.5006 
     76 O         -47.4501  -26.6130    8.6466 O.2       2 UNK        -0.5106 
     77 CA        -46.6770  -26.9999    6.4013 C.3       2 UNK         0.0296 
     78 CB        -45.3850  -27.5670    7.0299 C.3       2 UNK        -0.2002 
     79 N         -47.2152  -27.9021    5.3766 N.am      2 UNK        -0.4032 
     80 C         -47.6775  -29.1496    5.5543 C.2       1 UNK         0.5000 
     81 O         -47.6799  -29.7532    6.6300 O.2       1 UNK        -0.5238 
     82 H82       -44.6964  -32.5512    4.0447 H         1 UNK         0.0889 
     83 H83       -45.3058  -32.6684    2.3915 H         1 UNK         0.0889 
     84 H84       -46.2661  -33.2948    3.7329 H         1 UNK         0.0889 
     85 H85       -47.9495  -31.9362    4.3089 H         1 UNK         0.3028 
     86 H86       -48.1047  -29.1904    3.4382 H         1 UNK         0.0864 
     87 H87       -49.9515  -30.7771    5.2892 H         1 UNK         0.0720 
     88 H88       -50.0930  -30.7059    3.5563 H         1 UNK         0.0720 
     89 H89       -52.3858  -30.3756    5.0310 H         1 UNK         0.0814 
     90 H90       -53.1550  -28.8572    4.6764 H         1 UNK         0.0814 
     91 H91       -50.7179  -30.1679    7.2894 H         1 UNK         0.1469 
     92 H92       -53.0016  -28.5355   10.5264 H         1 UNK         0.1381 
     93 H93       -54.2552  -27.8728    6.4858 H         1 UNK         0.1206 
     94 H94       -54.7379  -26.8450   10.0079 H         1 UNK         0.0813 
     95 H95       -55.1654  -26.5128    8.3439 H         1 UNK         0.0813 
     96 H96       -57.3624  -26.1923    9.1417 H         1 UNK         0.0638 
     97 H97       -58.3900  -27.3625    8.3937 H         1 UNK         0.0638 
     98 H98       -59.4400  -26.4948   10.3618 H         1 UNK         0.0568 
     99 H99       -60.1517  -30.2447   10.0239 H         1 UNK         0.3450 
    100 H100      -59.1140  -29.3016    8.9826 H         1 UNK         0.3450 
    101 H101      -58.1831  -25.6756   11.9057 H         1 UNK         0.2987 
    102 H102      -56.3498  -25.4616   13.3662 H         1 UNK         0.0766 
    103 H103      -57.4685  -25.5155   15.6245 H         1 UNK         0.0798 
    104 H104      -58.2137  -27.0619   15.2243 H         1 UNK         0.0798 
    105 H105      -58.6563  -25.6102   14.3365 H         1 UNK         0.0798 
    106 H106      -55.6689  -28.0964   14.4856 H         1 UNK         0.3198 
    107 H107      -53.9329  -28.0824   16.2619 H         1 UNK         0.0843 
    108 H108      -52.4041  -27.6538   13.6506 H         1 UNK         0.0831 
    109 H109      -53.4245  -29.0161   14.0710 H         1 UNK         0.0831 
    110 H110      -51.8793  -28.8050   14.8811 H         1 UNK         0.0831 
    111 H111      -51.6213  -26.3270   15.7283 H         1 UNK         0.3133 
    112 H112      -51.9865  -24.0995   17.5587 H         1 UNK         0.0566 
    113 H113      -50.9098  -24.0939   19.8214 H         1 UNK         0.0814 
    114 H114      -52.5983  -24.5673   19.8783 H         1 UNK         0.0814 
    115 H115      -51.3482  -25.7904   20.0251 H         1 UNK         0.0814 
    116 H116      -50.0002  -24.4860   16.7721 H         1 UNK         0.3091 
    117 H117      -47.2570  -25.9285   17.8874 H         1 UNK         0.0702 
    118 H118      -47.6321  -28.2224   17.0388 H         1 UNK         0.0785 
    119 H119      -48.3268  -27.5969   15.5513 H         1 UNK         0.0785 
    120 H120      -46.6240  -27.3276   15.9141 H         1 UNK         0.0785 
    121 H121      -47.9042  -25.1807   15.1558 H         1 UNK         0.2998 
    122 H122      -47.9937  -21.6793   15.7822 H         1 UNK         0.0697 
    123 H123      -45.9262  -23.3526   14.2604 H         1 UNK         0.0825 
    124 H124      -45.5760  -22.1064   15.4467 H         1 UNK         0.0825 
    125 H125      -46.3305  -21.6706   13.9212 H         1 UNK         0.0825 
    126 H126      -48.3218  -23.1076   13.3612 H         1 UNK         0.3029 
    127 H127      -51.8091  -23.9366   13.7993 H         1 UNK         0.0897 
    128 H128      -51.8642  -22.8023   11.5910 H         1 UNK         0.0792 
    129 H129      -50.2909  -22.0707   11.8966 H         1 UNK         0.0792 
    130 H130      -51.6774  -21.6234   12.8802 H         1 UNK         0.0792 
    131 H131      -50.0801  -24.5899   11.6666 H         1 UNK         0.3086 
    132 H132      -48.8122  -27.6789   13.0325 H         1 UNK         0.0583 
    133 H133      -50.9842  -28.1574   11.9760 H         1 UNK         0.1020 
    134 H134      -50.7058  -26.9717   10.7298 H         1 UNK         0.1020 
    135 H135      -50.3877  -30.9713    9.5854 H         1 UNK         0.0694 
    136 H136      -51.3006  -30.3190   10.9183 H         1 UNK         0.0694 
    137 H137      -48.1280  -26.3185   10.6413 H         1 UNK         0.2989 
    138 H138      -45.5796  -24.2122   11.9979 H         1 UNK         0.1055 
    139 H139      -44.3992  -26.3344   11.6210 H         1 UNK         0.0806 
    140 H140      -44.2912  -25.3518   10.1694 H         1 UNK         0.0806 
    141 H141      -45.4062  -26.7168   10.2367 H         1 UNK         0.0806 
    142 H142      -46.7921  -24.7499    9.3952 H         1 UNK         0.3061 
    143 H143      -49.1505  -22.0819    9.6127 H         1 UNK         0.0734 
    144 H144      -47.9735  -21.2656    7.5864 H         1 UNK         0.0832 
    145 H145      -47.0368  -20.8908    9.0225 H         1 UNK         0.0832 
    146 H146      -46.5502  -22.2276    7.9904 H         1 UNK         0.0832 
    147 H147      -48.3894  -23.8351    7.4770 H         1 UNK         0.3156 
    148 H148      -50.3645  -26.6249    8.3915 H         1 UNK         0.0589 
    149 H149      -50.9992  -24.5472    6.2294 H         1 UNK         0.0808 
    150 H150      -51.5340  -26.2279    6.2449 H         1 UNK         0.0808 
    151 H151      -52.1153  -25.1142    7.4662 H         1 UNK         0.0808 
    152 H152      -49.0735  -26.2287    5.9745 H         1 UNK         0.3098 
    153 H153      -46.4044  -26.0800    5.8820 H         1 UNK         0.0720 
    154 H154      -44.6600  -27.8458    6.2653 H         1 UNK         0.0791 
    155 H155      -45.5829  -28.4473    7.6424 H         1 UNK         0.0791 
    156 H156      -44.9086  -26.8270    7.6739 H         1 UNK         0.0791 
    157 H157      -47.2491  -27.5198    4.4414 H         1 UNK         0.3028 
@<TRIPOS>BOND
     1    1    2 1    
     2    1   82 1    
     3    1   83 1    
     4    1   84 1    
     5    2    3 2    
     6    2    4 am   BACKBONE|DICT|INTERRES
     7    4    5 1    
     8    4   85 1    
     9    5    6 1    
    10    5   80 1    
    11    5   86 1    
    12    6    7 1    
    13    6   87 1    
    14    6   88 1    
    15    7    8 1    
    16    8    9 1    
    17    8   89 1    
    18    8   90 1    
    19    9   10 ar   
    20    9   14 ar   
    21   10   11 ar   
    22   10   91 1    
    23   11   12 ar   
    24   11   58 1    
    25   12   13 ar   
    26   12   92 1    
    27   13   14 ar   
    28   13   15 1    
    29   14   93 1    
    30   15   16 1    
    31   15   94 1    
    32   15   95 1    
    33   16   17 1    
    34   17   18 1    
    35   17   96 1    
    36   17   97 1    
    37   18   19 1    
    38   18   22 1    
    39   18   98 1    
    40   19   20 am   BACKBONE|DICT|INTERRES
    41   19   21 2    
    42   20   99 1    
    43   20  100 1    
    44   22   23 am   BACKBONE|DICT|INTERRES
    45   22  101 1    
    46   23   24 2    
    47   23   25 1    
    48   25   26 1    
    49   25   27 1    
    50   25  102 1    
    51   26  103 1    
    52   26  104 1    
    53   26  105 1    
    54   27   28 am   BACKBONE|DICT|INTERRES
    55   27  106 1    
    56   28   29 2    
    57   28   30 1    
    58   30   31 1    
    59   30   32 1    
    60   30  107 1    
    61   31  108 1    
    62   31  109 1    
    63   31  110 1    
    64   32   33 am   BACKBONE|DICT|INTERRES
    65   32  111 1    
    66   33   34 2    
    67   33   35 1    
    68   35   36 1    
    69   35   37 1    
    70   35  112 1    
    71   36  113 1    
    72   36  114 1    
    73   36  115 1    
    74   37   38 am   BACKBONE|DICT|INTERRES
    75   37  116 1    
    76   38   39 2    
    77   38   40 1    
    78   40   41 1    
    79   40   42 1    
    80   40  117 1    
    81   41  118 1    
    82   41  119 1    
    83   41  120 1    
    84   42   43 am   BACKBONE|DICT|INTERRES
    85   42  121 1    
    86   43   44 2    
    87   43   45 1    
    88   45   46 1    
    89   45   47 1    
    90   45  122 1    
    91   46  123 1    
    92   46  124 1    
    93   46  125 1    
    94   47   48 am   BACKBONE|DICT|INTERRES
    95   47  126 1    
    96   48   49 2    
    97   48   50 1    
    98   50   51 1    
    99   50   52 1    
   100   50  127 1    
   101   51  128 1    
   102   51  129 1    
   103   51  130 1    
   104   52   53 am   BACKBONE|DICT|INTERRES
   105   52  131 1    
   106   53   54 2    
   107   53   55 1    
   108   55   56 1    
   109   55   59 1    
   110   55  132 1    
   111   56   57 1    
   112   56  133 1    
   113   56  134 1    
   114   57   58 1    
   115   58  135 1    
   116   58  136 1    
   117   59   60 am   BACKBONE|DICT|INTERRES
   118   59  137 1    
   119   60   61 2    
   120   60   62 1    
   121   62   63 1    
   122   62   64 1    
   123   62  138 1    
   124   63  139 1    
   125   63  140 1    
   126   63  141 1    
   127   64   65 am   BACKBONE|DICT|INTERRES
   128   64  142 1    
   129   65   66 2    
   130   65   67 1    
   131   67   68 1    
   132   67   69 1    
   133   67  143 1    
   134   68  144 1    
   135   68  145 1    
   136   68  146 1    
   137   69   70 am   BACKBONE|DICT|INTERRES
   138   69  147 1    
   139   70   71 2    
   140   70   72 1    
   141   72   73 1    
   142   72   74 1    
   143   72  148 1    
   144   73  149 1    
   145   73  150 1    
   146   73  151 1    
   147   74   75 am   BACKBONE|DICT|INTERRES
   148   74  152 1    
   149   75   76 2    
   150   75   77 1    
   151   77   78 1    
   152   77   79 1    
   153   77  153 1    
   154   78  154 1    
   155   78  155 1    
   156   78  156 1    
   157   79   80 am   BACKBONE|DICT|INTERRES
   158   79  157 1    
   159   80   81 2    
@<TRIPOS>SUBSTRUCTURE
     1 UNK         1 GROUP             0       ****    0 ROOT    
