@<TRIPOS>MOLECULE
3R207
157   159    1
SMALL
USER_CHARGES


@<TRIPOS>ATOM
      1 CA        -48.9327  -31.9257    3.6558 C.3       0 UNK        -0.1975 
      2 C         -48.3430  -30.5398    3.8722 C.2       0 UNK         0.4852 
      3 O         -47.4783  -30.1154    3.1045 O.2       0 UNK        -0.5216 
      4 N         -48.8073  -29.8311    4.9083 N.am      1 UNK        -0.4461 
      5 CA        -48.3149  -28.5089    5.3018 C.3       1 UNK         0.0864 
      6 C6        -49.3305  -27.7455    6.1887 C.3       14 UNK        -0.0898 
      7 S7        -50.9669  -27.5132    5.4071 S.3       14 UNK        -0.2598 
      8 C8        -51.9574  -28.8973    6.0735 C.3       14 UNK         0.0286 
      9 C9        -52.1663  -28.7949    7.5780 C.ar      14 UNK        -0.0844 
     10 C10       -51.3266  -29.4896    8.4532 C.ar      14 UNK        -0.0881 
     11 C11       -51.4607  -29.3421    9.8359 C.ar      14 UNK        -0.0643 
     12 C12       -52.4955  -28.5499   10.3423 C.ar      14 UNK        -0.0930 
     13 C13       -53.3753  -27.8891    9.4793 C.ar      14 UNK        -0.0827 
     14 C14       -53.1958  -28.0044    8.0972 C.ar      14 UNK        -0.1249 
     15 C15       -54.5027  -27.0266   10.0301 C.3       14 UNK         0.0141 
     16 S16       -56.0886  -27.9155   10.0771 S.3       14 UNK        -0.2313 
     17 C17       -55.9331  -28.9383   11.5822 C.3       14 UNK        -0.0915 
     18 CA        -56.7602  -28.3622   12.7645 C.3       13 UNK         0.0968 
     19 C         -56.9992  -29.4201   13.8805 C.2       13 UNK         0.5732 
     20 N         -56.6819  -29.1529   15.1400 N.am      13 UNK        -0.7310 
     21 O         -57.5033  -30.5051   13.6002 O.2       13 UNK        -0.5035 
     22 N         -56.1938  -27.0892   13.2444 N.am      13 UNK        -0.4233 
     23 C         -56.9141  -26.0559   13.6951 C.2       13 UNK         0.4989 
     24 O         -58.1419  -26.0659   13.8033 O.2       13 UNK        -0.4996 
     25 CA        -56.1087  -24.7966   14.0638 C.3       12 UNK         0.0216 
     26 CB        -57.0003  -23.5812   14.3999 C.3       12 UNK        -0.1964 
     27 N         -55.1295  -25.0427   15.1286 N.am      12 UNK        -0.4276 
     28 C         -55.3657  -25.3898   16.4024 C.2       12 UNK         0.5020 
     29 O         -56.4850  -25.6056   16.8704 O.2       12 UNK        -0.5489 
     30 CA        -54.1135  -25.5170   17.2899 C.3       11 UNK         0.0294 
     31 CB        -54.4309  -25.8224   18.7699 C.3       11 UNK        -0.2019 
     32 N         -53.1607  -26.4800   16.7303 N.am      11 UNK        -0.4493 
     33 C         -53.3285  -27.8009   16.5739 C.2       11 UNK         0.4932 
     34 O         -54.3065  -28.4249   16.9827 O.2       11 UNK        -0.5029 
     35 CA        -52.2374  -28.5639   15.8012 C.3       10 UNK         0.0280 
     36 CB        -52.7296  -28.8786   14.3790 C.3       10 UNK        -0.1976 
     37 N         -50.9586  -27.8513   15.7197 N.am      10 UNK        -0.4242 
     38 C         -50.1112  -27.6754   16.7435 C.2       10 UNK         0.5072 
     39 O         -50.2931  -28.1348   17.8718 O.2       10 UNK        -0.5224 
     40 CA        -48.8573  -26.8259   16.4692 C.3       9 UNK         0.0343 
     41 CB        -47.7686  -27.6662   15.7823 C.3       9 UNK        -0.2003 
     42 N         -49.1362  -25.6281   15.6707 N.am      9 UNK        -0.4272 
     43 C         -49.8926  -24.5984   16.0825 C.2       9 UNK         0.4988 
     44 O         -50.4150  -24.5322   17.1951 O.2       9 UNK        -0.5108 
     45 CA        -50.1431  -23.4655   15.0722 C.3       8 UNK         0.0248 
     46 CB        -48.9196  -22.5416   14.9653 C.3       8 UNK        -0.2001 
     47 N         -50.5029  -23.9692   13.7464 N.am      8 UNK        -0.4140 
     48 C         -51.6030  -24.6846   13.4784 C.2       8 UNK         0.5028 
     49 O         -52.4879  -24.9231   14.3002 O.2       8 UNK        -0.5428 
     50 CA        -51.7192  -25.2845   12.0713 C.3       7 UNK         0.0264 
     51 CB        -52.3482  -24.2850   11.0883 C.3       7 UNK        -0.1988 
     52 N         -50.4405  -25.7707   11.5501 N.am      7 UNK        -0.4454 
     53 C         -49.7497  -26.7934   12.0767 C.2       7 UNK         0.5027 
     54 O         -50.1244  -27.4307   13.0600 O.2       7 UNK        -0.5083 
     55 CA        -48.3977  -27.1301   11.4181 C.3       6 UNK         0.0844 
     56 C56       -48.5986  -27.9401   10.1129 C.3       14 UNK        -0.0967 
     57 S57       -48.7234  -29.7441   10.3872 S.3       14 UNK        -0.2604 
     58 C58       -50.4867  -30.0276   10.7875 C.3       14 UNK         0.0134 
     59 N         -47.6041  -25.9173   11.1990 N.am      6 UNK        -0.4116 
     60 C         -47.1249  -25.1369   12.1822 C.2       5 UNK         0.5034 
     61 O         -47.2273  -25.4017   13.3800 O.2       5 UNK        -0.5045 
     62 CA        -46.4821  -23.8000   11.7644 C.3       5 UNK         0.0224 
     63 CB        -44.9796  -23.9821   11.4997 C.3       5 UNK        -0.1978 
     64 N         -47.1177  -23.2072   10.5838 N.am      5 UNK        -0.4737 
     65 C         -48.4162  -22.8882   10.4978 C.2       4 UNK         0.5027 
     66 O         -49.1762  -22.9108   11.4643 O.2       4 UNK        -0.5211 
     67 CA        -48.9914  -22.5477    9.1099 C.3       4 UNK         0.0297 
     68 CB        -49.4217  -21.0729    9.0592 C.3       4 UNK        -0.1993 
     69 N         -48.1124  -22.8307    7.9677 N.am      4 UNK        -0.4486 
     70 C         -47.5982  -24.0179    7.6159 C.2       3 UNK         0.4961 
     71 O         -47.7481  -25.0626    8.2584 O.2       3 UNK        -0.5105 
     72 CA        -46.7274  -24.0014    6.3541 C.3       3 UNK         0.0299 
     73 CB        -45.4378  -23.1861    6.5765 C.3       3 UNK        -0.1972 
     74 N         -46.3705  -25.3620    5.9622 N.am      3 UNK        -0.4305 
     75 C         -46.1478  -25.7632    4.7041 C.2       2 UNK         0.5006 
     76 O         -46.2905  -25.0357    3.7209 O.2       2 UNK        -0.5106 
     77 CA        -45.6575  -27.2064    4.4882 C.3       2 UNK         0.0296 
     78 CB        -44.1598  -27.1979    4.1373 C.3       2 UNK        -0.2002 
     79 N         -45.8540  -28.0776    5.6505 N.am      2 UNK        -0.4032 
     80 C         -46.9757  -28.6911    6.0569 C.2       1 UNK         0.5000 
     81 O         -46.9668  -29.4190    7.0496 O.2       1 UNK        -0.5238 
     82 H82       -49.3896  -31.9885    2.6685 H         1 UNK         0.0889 
     83 H83       -49.6944  -32.1660    4.3974 H         1 UNK         0.0889 
     84 H84       -48.1491  -32.6803    3.7176 H         1 UNK         0.0889 
     85 H85       -49.4804  -30.2477    5.5325 H         1 UNK         0.3028 
     86 H86       -48.1834  -27.9230    4.3936 H         1 UNK         0.0864 
     87 H87       -48.9462  -26.7489    6.4105 H         1 UNK         0.0720 
     88 H88       -49.4421  -28.2290    7.1561 H         1 UNK         0.0720 
     89 H89       -51.4894  -29.8473    5.8156 H         1 UNK         0.0814 
     90 H90       -52.9275  -28.9004    5.5743 H         1 UNK         0.0814 
     91 H91       -50.5335  -30.1117    8.0619 H         1 UNK         0.1469 
     92 H92       -52.6099  -28.4446   11.4110 H         1 UNK         0.1381 
     93 H93       -53.8571  -27.4757    7.4241 H         1 UNK         0.1206 
     94 H94       -54.6191  -26.1410    9.4036 H         1 UNK         0.0813 
     95 H95       -54.2692  -26.6596   11.0277 H         1 UNK         0.0813 
     96 H96       -54.8862  -29.0567   11.8616 H         1 UNK         0.0638 
     97 H97       -56.2845  -29.9355   11.3114 H         1 UNK         0.0638 
     98 H98       -57.7597  -28.1585   12.3753 H         1 UNK         0.0568 
     99 H99       -56.8443  -29.8534   15.8451 H         1 UNK         0.3450 
    100 H100      -56.2687  -28.2721   15.4029 H         1 UNK         0.3450 
    101 H101      -55.1897  -27.0125   13.2281 H         1 UNK         0.2987 
    102 H102      -55.5306  -24.5330   13.1765 H         1 UNK         0.0766 
    103 H103      -56.4004  -22.6947   14.6054 H         1 UNK         0.0798 
    104 H104      -57.6334  -23.7661   15.2683 H         1 UNK         0.0798 
    105 H105      -57.6595  -23.3398   13.5651 H         1 UNK         0.0798 
    106 H106      -54.1499  -24.9411   14.8515 H         1 UNK         0.3198 
    107 H107      -53.6144  -24.5468   17.2595 H         1 UNK         0.0843 
    108 H108      -54.9813  -26.7559   18.8887 H         1 UNK         0.0831 
    109 H109      -55.0433  -25.0314   19.2042 H         1 UNK         0.0831 
    110 H110      -53.5196  -25.8915   19.3638 H         1 UNK         0.0831 
    111 H111      -52.3406  -26.0677   16.3026 H         1 UNK         0.3133 
    112 H112      -52.0674  -29.5091   16.3207 H         1 UNK         0.0566 
    113 H113      -52.0065  -29.4879   13.8377 H         1 UNK         0.0814 
    114 H114      -53.6679  -29.4349   14.4012 H         1 UNK         0.0814 
    115 H115      -52.8997  -27.9672   13.8061 H         1 UNK         0.0814 
    116 H116      -50.6854  -27.5097   14.7991 H         1 UNK         0.3091 
    117 H117      -48.4674  -26.4948   17.4340 H         1 UNK         0.0702 
    118 H118      -46.8457  -27.0979   15.6653 H         1 UNK         0.0785 
    119 H119      -48.0799  -28.0025   14.7928 H         1 UNK         0.0785 
    120 H120      -47.5309  -28.5539   16.3699 H         1 UNK         0.0785 
    121 H121      -48.7046  -25.5850   14.7527 H         1 UNK         0.2998 
    122 H122      -50.9846  -22.8730   15.4373 H         1 UNK         0.0697 
    123 H123      -48.0362  -23.0771   14.6181 H         1 UNK         0.0825 
    124 H124      -48.6757  -22.1055   15.9348 H         1 UNK         0.0825 
    125 H125      -49.1035  -21.7179   14.2750 H         1 UNK         0.0825 
    126 H126      -49.8759  -23.7449   12.9764 H         1 UNK         0.3029 
    127 H127      -52.3801  -26.1461   12.1545 H         1 UNK         0.0897 
    128 H128      -52.4647  -24.7222   10.0965 H         1 UNK         0.0792 
    129 H129      -51.7487  -23.3802   10.9866 H         1 UNK         0.0792 
    130 H130      -53.3391  -23.9793   11.4269 H         1 UNK         0.0792 
    131 H131      -50.0453  -25.2660   10.7710 H         1 UNK         0.3086 
    132 H132      -47.8328  -27.7442   12.1231 H         1 UNK         0.0583 
    133 H133      -49.4405  -27.5717    9.5244 H         1 UNK         0.1020 
    134 H134      -47.7309  -27.8070    9.4642 H         1 UNK         0.1020 
    135 H135      -50.6785  -31.1010   10.7682 H         1 UNK         0.0694 
    136 H136      -50.6619  -29.7098   11.8151 H         1 UNK         0.0694 
    137 H137      -47.5025  -25.6071   10.2380 H         1 UNK         0.2989 
    138 H138      -46.6057  -23.1018   12.5949 H         1 UNK         0.1055 
    139 H139      -44.4794  -24.4065   12.3716 H         1 UNK         0.0806 
    140 H140      -44.4961  -23.0291   11.2838 H         1 UNK         0.0806 
    141 H141      -44.7940  -24.6519   10.6590 H         1 UNK         0.0806 
    142 H142      -46.5641  -23.1575    9.7414 H         1 UNK         0.3061 
    143 H143      -49.8836  -23.1646    8.9857 H         1 UNK         0.0734 
    144 H144      -49.9378  -20.8395    8.1278 H         1 UNK         0.0832 
    145 H145      -50.1096  -20.8371    9.8728 H         1 UNK         0.0832 
    146 H146      -48.5680  -20.4002    9.1508 H         1 UNK         0.0832 
    147 H147      -47.9051  -22.0392    7.3750 H         1 UNK         0.3156 
    148 H148      -47.3175  -23.5368    5.5611 H         1 UNK         0.0589 
    149 H149      -44.8292  -23.6072    7.3779 H         1 UNK         0.0808 
    150 H150      -44.8258  -23.1612    5.6745 H         1 UNK         0.0808 
    151 H151      -45.6548  -22.1503    6.8393 H         1 UNK         0.0808 
    152 H152      -46.2967  -26.0213    6.7259 H         1 UNK         0.3098 
    153 H153      -46.1821  -27.6219    3.6266 H         1 UNK         0.0720 
    154 H154      -43.7975  -28.2028    3.9190 H         1 UNK         0.0791 
    155 H155      -43.5548  -26.7904    4.9485 H         1 UNK         0.0791 
    156 H156      -43.9682  -26.5895    3.2520 H         1 UNK         0.0791 
    157 H157      -45.0216  -28.2493    6.1952 H         1 UNK         0.3028 
@<TRIPOS>BOND
     1    1    2 1    
     2    1   82 1    
     3    1   83 1    
     4    1   84 1    
     5    2    3 2    
     6    2    4 am   BACKBONE|DICT|INTERRES
     7    4    5 1    
     8    4   85 1    
     9    5    6 1    
    10    5   80 1    
    11    5   86 1    
    12    6    7 1    
    13    6   87 1    
    14    6   88 1    
    15    7    8 1    
    16    8    9 1    
    17    8   89 1    
    18    8   90 1    
    19    9   10 ar   
    20    9   14 ar   
    21   10   11 ar   
    22   10   91 1    
    23   11   12 ar   
    24   11   58 1    
    25   12   13 ar   
    26   12   92 1    
    27   13   14 ar   
    28   13   15 1    
    29   14   93 1    
    30   15   16 1    
    31   15   94 1    
    32   15   95 1    
    33   16   17 1    
    34   17   18 1    
    35   17   96 1    
    36   17   97 1    
    37   18   19 1    
    38   18   22 1    
    39   18   98 1    
    40   19   20 am   BACKBONE|DICT|INTERRES
    41   19   21 2    
    42   20   99 1    
    43   20  100 1    
    44   22   23 am   BACKBONE|DICT|INTERRES
    45   22  101 1    
    46   23   24 2    
    47   23   25 1    
    48   25   26 1    
    49   25   27 1    
    50   25  102 1    
    51   26  103 1    
    52   26  104 1    
    53   26  105 1    
    54   27   28 am   BACKBONE|DICT|INTERRES
    55   27  106 1    
    56   28   29 2    
    57   28   30 1    
    58   30   31 1    
    59   30   32 1    
    60   30  107 1    
    61   31  108 1    
    62   31  109 1    
    63   31  110 1    
    64   32   33 am   BACKBONE|DICT|INTERRES
    65   32  111 1    
    66   33   34 2    
    67   33   35 1    
    68   35   36 1    
    69   35   37 1    
    70   35  112 1    
    71   36  113 1    
    72   36  114 1    
    73   36  115 1    
    74   37   38 am   BACKBONE|DICT|INTERRES
    75   37  116 1    
    76   38   39 2    
    77   38   40 1    
    78   40   41 1    
    79   40   42 1    
    80   40  117 1    
    81   41  118 1    
    82   41  119 1    
    83   41  120 1    
    84   42   43 am   BACKBONE|DICT|INTERRES
    85   42  121 1    
    86   43   44 2    
    87   43   45 1    
    88   45   46 1    
    89   45   47 1    
    90   45  122 1    
    91   46  123 1    
    92   46  124 1    
    93   46  125 1    
    94   47   48 am   BACKBONE|DICT|INTERRES
    95   47  126 1    
    96   48   49 2    
    97   48   50 1    
    98   50   51 1    
    99   50   52 1    
   100   50  127 1    
   101   51  128 1    
   102   51  129 1    
   103   51  130 1    
   104   52   53 am   BACKBONE|DICT|INTERRES
   105   52  131 1    
   106   53   54 2    
   107   53   55 1    
   108   55   56 1    
   109   55   59 1    
   110   55  132 1    
   111   56   57 1    
   112   56  133 1    
   113   56  134 1    
   114   57   58 1    
   115   58  135 1    
   116   58  136 1    
   117   59   60 am   BACKBONE|DICT|INTERRES
   118   59  137 1    
   119   60   61 2    
   120   60   62 1    
   121   62   63 1    
   122   62   64 1    
   123   62  138 1    
   124   63  139 1    
   125   63  140 1    
   126   63  141 1    
   127   64   65 am   BACKBONE|DICT|INTERRES
   128   64  142 1    
   129   65   66 2    
   130   65   67 1    
   131   67   68 1    
   132   67   69 1    
   133   67  143 1    
   134   68  144 1    
   135   68  145 1    
   136   68  146 1    
   137   69   70 am   BACKBONE|DICT|INTERRES
   138   69  147 1    
   139   70   71 2    
   140   70   72 1    
   141   72   73 1    
   142   72   74 1    
   143   72  148 1    
   144   73  149 1    
   145   73  150 1    
   146   73  151 1    
   147   74   75 am   BACKBONE|DICT|INTERRES
   148   74  152 1    
   149   75   76 2    
   150   75   77 1    
   151   77   78 1    
   152   77   79 1    
   153   77  153 1    
   154   78  154 1    
   155   78  155 1    
   156   78  156 1    
   157   79   80 am   BACKBONE|DICT|INTERRES
   158   79  157 1    
   159   80   81 2    
@<TRIPOS>SUBSTRUCTURE
     1 UNK         1 GROUP             0       ****    0 ROOT    
