@<TRIPOS>MOLECULE
3R207
157   159    1
SMALL
USER_CHARGES


@<TRIPOS>ATOM
      1 CA        -50.3040  -29.1773    5.1433 C.3       0 UNK        -0.1975 
      2 C         -49.6569  -27.8082    5.0173 C.2       0 UNK         0.4852 
      3 O         -48.6828  -27.5153    5.7140 O.2       0 UNK        -0.5216 
      4 N         -50.1722  -26.9755    4.1014 N.am      1 UNK        -0.4461 
      5 CA        -49.7389  -25.5921    3.8354 C.3       1 UNK         0.0864 
      6 C6        -50.0317  -24.6292    5.0191 C.3       14 UNK        -0.0898 
      7 S7        -51.7743  -24.6057    5.5627 S.3       14 UNK        -0.2598 
      8 C8        -51.5864  -24.2140    7.3364 C.3       14 UNK         0.0286 
      9 C9        -51.8215  -25.4281    8.2278 C.ar      14 UNK        -0.0844 
     10 C10       -50.9055  -26.4834    8.2497 C.ar      14 UNK        -0.0881 
     11 C11       -51.1322  -27.6104    9.0468 C.ar      14 UNK        -0.0643 
     12 C12       -52.2754  -27.6646    9.8493 C.ar      14 UNK        -0.0930 
     13 C13       -53.1938  -26.6100    9.8492 C.ar      14 UNK        -0.0827 
     14 C14       -52.9605  -25.4956    9.0367 C.ar      14 UNK        -0.1249 
     15 C15       -54.4792  -26.7103   10.6588 C.3       14 UNK         0.0141 
     16 S16       -54.1932  -26.8936   12.4505 S.3       14 UNK        -0.2313 
     17 C17       -55.9057  -27.2316   12.9996 C.3       14 UNK        -0.0915 
     18 CA        -56.2101  -28.7151   13.3469 C.3       13 UNK         0.0968 
     19 C         -55.9772  -29.6791   12.1449 C.2       13 UNK         0.5732 
     20 N         -55.0016  -30.5788   12.1940 N.am      13 UNK        -0.7310 
     21 O         -56.7053  -29.6139   11.1573 O.2       13 UNK        -0.5035 
     22 N         -55.5975  -29.1243   14.6216 N.am      13 UNK        -0.4233 
     23 C         -55.9728  -30.2076   15.3197 C.2       13 UNK         0.4989 
     24 O         -56.8556  -30.9878   14.9605 O.2       13 UNK        -0.4996 
     25 CA        -55.2743  -30.4451   16.6643 C.3       12 UNK         0.0216 
     26 CB        -53.8287  -30.9325   16.4634 C.3       12 UNK        -0.1964 
     27 N         -55.2926  -29.2222   17.4670 N.am      12 UNK        -0.4276 
     28 C         -56.2843  -28.8822   18.3042 C.2       12 UNK         0.5020 
     29 O         -57.2459  -29.6105   18.5546 O.2       12 UNK        -0.5489 
     30 CA        -56.2011  -27.5056   18.9920 C.3       11 UNK         0.0294 
     31 CB        -55.6244  -27.6493   20.4099 C.3       11 UNK        -0.2019 
     32 N         -55.4031  -26.5311   18.2463 N.am      11 UNK        -0.4493 
     33 C         -55.7816  -25.9482   17.0999 C.2       11 UNK         0.4932 
     34 O         -56.8920  -26.0953   16.5898 O.2       11 UNK        -0.5029 
     35 CA        -54.7311  -25.0772   16.3857 C.3       10 UNK         0.0280 
     36 CB        -54.9105  -23.5978   16.7596 C.3       10 UNK        -0.1976 
     37 N         -53.3427  -25.4753   16.6441 N.am      10 UNK        -0.4242 
     38 C         -52.8074  -26.6726   16.3682 C.2       10 UNK         0.5072 
     39 O         -53.4567  -27.6162   15.9132 O.2       10 UNK        -0.5224 
     40 CA        -51.3085  -26.8392   16.6779 C.3       9 UNK         0.0343 
     41 CB        -50.7732  -28.2311   16.2933 C.3       9 UNK        -0.2003 
     42 N         -50.5212  -25.8116   15.9947 N.am      9 UNK        -0.4272 
     43 C         -50.3105  -24.5706   16.4610 C.2       9 UNK         0.4988 
     44 O         -50.7384  -24.1782   17.5472 O.2       9 UNK        -0.5108 
     45 CA        -49.5336  -23.5862   15.5673 C.3       8 UNK         0.0248 
     46 CB        -48.0512  -23.5523   15.9701 C.3       8 UNK        -0.2001 
     47 N         -49.6421  -23.8951   14.1410 N.am      8 UNK        -0.4140 
     48 C         -50.7764  -23.8188   13.4264 C.2       8 UNK         0.5028 
     49 O         -51.8302  -23.3600   13.8685 O.2       8 UNK        -0.5428 
     50 CA        -50.7389  -24.3592   11.9842 C.3       7 UNK         0.0264 
     51 CB        -50.6493  -23.1884   10.9940 C.3       7 UNK        -0.1988 
     52 N         -49.6432  -25.3067   11.7336 N.am      7 UNK        -0.4454 
     53 C         -49.5167  -26.4936   12.3532 C.2       7 UNK         0.5027 
     54 O         -50.3362  -26.9099   13.1713 O.2       7 UNK        -0.5083 
     55 CA        -48.2466  -27.3387   12.1091 C.3       6 UNK         0.0844 
     56 C56       -48.5445  -28.6217   11.2928 C.3       14 UNK        -0.0967 
     57 S57       -48.4891  -28.3827    9.4805 S.3       14 UNK        -0.2604 
     58 C58       -50.1845  -28.7994    8.9785 C.3       14 UNK         0.0134 
     59 N         -47.1227  -26.5911   11.5479 N.am      6 UNK        -0.4116 
     60 C         -46.4767  -25.5640   12.1086 C.2       5 UNK         0.5034 
     61 O         -46.7033  -25.1436   13.2434 O.2       5 UNK        -0.5045 
     62 CA        -45.4446  -24.8531   11.2134 C.3       5 UNK         0.0224 
     63 CB        -44.0410  -25.4342   11.4438 C.3       5 UNK        -0.1978 
     64 N         -45.7629  -24.9101    9.7773 N.am      5 UNK        -0.4737 
     65 C         -46.8824  -24.4389    9.2139 C.2       4 UNK         0.5027 
     66 O         -47.7936  -23.9301    9.8637 O.2       4 UNK        -0.5211 
     67 CA        -47.0504  -24.5596    7.6904 C.3       4 UNK         0.0297 
     68 CB        -46.4376  -23.3425    6.9735 C.3       4 UNK        -0.1993 
     69 N         -46.6076  -25.8191    7.0709 N.am      4 UNK        -0.4486 
     70 C         -45.3673  -26.3235    6.9834 C.2       3 UNK         0.4961 
     71 O         -44.3781  -25.8341    7.5297 O.2       3 UNK        -0.5105 
     72 CA        -45.1995  -27.5775    6.1144 C.3       3 UNK         0.0299 
     73 CB        -45.6971  -28.8321    6.8506 C.3       3 UNK        -0.1972 
     74 N         -45.9098  -27.4301    4.8417 N.am      3 UNK        -0.4305 
     75 C         -45.3834  -26.8732    3.7397 C.2       2 UNK         0.5006 
     76 O         -44.2183  -26.4807    3.6634 O.2       2 UNK        -0.5106 
     77 CA        -46.2919  -26.7363    2.5012 C.3       2 UNK         0.0296 
     78 CB        -46.1131  -27.9465    1.5697 C.3       2 UNK        -0.2002 
     79 N         -47.7105  -26.5899    2.8335 N.am      2 UNK        -0.4032 
     80 C         -48.2591  -25.4931    3.3782 C.2       1 UNK         0.5000 
     81 O         -47.6358  -24.4417    3.5374 O.2       1 UNK        -0.5238 
     82 H82       -50.6121  -29.5596    4.1701 H         1 UNK         0.0889 
     83 H83       -51.1835  -29.1187    5.7842 H         1 UNK         0.0889 
     84 H84       -49.6052  -29.8912    5.5794 H         1 UNK         0.0889 
     85 H85       -50.9697  -27.2817    3.5607 H         1 UNK         0.3028 
     86 H86       -50.3278  -25.2506    2.9828 H         1 UNK         0.0864 
     87 H87       -49.7611  -23.6031    4.7634 H         1 UNK         0.0720 
     88 H88       -49.4077  -24.9091    5.8625 H         1 UNK         0.0720 
     89 H89       -52.2947  -23.4224    7.5854 H         1 UNK         0.0814 
     90 H90       -50.5984  -23.7970    7.5353 H         1 UNK         0.0814 
     91 H91       -50.0237  -26.4402    7.6282 H         1 UNK         0.1469 
     92 H92       -52.4684  -28.5373   10.4583 H         1 UNK         0.1381 
     93 H93       -53.6769  -24.6857    9.0200 H         1 UNK         0.1206 
     94 H94       -55.0467  -27.5645   10.2892 H         1 UNK         0.0813 
     95 H95       -55.1064  -25.8326   10.4955 H         1 UNK         0.0813 
     96 H96       -56.6018  -26.8844   12.2342 H         1 UNK         0.0638 
     97 H97       -56.1096  -26.6060   13.8686 H         1 UNK         0.0638 
     98 H98       -57.2869  -28.7566   13.5233 H         1 UNK         0.0568 
     99 H99       -54.8656  -31.2033   11.4155 H         1 UNK         0.3450 
    100 H100      -54.3983  -30.6305   12.9981 H         1 UNK         0.3450 
    101 H101      -54.8403  -28.5414   14.9697 H         1 UNK         0.2987 
    102 H102      -55.8157  -31.2331   17.1927 H         1 UNK         0.0766 
    103 H103      -53.3279  -31.0900   17.4188 H         1 UNK         0.0798 
    104 H104      -53.2306  -30.2288   15.8846 H         1 UNK         0.0798 
    105 H105      -53.8130  -31.8835   15.9296 H         1 UNK         0.0798 
    106 H106      -54.5790  -28.5356   17.2451 H         1 UNK         0.3198 
    107 H107      -57.2197  -27.1196   19.0748 H         1 UNK         0.0843 
    108 H108      -54.6007  -28.0256   20.3952 H         1 UNK         0.0831 
    109 H109      -56.2183  -28.3468   21.0026 H         1 UNK         0.0831 
    110 H110      -55.6263  -26.6959   20.9388 H         1 UNK         0.0831 
    111 H111      -54.4782  -26.3311   18.5985 H         1 UNK         0.3133 
    112 H112      -54.8972  -25.1769   15.3117 H         1 UNK         0.0566 
    113 H113      -54.2372  -22.9605   16.1853 H         1 UNK         0.0814 
    114 H114      -55.9276  -23.2626   16.5509 H         1 UNK         0.0814 
    115 H115      -54.7192  -23.4221   17.8190 H         1 UNK         0.0814 
    116 H116      -52.7236  -24.7664   17.0207 H         1 UNK         0.3091 
    117 H117      -51.1850  -26.7287   17.7573 H         1 UNK         0.0702 
    118 H118      -49.7044  -28.3152   16.4899 H         1 UNK         0.0785 
    119 H119      -50.9395  -28.4528   15.2386 H         1 UNK         0.0785 
    120 H120      -51.2703  -29.0108   16.8713 H         1 UNK         0.0785 
    121 H121      -50.2309  -26.0395   15.0497 H         1 UNK         0.2998 
    122 H122      -49.9556  -22.5919   15.7276 H         1 UNK         0.0697 
    123 H123      -47.5735  -24.5236   15.8341 H         1 UNK         0.0825 
    124 H124      -47.9382  -23.2776   17.0199 H         1 UNK         0.0825 
    125 H125      -47.4954  -22.8213   15.3826 H         1 UNK         0.0825 
    126 H126      -48.8145  -24.2699   13.6938 H         1 UNK         0.3029 
    127 H127      -51.6768  -24.8907   11.8084 H         1 UNK         0.0897 
    128 H128      -50.6052  -23.5407    9.9657 H         1 UNK         0.0792 
    129 H129      -49.7647  -22.5761   11.1732 H         1 UNK         0.0792 
    130 H130      -51.5210  -22.5384   11.0789 H         1 UNK         0.0792 
    131 H131      -48.9284  -25.0024   11.0782 H         1 UNK         0.3086 
    132 H132      -47.9269  -27.6624   13.1020 H         1 UNK         0.0583 
    133 H133      -47.7896  -29.3722   11.5325 H         1 UNK         0.1020 
    134 H134      -49.4929  -29.0714   11.5943 H         1 UNK         0.1020 
    135 H135      -50.1509  -29.1554    7.9505 H         1 UNK         0.0694 
    136 H136      -50.5528  -29.6380    9.5712 H         1 UNK         0.0694 
    137 H137      -46.8815  -26.8351   10.5978 H         1 UNK         0.2989 
    138 H138      -45.4372  -23.8012   11.5069 H         1 UNK         0.1055 
    139 H139      -43.7671  -25.3891   12.4990 H         1 UNK         0.0806 
    140 H140      -43.2853  -24.8764   10.8902 H         1 UNK         0.0806 
    141 H141      -43.9806  -26.4784   11.1342 H         1 UNK         0.0806 
    142 H142      -45.0602  -25.2962    9.1492 H         1 UNK         0.3061 
    143 H143      -48.1255  -24.5202    7.5306 H         1 UNK         0.0734 
    144 H144      -46.6656  -23.3557    5.9077 H         1 UNK         0.0832 
    145 H145      -46.8352  -22.4106    7.3778 H         1 UNK         0.0832 
    146 H146      -45.3533  -23.3078    7.0842 H         1 UNK         0.0832 
    147 H147      -47.3467  -26.3605    6.6288 H         1 UNK         0.3156 
    148 H148      -44.1328  -27.7109    5.9215 H         1 UNK         0.0589 
    149 H149      -46.7690  -28.7961    7.0441 H         1 UNK         0.0808 
    150 H150      -45.4949  -29.7339    6.2727 H         1 UNK         0.0808 
    151 H151      -45.1967  -28.9448    7.8133 H         1 UNK         0.0808 
    152 H152      -46.8972  -27.6631    4.8539 H         1 UNK         0.3098 
    153 H153      -45.9754  -25.8420    1.9597 H         1 UNK         0.0720 
    154 H154      -46.6894  -27.8297    0.6517 H         1 UNK         0.0791 
    155 H155      -46.4255  -28.8757    2.0482 H         1 UNK         0.0791 
    156 H156      -45.0677  -28.0646    1.2807 H         1 UNK         0.0791 
    157 H157      -48.2943  -27.4057    2.7199 H         1 UNK         0.3028 
@<TRIPOS>BOND
     1    1    2 1    
     2    1   82 1    
     3    1   83 1    
     4    1   84 1    
     5    2    3 2    
     6    2    4 am   BACKBONE|DICT|INTERRES
     7    4    5 1    
     8    4   85 1    
     9    5    6 1    
    10    5   80 1    
    11    5   86 1    
    12    6    7 1    
    13    6   87 1    
    14    6   88 1    
    15    7    8 1    
    16    8    9 1    
    17    8   89 1    
    18    8   90 1    
    19    9   10 ar   
    20    9   14 ar   
    21   10   11 ar   
    22   10   91 1    
    23   11   12 ar   
    24   11   58 1    
    25   12   13 ar   
    26   12   92 1    
    27   13   14 ar   
    28   13   15 1    
    29   14   93 1    
    30   15   16 1    
    31   15   94 1    
    32   15   95 1    
    33   16   17 1    
    34   17   18 1    
    35   17   96 1    
    36   17   97 1    
    37   18   19 1    
    38   18   22 1    
    39   18   98 1    
    40   19   20 am   BACKBONE|DICT|INTERRES
    41   19   21 2    
    42   20   99 1    
    43   20  100 1    
    44   22   23 am   BACKBONE|DICT|INTERRES
    45   22  101 1    
    46   23   24 2    
    47   23   25 1    
    48   25   26 1    
    49   25   27 1    
    50   25  102 1    
    51   26  103 1    
    52   26  104 1    
    53   26  105 1    
    54   27   28 am   BACKBONE|DICT|INTERRES
    55   27  106 1    
    56   28   29 2    
    57   28   30 1    
    58   30   31 1    
    59   30   32 1    
    60   30  107 1    
    61   31  108 1    
    62   31  109 1    
    63   31  110 1    
    64   32   33 am   BACKBONE|DICT|INTERRES
    65   32  111 1    
    66   33   34 2    
    67   33   35 1    
    68   35   36 1    
    69   35   37 1    
    70   35  112 1    
    71   36  113 1    
    72   36  114 1    
    73   36  115 1    
    74   37   38 am   BACKBONE|DICT|INTERRES
    75   37  116 1    
    76   38   39 2    
    77   38   40 1    
    78   40   41 1    
    79   40   42 1    
    80   40  117 1    
    81   41  118 1    
    82   41  119 1    
    83   41  120 1    
    84   42   43 am   BACKBONE|DICT|INTERRES
    85   42  121 1    
    86   43   44 2    
    87   43   45 1    
    88   45   46 1    
    89   45   47 1    
    90   45  122 1    
    91   46  123 1    
    92   46  124 1    
    93   46  125 1    
    94   47   48 am   BACKBONE|DICT|INTERRES
    95   47  126 1    
    96   48   49 2    
    97   48   50 1    
    98   50   51 1    
    99   50   52 1    
   100   50  127 1    
   101   51  128 1    
   102   51  129 1    
   103   51  130 1    
   104   52   53 am   BACKBONE|DICT|INTERRES
   105   52  131 1    
   106   53   54 2    
   107   53   55 1    
   108   55   56 1    
   109   55   59 1    
   110   55  132 1    
   111   56   57 1    
   112   56  133 1    
   113   56  134 1    
   114   57   58 1    
   115   58  135 1    
   116   58  136 1    
   117   59   60 am   BACKBONE|DICT|INTERRES
   118   59  137 1    
   119   60   61 2    
   120   60   62 1    
   121   62   63 1    
   122   62   64 1    
   123   62  138 1    
   124   63  139 1    
   125   63  140 1    
   126   63  141 1    
   127   64   65 am   BACKBONE|DICT|INTERRES
   128   64  142 1    
   129   65   66 2    
   130   65   67 1    
   131   67   68 1    
   132   67   69 1    
   133   67  143 1    
   134   68  144 1    
   135   68  145 1    
   136   68  146 1    
   137   69   70 am   BACKBONE|DICT|INTERRES
   138   69  147 1    
   139   70   71 2    
   140   70   72 1    
   141   72   73 1    
   142   72   74 1    
   143   72  148 1    
   144   73  149 1    
   145   73  150 1    
   146   73  151 1    
   147   74   75 am   BACKBONE|DICT|INTERRES
   148   74  152 1    
   149   75   76 2    
   150   75   77 1    
   151   77   78 1    
   152   77   79 1    
   153   77  153 1    
   154   78  154 1    
   155   78  155 1    
   156   78  156 1    
   157   79   80 am   BACKBONE|DICT|INTERRES
   158   79  157 1    
   159   80   81 2    
@<TRIPOS>SUBSTRUCTURE
     1 UNK         1 GROUP             0       ****    0 ROOT    
