@<TRIPOS>MOLECULE
3R207
157   159    1
SMALL
USER_CHARGES


@<TRIPOS>ATOM
      1 CA        -46.2554  -30.9524    3.6031 C.3       0 UNK        -0.1975 
      2 C         -46.9111  -29.9261    4.5148 C.2       0 UNK         0.4852 
      3 O         -46.2532  -29.4085    5.4188 O.2       0 UNK        -0.5216 
      4 N         -48.1954  -29.6238    4.2726 N.am      1 UNK        -0.4461 
      5 CA        -49.0709  -28.6935    5.0063 C.3       1 UNK         0.0864 
      6 C6        -49.2544  -29.0379    6.5081 C.3       14 UNK        -0.0898 
      7 S7        -50.0720  -30.6455    6.7720 S.3       14 UNK        -0.2598 
      8 C8        -51.8304  -30.1662    6.8269 C.3       14 UNK         0.0286 
      9 C9        -52.1641  -29.2993    8.0340 C.ar      14 UNK        -0.0844 
     10 C10       -52.3835  -27.9265    7.8799 C.ar      14 UNK        -0.0881 
     11 C11       -52.6982  -27.1262    8.9826 C.ar      14 UNK        -0.0643 
     12 C12       -52.8034  -27.7113   10.2473 C.ar      14 UNK        -0.0930 
     13 C13       -52.6011  -29.0850   10.4106 C.ar      14 UNK        -0.0827 
     14 C14       -52.2763  -29.8735    9.3032 C.ar      14 UNK        -0.1249 
     15 C15       -52.7541  -29.7177   11.7821 C.3       14 UNK         0.0141 
     16 S16       -54.4394  -30.3639   12.0031 S.3       14 UNK        -0.2313 
     17 C17       -54.4573  -30.6614   13.8005 C.3       14 UNK        -0.0915 
     18 CA        -55.8847  -30.5817   14.4030 C.3       13 UNK         0.0968 
     19 C         -55.8708  -31.0045   15.9015 C.2       13 UNK         0.5732 
     20 N         -56.1927  -30.1290   16.8470 N.am      13 UNK        -0.7310 
     21 O         -55.5696  -32.1549   16.2111 O.2       13 UNK        -0.5035 
     22 N         -56.5345  -29.2829   14.1415 N.am      13 UNK        -0.4233 
     23 C         -57.8629  -29.0918   14.1750 C.2       13 UNK         0.4989 
     24 O         -58.6700  -30.0016   14.3721 O.2       13 UNK        -0.4996 
     25 CA        -58.4109  -27.6621   13.9882 C.3       12 UNK         0.0216 
     26 CB        -59.0229  -27.1472   15.3027 C.3       12 UNK        -0.1964 
     27 N         -57.4111  -26.6977   13.5304 N.am      12 UNK        -0.4276 
     28 C         -56.9801  -26.5674   12.2692 C.2       12 UNK         0.5020 
     29 O         -57.4437  -27.1989   11.3194 O.2       12 UNK        -0.5489 
     30 CA        -55.8273  -25.5707   12.0269 C.3       11 UNK         0.0294 
     31 CB        -56.3555  -24.2706   11.3999 C.3       11 UNK        -0.2019 
     32 N         -55.0383  -25.2449   13.2257 N.am      11 UNK        -0.4493 
     33 C         -54.3232  -26.1356   13.9238 C.2       11 UNK         0.4932 
     34 O         -54.2804  -27.3365   13.6523 O.2       11 UNK        -0.5029 
     35 CA        -53.5814  -25.6300   15.1616 C.3       10 UNK         0.0280 
     36 CB        -54.5017  -25.6472   16.3961 C.3       10 UNK        -0.1976 
     37 N         -52.4505  -26.5266   15.3568 N.am      10 UNK        -0.4242 
     38 C         -51.3397  -26.2806   16.0546 C.2       10 UNK         0.5072 
     39 O         -51.1769  -25.2722   16.7441 O.2       10 UNK        -0.5224 
     40 CA        -50.2230  -27.3392   15.9794 C.3       9 UNK         0.0343 
     41 CB        -50.5498  -28.5487   15.0759 C.3       9 UNK        -0.2003 
     42 N         -49.0035  -26.7026   15.4882 N.am      9 UNK        -0.4272 
     43 C         -48.0084  -26.2482   16.2602 C.2       9 UNK         0.4988 
     44 O         -47.9500  -26.4061   17.4809 O.2       9 UNK        -0.5108 
     45 CA        -46.8774  -25.4893   15.5480 C.3       8 UNK         0.0248 
     46 CB        -45.9008  -26.4742   14.8847 C.3       8 UNK        -0.2001 
     47 N         -47.3699  -24.5271   14.5570 N.am      8 UNK        -0.4140 
     48 C         -48.0441  -23.4064   14.8588 C.2       8 UNK         0.5028 
     49 O         -48.2839  -23.0403   16.0101 O.2       8 UNK        -0.5428 
     50 CA        -48.5168  -22.5277   13.6876 C.3       7 UNK         0.0264 
     51 CB        -47.3830  -21.6060   13.2098 C.3       7 UNK        -0.1988 
     52 N         -49.0233  -23.3019   12.5545 N.am      7 UNK        -0.4454 
     53 C         -50.1761  -23.9881   12.5456 C.2       7 UNK         0.5027 
     54 O         -50.9798  -23.9943   13.4764 O.2       7 UNK        -0.5083 
     55 CA        -50.4773  -24.8174   11.2801 C.3       6 UNK         0.0844 
     56 C56       -51.1673  -23.9315   10.2116 C.3       14 UNK        -0.0967 
     57 S57       -51.3789  -24.7330    8.5852 S.3       14 UNK        -0.2604 
     58 C58       -52.9438  -25.6375    8.7905 C.3       14 UNK         0.0134 
     59 N         -49.2774  -25.4932   10.7814 N.am      6 UNK        -0.4116 
     60 C         -48.5786  -26.4182   11.4542 C.2       5 UNK         0.5034 
     61 O         -48.8778  -26.8363   12.5730 O.2       5 UNK        -0.5045 
     62 CA        -47.2912  -26.9141   10.7827 C.3       5 UNK         0.0224 
     63 CB        -47.6098  -27.9941    9.7373 C.3       5 UNK        -0.1978 
     64 N         -46.5518  -25.8110   10.1609 N.am      5 UNK        -0.4737 
     65 C         -45.9123  -24.8593   10.8588 C.2       4 UNK         0.5027 
     66 O         -45.8484  -24.8478   12.0865 O.2       4 UNK        -0.5211 
     67 CA        -45.2754  -23.7007   10.0709 C.3       4 UNK         0.0297 
     68 CB        -43.8493  -24.0692    9.6337 C.3       4 UNK        -0.1993 
     69 N         -46.0564  -23.2985    8.9006 N.am      4 UNK        -0.4486 
     70 C         -47.3148  -22.8379    8.9372 C.2       3 UNK         0.4961 
     71 O         -47.9301  -22.6177    9.9798 O.2       3 UNK        -0.5105 
     72 CA        -48.0264  -22.6334    7.5865 C.3       3 UNK         0.0299 
     73 CB        -47.9523  -21.1584    7.1630 C.3       3 UNK        -0.1972 
     74 N         -47.5279  -23.4817    6.4940 N.am      3 UNK        -0.4305 
     75 C         -47.4863  -24.8218    6.5113 C.2       2 UNK         0.5006 
     76 O         -47.8039  -25.5050    7.4880 O.2       2 UNK        -0.5106 
     77 CA        -46.9246  -25.5037    5.2523 C.3       2 UNK         0.0296 
     78 CB        -45.3883  -25.5404    5.3066 C.3       2 UNK        -0.2002 
     79 N         -47.4229  -26.8727    5.1305 N.am      2 UNK        -0.4032 
     80 C         -48.6840  -27.2098    4.8385 C.2       1 UNK         0.5000 
     81 O         -49.5355  -26.4032    4.4586 O.2       1 UNK        -0.5238 
     82 H82       -45.8989  -31.7990    4.1893 H         1 UNK         0.0889 
     83 H83       -45.4019  -30.5083    3.0915 H         1 UNK         0.0889 
     84 H84       -46.9453  -31.3295    2.8484 H         1 UNK         0.0889 
     85 H85       -48.6477  -30.0816    3.4932 H         1 UNK         0.3028 
     86 H86       -50.0491  -28.7929    4.5328 H         1 UNK         0.0864 
     87 H87       -49.8217  -28.2599    7.0196 H         1 UNK         0.0720 
     88 H88       -48.2905  -29.0680    7.0166 H         1 UNK         0.0720 
     89 H89       -52.4389  -31.0712    6.8572 H         1 UNK         0.0814 
     90 H90       -52.0947  -29.6566    5.8991 H         1 UNK         0.0814 
     91 H91       -52.3028  -27.4736    6.9009 H         1 UNK         0.1469 
     92 H92       -53.0559  -27.1046   11.1053 H         1 UNK         0.1381 
     93 H93       -52.1200  -30.9365    9.4268 H         1 UNK         0.1206 
     94 H94       -52.5330  -28.9807   12.5538 H         1 UNK         0.0813 
     95 H95       -52.0333  -30.5264   11.9109 H         1 UNK         0.0813 
     96 H96       -53.8035  -29.9422   14.2963 H         1 UNK         0.0638 
     97 H97       -54.0179  -31.6457   13.9728 H         1 UNK         0.0638 
     98 H98       -56.4795  -31.3441   13.8962 H         1 UNK         0.0568 
     99 H99       -56.1837  -30.4207   17.8114 H         1 UNK         0.3450 
    100 H100      -56.4441  -29.1852   16.6060 H         1 UNK         0.3450 
    101 H101      -55.9096  -28.5099   13.9399 H         1 UNK         0.2987 
    102 H102      -59.2065  -27.7178   13.2420 H         1 UNK         0.0766 
    103 H103      -59.4811  -26.1669   15.1699 H         1 UNK         0.0798 
    104 H104      -58.2763  -27.0652   16.0936 H         1 UNK         0.0798 
    105 H105      -59.8041  -27.8191   15.6615 H         1 UNK         0.0798 
    106 H106      -56.9765  -26.1220   14.2361 H         1 UNK         0.3198 
    107 H107      -55.1564  -26.0442   11.3085 H         1 UNK         0.0843 
    108 H108      -57.0181  -23.7339   12.0800 H         1 UNK         0.0831 
    109 H109      -55.5401  -23.6017   11.1238 H         1 UNK         0.0831 
    110 H110      -56.9217  -24.4781   10.4906 H         1 UNK         0.0831 
    111 H111      -55.0345  -24.2779   13.5197 H         1 UNK         0.3133 
    112 H112      -53.2160  -24.6181   14.9760 H         1 UNK         0.0566 
    113 H113      -53.9773  -25.3017   17.2871 H         1 UNK         0.0814 
    114 H114      -55.3613  -24.9910   16.2556 H         1 UNK         0.0814 
    115 H115      -54.8818  -26.6490   16.6014 H         1 UNK         0.0814 
    116 H116      -52.5146  -27.3716   14.8022 H         1 UNK         0.3091 
    117 H117      -50.0721  -27.7149   16.9933 H         1 UNK         0.0702 
    118 H118      -50.7167  -28.2521   14.0396 H         1 UNK         0.0785 
    119 H119      -51.4352  -29.0820   15.4246 H         1 UNK         0.0785 
    120 H120      -49.7288  -29.2660   15.0782 H         1 UNK         0.0785 
    121 H121      -48.9562  -26.5434   14.4850 H         1 UNK         0.2998 
    122 H122      -46.3255  -24.9308   16.3071 H         1 UNK         0.0697 
    123 H123      -46.3758  -27.0316   14.0767 H         1 UNK         0.0825 
    124 H124      -45.5260  -27.2004   15.6073 H         1 UNK         0.0825 
    125 H125      -45.0363  -25.9556   14.4702 H         1 UNK         0.0825 
    126 H126      -47.1293  -24.7104   13.5872 H         1 UNK         0.3029 
    127 H127      -49.3321  -21.9002   14.0548 H         1 UNK         0.0897 
    128 H128      -47.7244  -20.9318   12.4240 H         1 UNK         0.0792 
    129 H129      -47.0100  -20.9891   14.0285 H         1 UNK         0.0792 
    130 H130      -46.5389  -22.1745   12.8180 H         1 UNK         0.0792 
    131 H131      -48.4706  -23.2761   11.7008 H         1 UNK         0.3086 
    132 H132      -51.1802  -25.6007   11.5693 H         1 UNK         0.0583 
    133 H133      -52.1382  -23.5876   10.5733 H         1 UNK         0.1020 
    134 H134      -50.5855  -23.0243   10.0371 H         1 UNK         0.1020 
    135 H135      -53.5197  -25.2267    9.6204 H         1 UNK         0.0694 
    136 H136      -53.5529  -25.4866    7.8981 H         1 UNK         0.0694 
    137 H137      -48.9602  -25.2213    9.8609 H         1 UNK         0.2989 
    138 H138      -46.6590  -27.3597   11.5539 H         1 UNK         0.1055 
    139 H139      -48.2952  -27.6247    8.9745 H         1 UNK         0.0806 
    140 H140      -48.0846  -28.8585   10.2036 H         1 UNK         0.0806 
    141 H141      -46.7079  -28.3472    9.2374 H         1 UNK         0.0806 
    142 H142      -46.6448  -25.7115    9.1549 H         1 UNK         0.3061 
    143 H143      -45.2171  -22.8400   10.7403 H         1 UNK         0.0734 
    144 H144      -43.3507  -23.2280    9.1517 H         1 UNK         0.0832 
    145 H145      -43.2408  -24.3541   10.4934 H         1 UNK         0.0832 
    146 H146      -43.8429  -24.9093    8.9380 H         1 UNK         0.0832 
    147 H147      -45.6329  -23.4441    7.9964 H         1 UNK         0.3156 
    148 H148      -49.0765  -22.8896    7.7378 H         1 UNK         0.0589 
    149 H149      -46.9269  -20.8469    6.9595 H         1 UNK         0.0808 
    150 H150      -48.5462  -20.9706    6.2683 H         1 UNK         0.0808 
    151 H151      -48.3406  -20.5075    7.9480 H         1 UNK         0.0808 
    152 H152      -47.2270  -23.0020    5.6573 H         1 UNK         0.3098 
    153 H153      -47.2396  -24.9398    4.3719 H         1 UNK         0.0720 
    154 H154      -44.9726  -26.0163    4.4180 H         1 UNK         0.0791 
    155 H155      -45.0289  -26.0901    6.1780 H         1 UNK         0.0791 
    156 H156      -44.9699  -24.5344    5.3582 H         1 UNK         0.0791 
    157 H157      -46.8046  -27.6244    5.4267 H         1 UNK         0.3028 
@<TRIPOS>BOND
     1    1    2 1    
     2    1   82 1    
     3    1   83 1    
     4    1   84 1    
     5    2    3 2    
     6    2    4 am   BACKBONE|DICT|INTERRES
     7    4    5 1    
     8    4   85 1    
     9    5    6 1    
    10    5   80 1    
    11    5   86 1    
    12    6    7 1    
    13    6   87 1    
    14    6   88 1    
    15    7    8 1    
    16    8    9 1    
    17    8   89 1    
    18    8   90 1    
    19    9   10 ar   
    20    9   14 ar   
    21   10   11 ar   
    22   10   91 1    
    23   11   12 ar   
    24   11   58 1    
    25   12   13 ar   
    26   12   92 1    
    27   13   14 ar   
    28   13   15 1    
    29   14   93 1    
    30   15   16 1    
    31   15   94 1    
    32   15   95 1    
    33   16   17 1    
    34   17   18 1    
    35   17   96 1    
    36   17   97 1    
    37   18   19 1    
    38   18   22 1    
    39   18   98 1    
    40   19   20 am   BACKBONE|DICT|INTERRES
    41   19   21 2    
    42   20   99 1    
    43   20  100 1    
    44   22   23 am   BACKBONE|DICT|INTERRES
    45   22  101 1    
    46   23   24 2    
    47   23   25 1    
    48   25   26 1    
    49   25   27 1    
    50   25  102 1    
    51   26  103 1    
    52   26  104 1    
    53   26  105 1    
    54   27   28 am   BACKBONE|DICT|INTERRES
    55   27  106 1    
    56   28   29 2    
    57   28   30 1    
    58   30   31 1    
    59   30   32 1    
    60   30  107 1    
    61   31  108 1    
    62   31  109 1    
    63   31  110 1    
    64   32   33 am   BACKBONE|DICT|INTERRES
    65   32  111 1    
    66   33   34 2    
    67   33   35 1    
    68   35   36 1    
    69   35   37 1    
    70   35  112 1    
    71   36  113 1    
    72   36  114 1    
    73   36  115 1    
    74   37   38 am   BACKBONE|DICT|INTERRES
    75   37  116 1    
    76   38   39 2    
    77   38   40 1    
    78   40   41 1    
    79   40   42 1    
    80   40  117 1    
    81   41  118 1    
    82   41  119 1    
    83   41  120 1    
    84   42   43 am   BACKBONE|DICT|INTERRES
    85   42  121 1    
    86   43   44 2    
    87   43   45 1    
    88   45   46 1    
    89   45   47 1    
    90   45  122 1    
    91   46  123 1    
    92   46  124 1    
    93   46  125 1    
    94   47   48 am   BACKBONE|DICT|INTERRES
    95   47  126 1    
    96   48   49 2    
    97   48   50 1    
    98   50   51 1    
    99   50   52 1    
   100   50  127 1    
   101   51  128 1    
   102   51  129 1    
   103   51  130 1    
   104   52   53 am   BACKBONE|DICT|INTERRES
   105   52  131 1    
   106   53   54 2    
   107   53   55 1    
   108   55   56 1    
   109   55   59 1    
   110   55  132 1    
   111   56   57 1    
   112   56  133 1    
   113   56  134 1    
   114   57   58 1    
   115   58  135 1    
   116   58  136 1    
   117   59   60 am   BACKBONE|DICT|INTERRES
   118   59  137 1    
   119   60   61 2    
   120   60   62 1    
   121   62   63 1    
   122   62   64 1    
   123   62  138 1    
   124   63  139 1    
   125   63  140 1    
   126   63  141 1    
   127   64   65 am   BACKBONE|DICT|INTERRES
   128   64  142 1    
   129   65   66 2    
   130   65   67 1    
   131   67   68 1    
   132   67   69 1    
   133   67  143 1    
   134   68  144 1    
   135   68  145 1    
   136   68  146 1    
   137   69   70 am   BACKBONE|DICT|INTERRES
   138   69  147 1    
   139   70   71 2    
   140   70   72 1    
   141   72   73 1    
   142   72   74 1    
   143   72  148 1    
   144   73  149 1    
   145   73  150 1    
   146   73  151 1    
   147   74   75 am   BACKBONE|DICT|INTERRES
   148   74  152 1    
   149   75   76 2    
   150   75   77 1    
   151   77   78 1    
   152   77   79 1    
   153   77  153 1    
   154   78  154 1    
   155   78  155 1    
   156   78  156 1    
   157   79   80 am   BACKBONE|DICT|INTERRES
   158   79  157 1    
   159   80   81 2    
@<TRIPOS>SUBSTRUCTURE
     1 UNK         1 GROUP             0       ****    0 ROOT    
