@<TRIPOS>MOLECULE
3R207
157   159    1
SMALL
USER_CHARGES


@<TRIPOS>ATOM
      1 CA        -51.7704  -22.1341    3.3008 C.3       0 UNK        -0.1975 
      2 C         -51.1194  -22.7885    4.5105 C.2       0 UNK         0.4852 
      3 O         -50.8488  -22.1077    5.5002 O.2       0 UNK        -0.5216 
      4 N         -50.8710  -24.1040    4.4376 N.am      1 UNK        -0.4461 
      5 CA        -50.2297  -24.9033    5.4892 C.3       1 UNK         0.0864 
      6 C6        -50.3779  -26.4196    5.1949 C.3       14 UNK        -0.0898 
      7 S7        -50.1678  -27.4494    6.6822 S.3       14 UNK        -0.2598 
      8 C8        -51.9068  -27.7759    7.1284 C.3       14 UNK         0.0286 
      9 C9        -52.0711  -28.2639    8.5646 C.ar      14 UNK        -0.0844 
     10 C10       -51.3283  -29.3479    9.0438 C.ar      14 UNK        -0.0881 
     11 C11       -51.4910  -29.7991   10.3572 C.ar      14 UNK        -0.0643 
     12 C12       -52.4276  -29.1778   11.1876 C.ar      14 UNK        -0.0930 
     13 C13       -53.1758  -28.0919   10.7252 C.ar      14 UNK        -0.0827 
     14 C14       -52.9865  -27.6357    9.4159 C.ar      14 UNK        -0.1249 
     15 C15       -54.1661  -27.3989   11.6539 C.3       14 UNK         0.0141 
     16 S16       -55.8528  -27.3438   10.9694 S.3       14 UNK        -0.2313 
     17 C17       -56.2877  -29.1146   10.8948 C.3       14 UNK        -0.0915 
     18 CA        -57.4710  -29.4685   11.8300 C.3       13 UNK         0.0968 
     19 C         -57.9900  -30.9101   11.5583 C.2       13 UNK         0.5732 
     20 N         -57.9159  -31.8380   12.5060 N.am      13 UNK        -0.7310 
     21 O         -58.4839  -31.1889   10.4682 O.2       13 UNK        -0.5035 
     22 N         -57.1402  -29.2153   13.2403 N.am      13 UNK        -0.4233 
     23 C         -58.0218  -28.8907   14.1892 C.2       13 UNK         0.4989 
     24 O         -59.2153  -28.6831   13.9653 O.2       13 UNK        -0.4996 
     25 CA        -57.5143  -28.7780   15.6404 C.3       12 UNK         0.0216 
     26 CB        -57.8259  -30.0705   16.4205 C.3       12 UNK        -0.1964 
     27 N         -56.1047  -28.3915   15.8207 N.am      12 UNK        -0.4276 
     28 C         -54.9848  -29.0386   15.4736 C.2       12 UNK         0.5020 
     29 O         -54.9708  -30.0580   14.7809 O.2       12 UNK        -0.5489 
     30 CA        -53.6612  -28.4285   15.9779 C.3       11 UNK         0.0294 
     31 CB        -52.4690  -29.3790   15.7735 C.3       11 UNK        -0.2019 
     32 N         -53.3409  -27.1407   15.3580 N.am      11 UNK        -0.4493 
     33 C         -53.9717  -25.9799   15.5808 C.2       11 UNK         0.4932 
     34 O         -54.9673  -25.8665   16.2997 O.2       11 UNK        -0.5029 
     35 CA        -53.3432  -24.7428   14.9153 C.3       10 UNK         0.0280 
     36 CB        -54.1060  -23.4348   15.2113 C.3       10 UNK        -0.1976 
     37 N         -51.9228  -24.6158   15.2592 N.am      10 UNK        -0.4242 
     38 C         -51.3778  -24.4780   16.4795 C.2       10 UNK         0.5072 
     39 O         -52.0262  -24.3581   17.5197 O.2       10 UNK        -0.5224 
     40 CA        -49.8391  -24.4969   16.5673 C.3       9 UNK         0.0343 
     41 CB        -49.3567  -25.8721   17.0571 C.3       9 UNK        -0.2003 
     42 N         -49.1770  -24.1908   15.2978 N.am      9 UNK        -0.4272 
     43 C         -49.1581  -22.9870   14.7085 C.2       9 UNK         0.4988 
     44 O         -49.6145  -21.9632   15.2177 O.2       9 UNK        -0.5108 
     45 CA        -48.5705  -22.9318   13.2894 C.3       8 UNK         0.0248 
     46 CB        -47.0391  -22.8007   13.3249 C.3       8 UNK        -0.2001 
     47 N         -48.9511  -24.1046   12.4976 N.am      8 UNK        -0.4140 
     48 C         -50.1845  -24.3305   12.0215 C.2       8 UNK         0.5028 
     49 O         -51.1294  -23.5565   12.1688 O.2       8 UNK        -0.5428 
     50 CA        -50.4095  -25.6538   11.2793 C.3       7 UNK         0.0264 
     51 CB        -50.0220  -25.5070    9.8029 C.3       7 UNK        -0.1988 
     52 N         -49.6614  -26.7612   11.8770 N.am      7 UNK        -0.4454 
     53 C         -50.0113  -27.3731   13.0187 C.2       7 UNK         0.5027 
     54 O         -51.0301  -27.0928   13.6544 O.2       7 UNK        -0.5083 
     55 CA        -49.0462  -28.4379   13.5885 C.3       6 UNK         0.0844 
     56 C56       -49.4697  -29.8837   13.2228 C.3       14 UNK        -0.0967 
     57 S57       -49.0472  -30.3993   11.5184 S.3       14 UNK        -0.2604 
     58 C58       -50.6546  -30.9606   10.8697 C.3       14 UNK         0.0134 
     59 N         -47.6397  -28.1859   13.2666 N.am      6 UNK        -0.4116 
     60 C         -46.9428  -27.0903   13.5912 C.2       5 UNK         0.5034 
     61 O         -47.3980  -26.1653   14.2636 O.2       5 UNK        -0.5045 
     62 CA        -45.5206  -26.9656   13.0154 C.3       5 UNK         0.0224 
     63 CB        -44.8909  -28.3183   12.6105 C.3       5 UNK        -0.1978 
     64 N         -45.4676  -26.0229   11.8883 N.am      5 UNK        -0.4737 
     65 C         -46.1963  -26.0643   10.7616 C.2       4 UNK         0.5027 
     66 O         -47.0785  -26.8983   10.5501 O.2       4 UNK        -0.5211 
     67 CA        -45.9315  -24.9808    9.6967 C.3       4 UNK         0.0297 
     68 CB        -44.6635  -24.1311    9.9452 C.3       4 UNK        -0.1993 
     69 N         -45.9238  -25.5534    8.3457 N.am      4 UNK        -0.4486 
     70 C         -45.0757  -26.4815    7.8685 C.2       3 UNK         0.4961 
     71 O         -44.1376  -26.9551    8.5114 O.2       3 UNK        -0.5105 
     72 CA        -45.2943  -26.9726    6.4225 C.3       3 UNK         0.0299 
     73 CB        -46.0358  -28.3197    6.4281 C.3       3 UNK        -0.1972 
     74 N         -46.0332  -26.0283    5.5825 N.am      3 UNK        -0.4305 
     75 C         -45.6120  -24.8053    5.2290 C.2       2 UNK         0.5006 
     76 O         -44.4780  -24.3833    5.4586 O.2       2 UNK        -0.5106 
     77 CA        -46.6234  -23.8795    4.5207 C.3       2 UNK         0.0296 
     78 CB        -46.2335  -23.6856    3.0456 C.3       2 UNK        -0.2002 
     79 N         -48.0289  -24.3039    4.5871 N.am      2 UNK        -0.4032 
     80 C         -48.7525  -24.5028    5.7012 C.2       1 UNK         0.5000 
     81 O         -48.2977  -24.3921    6.8423 O.2       1 UNK        -0.5238 
     82 H82       -52.7189  -21.6795    3.5857 H         1 UNK         0.0889 
     83 H83       -51.9645  -22.8507    2.5030 H         1 UNK         0.0889 
     84 H84       -51.1233  -21.3522    2.9041 H         1 UNK         0.0889 
     85 H85       -51.1339  -24.6056    3.6006 H         1 UNK         0.3028 
     86 H86       -50.7590  -24.6814    6.4190 H         1 UNK         0.0864 
     87 H87       -49.6672  -26.7503    4.4350 H         1 UNK         0.0720 
     88 H88       -51.3645  -26.6286    4.7779 H         1 UNK         0.0720 
     89 H89       -52.3185  -28.5219    6.4475 H         1 UNK         0.0814 
     90 H90       -52.4849  -26.8630    6.9765 H         1 UNK         0.0814 
     91 H91       -50.6109  -29.8333    8.3964 H         1 UNK         0.1469 
     92 H92       -52.5636  -29.5295   12.2005 H         1 UNK         0.1381 
     93 H93       -53.5634  -26.7932    9.0600 H         1 UNK         0.1206 
     94 H94       -53.8269  -26.3783   11.8325 H         1 UNK         0.0813 
     95 H95       -54.1970  -27.8877   12.6284 H         1 UNK         0.0813 
     96 H96       -55.4182  -29.7285   11.1353 H         1 UNK         0.0638 
     97 H97       -56.5365  -29.3365    9.8555 H         1 UNK         0.0638 
     98 H98       -58.2986  -28.8108   11.5574 H         1 UNK         0.0568 
     99 H99       -57.5028  -31.6241   13.3993 H         1 UNK         0.3450 
    100 H100      -58.2622  -32.7652   12.3168 H         1 UNK         0.3450 
    101 H101      -56.1995  -29.4550   13.5423 H         1 UNK         0.2987 
    102 H102      -58.0928  -27.9735   16.0975 H         1 UNK         0.0766 
    103 H103      -57.5793  -29.9646   17.4769 H         1 UNK         0.0798 
    104 H104      -57.2712  -30.9250   16.0314 H         1 UNK         0.0798 
    105 H105      -58.8867  -30.3182   16.3603 H         1 UNK         0.0798 
    106 H106      -55.9600  -27.4881   16.2684 H         1 UNK         0.3198 
    107 H107      -53.7707  -28.2662   17.0525 H         1 UNK         0.0843 
    108 H108      -52.3187  -29.5976   14.7176 H         1 UNK         0.0831 
    109 H109      -52.6347  -30.3294   16.2824 H         1 UNK         0.0831 
    110 H110      -51.5450  -28.9549   16.1671 H         1 UNK         0.0831 
    111 H111      -52.5263  -27.1282   14.7455 H         1 UNK         0.3133 
    112 H112      -53.3838  -24.9119   13.8384 H         1 UNK         0.0566 
    113 H113      -53.6472  -22.5871   14.7023 H         1 UNK         0.0814 
    114 H114      -55.1386  -23.5009   14.8666 H         1 UNK         0.0814 
    115 H115      -54.1340  -23.2108   16.2781 H         1 UNK         0.0814 
    116 H116      -51.2851  -24.7329   14.4841 H         1 UNK         0.3091 
    117 H117      -49.5389  -23.7437   17.2987 H         1 UNK         0.0702 
    118 H118      -48.2718  -25.8998   17.1613 H         1 UNK         0.0785 
    119 H119      -49.6482  -26.6669   16.3698 H         1 UNK         0.0785 
    120 H120      -49.7832  -26.1117   18.0322 H         1 UNK         0.0785 
    121 H121      -48.6874  -24.9586   14.8432 H         1 UNK         0.2998 
    122 H122      -48.9740  -22.0441   12.7972 H         1 UNK         0.0697 
    123 H123      -46.5641  -23.6630   13.7933 H         1 UNK         0.0825 
    124 H124      -46.7391  -21.9182   13.8916 H         1 UNK         0.0825 
    125 H125      -46.6287  -22.6932   12.3211 H         1 UNK         0.0825 
    126 H126      -48.2555  -24.8281   12.3896 H         1 UNK         0.3029 
    127 H127      -51.4724  -25.8934   11.3294 H         1 UNK         0.0897 
    128 H128      -50.7165  -24.8507    9.2774 H         1 UNK         0.0792 
    129 H129      -50.0411  -26.4733    9.3057 H         1 UNK         0.0792 
    130 H130      -49.0222  -25.0950    9.6739 H         1 UNK         0.0792 
    131 H131      -48.8047  -27.0434   11.4048 H         1 UNK         0.3086 
    132 H132      -49.1260  -28.3527   14.6739 H         1 UNK         0.0583 
    133 H133      -48.9703  -30.5790   13.8993 H         1 UNK         0.1020 
    134 H134      -50.5330  -30.0323   13.4043 H         1 UNK         0.1020 
    135 H135      -50.4730  -31.6640   10.0557 H         1 UNK         0.0694 
    136 H136      -51.1946  -31.5208   11.6347 H         1 UNK         0.0694 
    137 H137      -47.2094  -28.8585   12.6480 H         1 UNK         0.2989 
    138 H138      -44.9094  -26.5419   13.8142 H         1 UNK         0.1055 
    139 H139      -44.9208  -29.0318   13.4354 H         1 UNK         0.0806 
    140 H140      -43.8430  -28.1911   12.3385 H         1 UNK         0.0806 
    141 H141      -45.3930  -28.7740   11.7561 H         1 UNK         0.0806 
    142 H142      -44.7848  -25.2830   11.9750 H         1 UNK         0.3061 
    143 H143      -46.7862  -24.3044    9.7314 H         1 UNK         0.0734 
    144 H144      -44.5179  -23.4067    9.1437 H         1 UNK         0.0832 
    145 H145      -44.7384  -23.5624   10.8724 H         1 UNK         0.0832 
    146 H146      -43.7621  -24.7426   10.0008 H         1 UNK         0.0832 
    147 H147      -46.6914  -25.2566    7.7494 H         1 UNK         0.3156 
    148 H148      -44.3108  -27.1217    5.9721 H         1 UNK         0.0589 
    149 H149      -47.0323  -28.2293    6.8634 H         1 UNK         0.0808 
    150 H150      -46.1425  -28.7216    5.4204 H         1 UNK         0.0808 
    151 H151      -45.4921  -29.0611    7.0154 H         1 UNK         0.0808 
    152 H152      -46.9790  -26.2862    5.3445 H         1 UNK         0.3098 
    153 H153      -46.5598  -22.9104    5.0196 H         1 UNK         0.0720 
    154 H154      -46.8701  -22.9462    2.5591 H         1 UNK         0.0791 
    155 H155      -46.3075  -24.6173    2.4833 H         1 UNK         0.0791 
    156 H156      -45.2054  -23.3315    2.9546 H         1 UNK         0.0791 
    157 H157      -48.4985  -24.4164    3.7003 H         1 UNK         0.3028 
@<TRIPOS>BOND
     1    1    2 1    
     2    1   82 1    
     3    1   83 1    
     4    1   84 1    
     5    2    3 2    
     6    2    4 am   BACKBONE|DICT|INTERRES
     7    4    5 1    
     8    4   85 1    
     9    5    6 1    
    10    5   80 1    
    11    5   86 1    
    12    6    7 1    
    13    6   87 1    
    14    6   88 1    
    15    7    8 1    
    16    8    9 1    
    17    8   89 1    
    18    8   90 1    
    19    9   10 ar   
    20    9   14 ar   
    21   10   11 ar   
    22   10   91 1    
    23   11   12 ar   
    24   11   58 1    
    25   12   13 ar   
    26   12   92 1    
    27   13   14 ar   
    28   13   15 1    
    29   14   93 1    
    30   15   16 1    
    31   15   94 1    
    32   15   95 1    
    33   16   17 1    
    34   17   18 1    
    35   17   96 1    
    36   17   97 1    
    37   18   19 1    
    38   18   22 1    
    39   18   98 1    
    40   19   20 am   BACKBONE|DICT|INTERRES
    41   19   21 2    
    42   20   99 1    
    43   20  100 1    
    44   22   23 am   BACKBONE|DICT|INTERRES
    45   22  101 1    
    46   23   24 2    
    47   23   25 1    
    48   25   26 1    
    49   25   27 1    
    50   25  102 1    
    51   26  103 1    
    52   26  104 1    
    53   26  105 1    
    54   27   28 am   BACKBONE|DICT|INTERRES
    55   27  106 1    
    56   28   29 2    
    57   28   30 1    
    58   30   31 1    
    59   30   32 1    
    60   30  107 1    
    61   31  108 1    
    62   31  109 1    
    63   31  110 1    
    64   32   33 am   BACKBONE|DICT|INTERRES
    65   32  111 1    
    66   33   34 2    
    67   33   35 1    
    68   35   36 1    
    69   35   37 1    
    70   35  112 1    
    71   36  113 1    
    72   36  114 1    
    73   36  115 1    
    74   37   38 am   BACKBONE|DICT|INTERRES
    75   37  116 1    
    76   38   39 2    
    77   38   40 1    
    78   40   41 1    
    79   40   42 1    
    80   40  117 1    
    81   41  118 1    
    82   41  119 1    
    83   41  120 1    
    84   42   43 am   BACKBONE|DICT|INTERRES
    85   42  121 1    
    86   43   44 2    
    87   43   45 1    
    88   45   46 1    
    89   45   47 1    
    90   45  122 1    
    91   46  123 1    
    92   46  124 1    
    93   46  125 1    
    94   47   48 am   BACKBONE|DICT|INTERRES
    95   47  126 1    
    96   48   49 2    
    97   48   50 1    
    98   50   51 1    
    99   50   52 1    
   100   50  127 1    
   101   51  128 1    
   102   51  129 1    
   103   51  130 1    
   104   52   53 am   BACKBONE|DICT|INTERRES
   105   52  131 1    
   106   53   54 2    
   107   53   55 1    
   108   55   56 1    
   109   55   59 1    
   110   55  132 1    
   111   56   57 1    
   112   56  133 1    
   113   56  134 1    
   114   57   58 1    
   115   58  135 1    
   116   58  136 1    
   117   59   60 am   BACKBONE|DICT|INTERRES
   118   59  137 1    
   119   60   61 2    
   120   60   62 1    
   121   62   63 1    
   122   62   64 1    
   123   62  138 1    
   124   63  139 1    
   125   63  140 1    
   126   63  141 1    
   127   64   65 am   BACKBONE|DICT|INTERRES
   128   64  142 1    
   129   65   66 2    
   130   65   67 1    
   131   67   68 1    
   132   67   69 1    
   133   67  143 1    
   134   68  144 1    
   135   68  145 1    
   136   68  146 1    
   137   69   70 am   BACKBONE|DICT|INTERRES
   138   69  147 1    
   139   70   71 2    
   140   70   72 1    
   141   72   73 1    
   142   72   74 1    
   143   72  148 1    
   144   73  149 1    
   145   73  150 1    
   146   73  151 1    
   147   74   75 am   BACKBONE|DICT|INTERRES
   148   74  152 1    
   149   75   76 2    
   150   75   77 1    
   151   77   78 1    
   152   77   79 1    
   153   77  153 1    
   154   78  154 1    
   155   78  155 1    
   156   78  156 1    
   157   79   80 am   BACKBONE|DICT|INTERRES
   158   79  157 1    
   159   80   81 2    
@<TRIPOS>SUBSTRUCTURE
     1 UNK         1 GROUP             0       ****    0 ROOT    
