@<TRIPOS>MOLECULE
3R207
157   159    1
SMALL
USER_CHARGES


@<TRIPOS>ATOM
      1 CA        -50.9503  -31.5659   10.7275 C.3       0 UNK        -0.1975 
      2 C         -50.0762  -31.3017    9.5114 C.2       0 UNK         0.4852 
      3 O         -49.0872  -32.0034    9.3001 O.2       0 UNK        -0.5216 
      4 N         -50.4281  -30.2803    8.7196 N.am      1 UNK        -0.4461 
      5 CA        -49.7152  -29.8410    7.5109 C.3       1 UNK         0.0864 
      6 C6        -50.5526  -28.8223    6.6926 C.3       14 UNK        -0.0898 
      7 S7        -52.1911  -29.4640    6.2198 S.3       14 UNK        -0.2598 
      8 C8        -53.0498  -27.9302    5.7387 C.3       14 UNK         0.0286 
      9 C9        -53.6142  -27.1780    6.9377 C.ar      14 UNK        -0.0844 
     10 C10       -53.0472  -25.9693    7.3586 C.ar      14 UNK        -0.0881 
     11 C11       -53.5915  -25.2598    8.4419 C.ar      14 UNK        -0.0643 
     12 C12       -54.7180  -25.7783    9.0874 C.ar      14 UNK        -0.0930 
     13 C13       -55.2923  -26.9847    8.6783 C.ar      14 UNK        -0.0827 
     14 C14       -54.7350  -27.6803    7.6037 C.ar      14 UNK        -0.1249 
     15 C15       -56.5290  -27.5214    9.3842 C.3       14 UNK         0.0141 
     16 S16       -56.1936  -27.9480   11.1199 S.3       14 UNK        -0.2313 
     17 C17       -55.1177  -29.4145   10.9500 C.3       14 UNK        -0.0915 
     18 CA        -55.2904  -30.4034   12.1345 C.3       13 UNK         0.0968 
     19 C         -54.4349  -31.6911   11.9546 C.2       13 UNK         0.5732 
     20 N         -53.6238  -32.1042   12.9236 N.am      13 UNK        -0.7310 
     21 O         -54.5175  -32.3411   10.9155 O.2       13 UNK        -0.5035 
     22 N         -55.0823  -29.7382   13.4283 N.am      13 UNK        -0.4233 
     23 C         -55.7153  -30.0640   14.5604 C.2       13 UNK         0.4989 
     24 O         -56.5744  -30.9454   14.6336 O.2       13 UNK        -0.4996 
     25 CA        -55.3252  -29.2670   15.8192 C.3       12 UNK         0.0216 
     26 CB        -55.7891  -29.9431   17.1273 C.3       12 UNK        -0.1964 
     27 N         -53.8962  -28.9413   15.8893 N.am      12 UNK        -0.4276 
     28 C         -52.8589  -29.7940   15.9095 C.2       12 UNK         0.5020 
     29 O         -52.9849  -31.0144   15.7931 O.2       12 UNK        -0.5489 
     30 CA        -51.4384  -29.2061   16.0694 C.3       11 UNK         0.0294 
     31 CB        -50.4954  -29.7418   14.9774 C.3       11 UNK        -0.2019 
     32 N         -51.3956  -27.7408   16.0543 N.am      11 UNK        -0.4493 
     33 C         -51.7712  -26.9315   17.0542 C.2       11 UNK         0.4932 
     34 O         -52.1034  -27.3290   18.1704 O.2       11 UNK        -0.5029 
     35 CA        -51.8644  -25.4307   16.7246 C.3       10 UNK         0.0280 
     36 CB        -50.5277  -24.7203   16.9922 C.3       10 UNK        -0.1976 
     37 N         -52.2924  -25.1934   15.3403 N.am      10 UNK        -0.4242 
     38 C         -53.5186  -25.4663   14.8676 C.2       10 UNK         0.5072 
     39 O         -54.4389  -25.8901   15.5669 O.2       10 UNK        -0.5224 
     40 CA        -53.7442  -25.2877   13.3564 C.3       9 UNK         0.0343 
     41 CB        -54.0632  -23.8232   13.0184 C.3       9 UNK        -0.2003 
     42 N         -52.6007  -25.7427   12.5636 N.am      9 UNK        -0.4272 
     43 C         -52.2424  -27.0303   12.4373 C.2       9 UNK         0.4988 
     44 O         -52.8621  -27.9643   12.9456 O.2       9 UNK        -0.5108 
     45 CA        -50.9537  -27.3305   11.6457 C.3       8 UNK         0.0248 
     46 CB        -51.2695  -27.3627   10.1479 C.3       8 UNK        -0.2001 
     47 N         -49.8788  -26.3596   11.8582 N.am      8 UNK        -0.4140 
     48 C         -49.4279  -25.9251   13.0418 C.2       8 UNK         0.5028 
     49 O         -49.7450  -26.4313   14.1166 O.2       8 UNK        -0.5428 
     50 CA        -48.5387  -24.6680   13.0396 C.3       7 UNK         0.0264 
     51 CB        -47.0681  -25.0500   13.2680 C.3       7 UNK        -0.1988 
     52 N         -48.6411  -23.8319   11.8342 N.am      7 UNK        -0.4454 
     53 C         -49.7664  -23.3225   11.3042 C.2       7 UNK         0.5027 
     54 O         -50.8823  -23.4756   11.8048 O.2       7 UNK        -0.5083 
     55 CA        -49.5934  -22.4970   10.0183 C.3       6 UNK         0.0844 
     56 C56       -50.9168  -22.0661    9.3239 C.3       14 UNK        -0.0967 
     57 S57       -51.4931  -23.3488    8.1570 S.3       14 UNK        -0.2604 
     58 C58       -53.0015  -23.9543    8.9861 C.3       14 UNK         0.0134 
     59 N         -48.6813  -21.3995   10.3196 N.am      6 UNK        -0.4116 
     60 C         -47.9139  -20.7835    9.4162 C.2       5 UNK         0.5034 
     61 O         -48.1030  -20.8302    8.2004 O.2       5 UNK        -0.5045 
     62 CA        -46.6561  -20.0718    9.9499 C.3       5 UNK         0.0224 
     63 CB        -46.7928  -19.5329   11.3930 C.3       5 UNK        -0.1978 
     64 N         -45.4950  -20.9648    9.8124 N.am      5 UNK        -0.4737 
     65 C         -45.3525  -22.1810   10.3622 C.2       4 UNK         0.5027 
     66 O         -46.1019  -22.6476   11.2212 O.2       4 UNK        -0.5211 
     67 CA        -44.2471  -23.0778    9.7862 C.3       4 UNK         0.0297 
     68 CB        -43.4164  -23.7328   10.9031 C.3       4 UNK        -0.1993 
     69 N         -44.8684  -24.1219    8.9686 N.am      4 UNK        -0.4486 
     70 C         -45.4797  -23.9056    7.7952 C.2       3 UNK         0.4961 
     71 O         -45.4289  -22.8294    7.1985 O.2       3 UNK        -0.5105 
     72 CA        -46.2731  -25.0662    7.1653 C.3       3 UNK         0.0299 
     73 CB        -45.8043  -25.3340    5.7240 C.3       3 UNK        -0.1972 
     74 N         -46.2081  -26.3233    7.9154 N.am      3 UNK        -0.4305 
     75 C         -46.9856  -26.6555    8.9529 C.2       2 UNK         0.5006 
     76 O         -47.8033  -25.9016    9.4861 O.2       2 UNK        -0.5106 
     77 CA        -46.8528  -28.1055    9.4462 C.3       2 UNK         0.0296 
     78 CB        -46.6827  -28.1819   10.9724 C.3       2 UNK        -0.2002 
     79 N         -48.0356  -28.8644    9.0467 N.am      2 UNK        -0.4032 
     80 C         -48.3135  -29.2492    7.7911 C.2       1 UNK         0.5000 
     81 O         -47.5187  -29.1285    6.8566 O.2       1 UNK        -0.5238 
     82 H82       -51.4901  -32.5043   10.6037 H         1 UNK         0.0889 
     83 H83       -51.6796  -30.7714   10.8849 H         1 UNK         0.0889 
     84 H84       -50.3375  -31.6403   11.6256 H         1 UNK         0.0889 
     85 H85       -51.2902  -29.7884    8.9038 H         1 UNK         0.3028 
     86 H86       -49.5582  -30.7254    6.8896 H         1 UNK         0.0864 
     87 H87       -50.6869  -27.8938    7.2495 H         1 UNK         0.0720 
     88 H88       -50.0309  -28.5507    5.7725 H         1 UNK         0.0720 
     89 H89       -53.8702  -28.1880    5.0673 H         1 UNK         0.0814 
     90 H90       -52.3754  -27.2975    5.1595 H         1 UNK         0.0814 
     91 H91       -52.1798  -25.5932    6.8365 H         1 UNK         0.1469 
     92 H92       -55.1476  -25.2459    9.9253 H         1 UNK         0.1381 
     93 H93       -55.1763  -28.6120    7.2767 H         1 UNK         0.1206 
     94 H94       -57.3101  -26.7607    9.3551 H         1 UNK         0.0813 
     95 H95       -56.9331  -28.3934    8.8676 H         1 UNK         0.0813 
     96 H96       -55.3514  -29.9109   10.0066 H         1 UNK         0.0638 
     97 H97       -54.0836  -29.0793   10.8695 H         1 UNK         0.0638 
     98 H98       -56.3254  -30.7480   12.0980 H         1 UNK         0.0568 
     99 H99       -53.5574  -31.6033   13.8012 H         1 UNK         0.3450 
    100 H100      -53.0944  -32.9500   12.7910 H         1 UNK         0.3450 
    101 H101      -54.3554  -29.0267   13.4380 H         1 UNK         0.2987 
    102 H102      -55.8479  -28.3128   15.7400 H         1 UNK         0.0766 
    103 H103      -55.3443  -30.9312   17.2508 H         1 UNK         0.0798 
    104 H104      -55.5231  -29.3443   17.9985 H         1 UNK         0.0798 
    105 H105      -56.8723  -30.0693   17.1417 H         1 UNK         0.0798 
    106 H106      -53.6897  -27.9508   15.9313 H         1 UNK         0.3198 
    107 H107      -51.0622  -29.5450   17.0367 H         1 UNK         0.0843 
    108 H108      -50.3954  -30.8259   15.0435 H         1 UNK         0.0831 
    109 H109      -49.4952  -29.3179   15.0687 H         1 UNK         0.0831 
    110 H110      -50.8678  -29.5128   13.9797 H         1 UNK         0.0831 
    111 H111      -51.0434  -27.3076   15.2029 H         1 UNK         0.3133 
    112 H112      -52.6154  -24.9926   17.3855 H         1 UNK         0.0566 
    113 H113      -50.5989  -23.6508   16.7940 H         1 UNK         0.0814 
    114 H114      -50.2309  -24.8364   18.0355 H         1 UNK         0.0814 
    115 H115      -49.7196  -25.1226   16.3813 H         1 UNK         0.0814 
    116 H116      -51.5786  -24.9053   14.6864 H         1 UNK         0.3091 
    117 H117      -54.6088  -25.8942   13.0770 H         1 UNK         0.0702 
    118 H118      -54.3105  -23.7047   11.9638 H         1 UNK         0.0785 
    119 H119      -53.2244  -23.1630   13.2424 H         1 UNK         0.0785 
    120 H120      -54.9205  -23.4690   13.5925 H         1 UNK         0.0785 
    121 H121      -52.0115  -25.0220   12.1549 H         1 UNK         0.2998 
    122 H122      -50.5848  -28.3102   11.9524 H         1 UNK         0.0697 
    123 H123      -51.5767  -26.3796    9.7982 H         1 UNK         0.0825 
    124 H124      -52.0756  -28.0595    9.9157 H         1 UNK         0.0825 
    125 H125      -50.3961  -27.6415    9.5666 H         1 UNK         0.0825 
    126 H126      -49.5018  -25.9106   11.0321 H         1 UNK         0.3029 
    127 H127      -48.8659  -24.0564   13.8825 H         1 UNK         0.0897 
    128 H128      -46.4604  -24.1694   13.4770 H         1 UNK         0.0792 
    129 H129      -46.9601  -25.7245   14.1188 H         1 UNK         0.0792 
    130 H130      -46.6429  -25.5464   12.3958 H         1 UNK         0.0792 
    131 H131      -47.7533  -23.6013   11.3915 H         1 UNK         0.3086 
    132 H132      -49.0497  -23.1524    9.3325 H         1 UNK         0.0583 
    133 H133      -51.6959  -21.8026   10.0417 H         1 UNK         0.1020 
    134 H134      -50.7571  -21.1635    8.7331 H         1 UNK         0.1020 
    135 H135      -52.7763  -24.1015   10.0422 H         1 UNK         0.0694 
    136 H136      -53.7607  -23.1726    8.9352 H         1 UNK         0.0694 
    137 H137      -48.4227  -21.3120   11.2929 H         1 UNK         0.2989 
    138 H138      -46.4825  -19.2178    9.2927 H         1 UNK         0.1055 
    139 H139      -45.9193  -18.9421   11.6685 H         1 UNK         0.0806 
    140 H140      -46.8960  -20.3230   12.1367 H         1 UNK         0.0806 
    141 H141      -47.6613  -18.8790   11.4843 H         1 UNK         0.0806 
    142 H142      -44.8566  -20.7185    9.0675 H         1 UNK         0.3061 
    143 H143      -43.5791  -22.4819    9.1606 H         1 UNK         0.0734 
    144 H144      -42.9487  -22.9749   11.5328 H         1 UNK         0.0832 
    145 H145      -44.0284  -24.3609   11.5521 H         1 UNK         0.0832 
    146 H146      -42.6179  -24.3513   10.4932 H         1 UNK         0.0832 
    147 H147      -44.9842  -25.0265    9.3992 H         1 UNK         0.3156 
    148 H148      -47.3163  -24.7449    7.1232 H         1 UNK         0.0589 
    149 H149      -44.7568  -25.6356    5.6897 H         1 UNK         0.0808 
    150 H150      -46.3966  -26.1196    5.2539 H         1 UNK         0.0808 
    151 H151      -45.9070  -24.4424    5.1038 H         1 UNK         0.0808 
    152 H152      -45.5865  -27.0275    7.5423 H         1 UNK         0.3098 
    153 H153      -45.9729  -28.5639    8.9894 H         1 UNK         0.0720 
    154 H154      -46.5378  -29.2112   11.3012 H         1 UNK         0.0791 
    155 H155      -47.5472  -27.7844   11.5018 H         1 UNK         0.0791 
    156 H156      -45.8092  -27.6147   11.2958 H         1 UNK         0.0791 
    157 H157      -48.7396  -29.0091    9.7532 H         1 UNK         0.3028 
@<TRIPOS>BOND
     1    1    2 1    
     2    1   82 1    
     3    1   83 1    
     4    1   84 1    
     5    2    3 2    
     6    2    4 am   BACKBONE|DICT|INTERRES
     7    4    5 1    
     8    4   85 1    
     9    5    6 1    
    10    5   80 1    
    11    5   86 1    
    12    6    7 1    
    13    6   87 1    
    14    6   88 1    
    15    7    8 1    
    16    8    9 1    
    17    8   89 1    
    18    8   90 1    
    19    9   10 ar   
    20    9   14 ar   
    21   10   11 ar   
    22   10   91 1    
    23   11   12 ar   
    24   11   58 1    
    25   12   13 ar   
    26   12   92 1    
    27   13   14 ar   
    28   13   15 1    
    29   14   93 1    
    30   15   16 1    
    31   15   94 1    
    32   15   95 1    
    33   16   17 1    
    34   17   18 1    
    35   17   96 1    
    36   17   97 1    
    37   18   19 1    
    38   18   22 1    
    39   18   98 1    
    40   19   20 am   BACKBONE|DICT|INTERRES
    41   19   21 2    
    42   20   99 1    
    43   20  100 1    
    44   22   23 am   BACKBONE|DICT|INTERRES
    45   22  101 1    
    46   23   24 2    
    47   23   25 1    
    48   25   26 1    
    49   25   27 1    
    50   25  102 1    
    51   26  103 1    
    52   26  104 1    
    53   26  105 1    
    54   27   28 am   BACKBONE|DICT|INTERRES
    55   27  106 1    
    56   28   29 2    
    57   28   30 1    
    58   30   31 1    
    59   30   32 1    
    60   30  107 1    
    61   31  108 1    
    62   31  109 1    
    63   31  110 1    
    64   32   33 am   BACKBONE|DICT|INTERRES
    65   32  111 1    
    66   33   34 2    
    67   33   35 1    
    68   35   36 1    
    69   35   37 1    
    70   35  112 1    
    71   36  113 1    
    72   36  114 1    
    73   36  115 1    
    74   37   38 am   BACKBONE|DICT|INTERRES
    75   37  116 1    
    76   38   39 2    
    77   38   40 1    
    78   40   41 1    
    79   40   42 1    
    80   40  117 1    
    81   41  118 1    
    82   41  119 1    
    83   41  120 1    
    84   42   43 am   BACKBONE|DICT|INTERRES
    85   42  121 1    
    86   43   44 2    
    87   43   45 1    
    88   45   46 1    
    89   45   47 1    
    90   45  122 1    
    91   46  123 1    
    92   46  124 1    
    93   46  125 1    
    94   47   48 am   BACKBONE|DICT|INTERRES
    95   47  126 1    
    96   48   49 2    
    97   48   50 1    
    98   50   51 1    
    99   50   52 1    
   100   50  127 1    
   101   51  128 1    
   102   51  129 1    
   103   51  130 1    
   104   52   53 am   BACKBONE|DICT|INTERRES
   105   52  131 1    
   106   53   54 2    
   107   53   55 1    
   108   55   56 1    
   109   55   59 1    
   110   55  132 1    
   111   56   57 1    
   112   56  133 1    
   113   56  134 1    
   114   57   58 1    
   115   58  135 1    
   116   58  136 1    
   117   59   60 am   BACKBONE|DICT|INTERRES
   118   59  137 1    
   119   60   61 2    
   120   60   62 1    
   121   62   63 1    
   122   62   64 1    
   123   62  138 1    
   124   63  139 1    
   125   63  140 1    
   126   63  141 1    
   127   64   65 am   BACKBONE|DICT|INTERRES
   128   64  142 1    
   129   65   66 2    
   130   65   67 1    
   131   67   68 1    
   132   67   69 1    
   133   67  143 1    
   134   68  144 1    
   135   68  145 1    
   136   68  146 1    
   137   69   70 am   BACKBONE|DICT|INTERRES
   138   69  147 1    
   139   70   71 2    
   140   70   72 1    
   141   72   73 1    
   142   72   74 1    
   143   72  148 1    
   144   73  149 1    
   145   73  150 1    
   146   73  151 1    
   147   74   75 am   BACKBONE|DICT|INTERRES
   148   74  152 1    
   149   75   76 2    
   150   75   77 1    
   151   77   78 1    
   152   77   79 1    
   153   77  153 1    
   154   78  154 1    
   155   78  155 1    
   156   78  156 1    
   157   79   80 am   BACKBONE|DICT|INTERRES
   158   79  157 1    
   159   80   81 2    
@<TRIPOS>SUBSTRUCTURE
     1 UNK         1 GROUP             0       ****    0 ROOT    
