@<TRIPOS>MOLECULE
3R207
157   159    1
SMALL
USER_CHARGES


@<TRIPOS>ATOM
      1 CA        -53.4943  -23.1620    8.5899 C.3       0 UNK        -0.1975 
      2 C         -52.9386  -24.1020    9.6565 C.2       0 UNK         0.4852 
      3 O         -53.1763  -23.8616   10.8386 O.2       0 UNK        -0.5216 
      4 N         -52.2212  -25.1827    9.3153 N.am      1 UNK        -0.4461 
      5 CA        -51.7964  -25.6241    7.9792 C.3       1 UNK         0.0864 
      6 C6        -52.9784  -25.9443    7.0191 C.3       14 UNK        -0.0898 
      7 S7        -52.5812  -27.2724    5.8274 S.3       14 UNK        -0.2598 
      8 C8        -53.2208  -28.7633    6.6640 C.3       14 UNK         0.0286 
      9 C9        -52.4093  -29.1264    7.9013 C.ar      14 UNK        -0.0844 
     10 C10       -51.0859  -29.5639    7.7734 C.ar      14 UNK        -0.0881 
     11 C11       -50.3248  -29.8574    8.9093 C.ar      14 UNK        -0.0643 
     12 C12       -50.9058  -29.7457   10.1744 C.ar      14 UNK        -0.0930 
     13 C13       -52.2316  -29.3322   10.3147 C.ar      14 UNK        -0.0827 
     14 C14       -52.9781  -29.0184    9.1751 C.ar      14 UNK        -0.1249 
     15 C15       -52.8361  -29.2125   11.7042 C.3       14 UNK         0.0141 
     16 S16       -53.0500  -30.8501   12.4668 S.3       14 UNK        -0.2313 
     17 C17       -53.5180  -30.3946   14.1678 C.3       14 UNK        -0.0915 
     18 CA        -55.0235  -30.6211   14.4546 C.3       13 UNK         0.0968 
     19 C         -55.3411  -30.4853   15.9718 C.2       13 UNK         0.5732 
     20 N         -56.2758  -29.6388   16.3891 N.am      13 UNK        -0.7310 
     21 O         -54.7488  -31.1867   16.7889 O.2       13 UNK        -0.5035 
     22 N         -55.8708  -29.7655   13.6067 N.am      13 UNK        -0.4233 
     23 C         -56.9318  -30.1966   12.9110 C.2       13 UNK         0.4989 
     24 O         -57.2773  -31.3784   12.8627 O.2       13 UNK        -0.4996 
     25 CA        -57.7806  -29.1561   12.1545 C.3       12 UNK         0.0216 
     26 CB        -59.2633  -29.2612   12.5569 C.3       12 UNK        -0.1964 
     27 N         -57.3396  -27.7772   12.3711 N.am      12 UNK        -0.4276 
     28 C         -56.4634  -27.1144   11.6074 C.2       12 UNK         0.5020 
     29 O         -55.9209  -27.5918   10.6118 O.2       12 UNK        -0.5489 
     30 CA        -56.1494  -25.6618   12.0081 C.3       11 UNK         0.0294 
     31 CB        -57.1532  -25.0548   13.0157 C.3       11 UNK        -0.2019 
     32 N         -54.7827  -25.4837   12.5059 N.am      11 UNK        -0.4493 
     33 C         -54.1750  -26.1284   13.5113 C.2       11 UNK         0.4932 
     34 O         -54.6464  -27.1069   14.0938 O.2       11 UNK        -0.5029 
     35 CA        -52.8683  -25.4740   13.9876 C.3       10 UNK         0.0280 
     36 CB        -53.1310  -24.5724   15.2109 C.3       10 UNK        -0.1976 
     37 N         -51.7486  -26.3908   14.2168 N.am      10 UNK        -0.4242 
     38 C         -51.5140  -27.2210   15.2433 C.2       10 UNK         0.5072 
     39 O         -52.3103  -27.4769   16.1467 O.2       10 UNK        -0.5224 
     40 CA        -50.0875  -27.8042   15.3151 C.3       9 UNK         0.0343 
     41 CB        -49.9004  -28.9844   14.3473 C.3       9 UNK        -0.2003 
     42 N         -49.0640  -26.7827   15.0589 N.am      9 UNK        -0.4272 
     43 C         -48.8145  -25.7394   15.8679 C.2       9 UNK         0.4988 
     44 O         -49.3142  -25.6038   16.9852 O.2       9 UNK        -0.5108 
     45 CA        -47.8721  -24.6437   15.3363 C.3       8 UNK         0.0248 
     46 CB        -46.4000  -25.0005   15.5974 C.3       8 UNK        -0.2001 
     47 N         -48.0837  -24.3700   13.9122 N.am      8 UNK        -0.4140 
     48 C         -49.1851  -23.7867   13.4136 C.2       8 UNK         0.5028 
     49 O         -50.0748  -23.3014   14.1111 O.2       8 UNK        -0.5428 
     50 CA        -49.3402  -23.7531   11.8845 C.3       7 UNK         0.0264 
     51 CB        -48.7677  -22.4490   11.3085 C.3       7 UNK        -0.1988 
     52 N         -48.7065  -24.8953   11.2256 N.am      7 UNK        -0.4454 
     53 C         -49.1371  -26.1608   11.2968 C.2       7 UNK         0.5027 
     54 O         -50.1732  -26.4898   11.8735 O.2       7 UNK        -0.5083 
     55 CA        -48.2536  -27.2457   10.6449 C.3       6 UNK         0.0844 
     56 C56       -48.5610  -27.3763    9.1415 C.3       14 UNK        -0.0967 
     57 S57       -47.7778  -28.8222    8.3427 S.3       14 UNK        -0.2604 
     58 C58       -48.8550  -30.2330    8.7874 C.3       14 UNK         0.0134 
     59 N         -46.8336  -27.0096   10.8867 N.am      6 UNK        -0.4116 
     60 C         -46.2356  -27.1103   12.0780 C.2       5 UNK         0.5034 
     61 O         -46.8171  -27.4412   13.1114 O.2       5 UNK        -0.5045 
     62 CA        -44.7434  -26.7417   12.1194 C.3       5 UNK         0.0224 
     63 CB        -43.8761  -27.9633   11.7773 C.3       5 UNK        -0.1978 
     64 N         -44.4122  -25.6337   11.2145 N.am      5 UNK        -0.4737 
     65 C         -44.8223  -24.3714   11.4011 C.2       4 UNK         0.5027 
     66 O         -45.5000  -24.0112   12.3634 O.2       4 UNK        -0.5211 
     67 CA        -44.4523  -23.3534   10.3073 C.3       4 UNK         0.0297 
     68 CB        -42.9731  -22.9495   10.4170 C.3       4 UNK        -0.1993 
     69 N         -44.7460  -23.8058    8.9393 N.am      4 UNK        -0.4486 
     70 C         -45.9626  -24.1574    8.5026 C.2       3 UNK         0.4961 
     71 O         -46.9508  -24.2299    9.2310 O.2       3 UNK        -0.5105 
     72 CA        -46.1118  -24.5088    7.0191 C.3       3 UNK         0.0299 
     73 CB        -45.6015  -25.9359    6.7420 C.3       3 UNK        -0.1972 
     74 N         -47.5261  -24.3662    6.6605 N.am      3 UNK        -0.4305 
     75 C         -48.0350  -24.3404    5.4246 C.2       2 UNK         0.5006 
     76 O         -47.3618  -24.5462    4.4126 O.2       2 UNK        -0.5106 
     77 CA        -49.5354  -23.9972    5.2881 C.3       2 UNK         0.0296 
     78 CB        -50.0163  -24.0204    3.8241 C.3       2 UNK        -0.2002 
     79 N         -50.4219  -24.8584    6.0777 N.am      2 UNK        -0.4032 
     80 C         -50.6844  -24.7232    7.3829 C.2       1 UNK         0.5000 
     81 O         -50.0813  -23.9265    8.1048 O.2       1 UNK        -0.5238 
     82 H82       -52.7510  -22.9051    7.8381 H         1 UNK         0.0889 
     83 H83       -53.8234  -22.2294    9.0477 H         1 UNK         0.0889 
     84 H84       -54.3574  -23.6103    8.0994 H         1 UNK         0.0889 
     85 H85       -51.8617  -25.7506   10.0701 H         1 UNK         0.3028 
     86 H86       -51.3165  -26.5750    8.1744 H         1 UNK         0.0864 
     87 H87       -53.2918  -25.0598    6.4624 H         1 UNK         0.0720 
     88 H88       -53.8530  -26.2604    7.5904 H         1 UNK         0.0720 
     89 H89       -53.1901  -29.5991    5.9636 H         1 UNK         0.0814 
     90 H90       -54.2727  -28.6157    6.9141 H         1 UNK         0.0814 
     91 H91       -50.6352  -29.6365    6.7928 H         1 UNK         0.1469 
     92 H92       -50.3241  -29.9700   11.0579 H         1 UNK         0.1381 
     93 H93       -54.0011  -28.6848    9.2800 H         1 UNK         0.1206 
     94 H94       -52.1869  -28.5941   12.3236 H         1 UNK         0.0813 
     95 H95       -53.8005  -28.7075   11.6683 H         1 UNK         0.0813 
     96 H96       -53.2457  -29.3586   14.3629 H         1 UNK         0.0638 
     97 H97       -52.9036  -30.9995   14.8367 H         1 UNK         0.0638 
     98 H98       -55.2284  -31.6684   14.2268 H         1 UNK         0.0568 
     99 H99       -56.4736  -29.5708   17.3747 H         1 UNK         0.3450 
    100 H100      -56.7666  -29.0547   15.7330 H         1 UNK         0.3450 
    101 H101      -55.6326  -28.7785   13.6154 H         1 UNK         0.2987 
    102 H102      -57.7031  -29.3970   11.0920 H         1 UNK         0.0766 
    103 H103      -59.8763  -28.5515   12.0009 H         1 UNK         0.0798 
    104 H104      -59.4087  -29.0701   13.6208 H         1 UNK         0.0798 
    105 H105      -59.6591  -30.2561   12.3478 H         1 UNK         0.0798 
    106 H106      -57.7207  -27.3002   13.1757 H         1 UNK         0.3198 
    107 H107      -56.2163  -25.0781   11.0885 H         1 UNK         0.0843 
    108 H108      -58.1795  -25.1377   12.6546 H         1 UNK         0.0831 
    109 H109      -57.0993  -25.5322   13.9949 H         1 UNK         0.0831 
    110 H110      -56.9576  -23.9925   13.1632 H         1 UNK         0.0831 
    111 H111      -54.2502  -24.7546   12.0311 H         1 UNK         0.3133 
    112 H112      -52.5102  -24.8233   13.1893 H         1 UNK         0.0566 
    113 H113      -52.2161  -24.0919   15.5572 H         1 UNK         0.0814 
    114 H114      -53.8403  -23.7816   14.9639 H         1 UNK         0.0814 
    115 H115      -53.5522  -25.1333   16.0457 H         1 UNK         0.0814 
    116 H116      -51.0363  -26.3535   13.4900 H         1 UNK         0.3091 
    117 H117      -49.9356  -28.1790   16.3296 H         1 UNK         0.0702 
    118 H118      -48.9166  -29.4386   14.4670 H         1 UNK         0.0785 
    119 H119      -49.9978  -28.6809   13.3061 H         1 UNK         0.0785 
    120 H120      -50.6405  -29.7630   14.5328 H         1 UNK         0.0785 
    121 H121      -48.5446  -26.8577   14.1917 H         1 UNK         0.2998 
    122 H122      -48.0925  -23.7252   15.8846 H         1 UNK         0.0697 
    123 H123      -45.7319  -24.2164   15.2404 H         1 UNK         0.0825 
    124 H124      -46.2156  -25.1227   16.6654 H         1 UNK         0.0825 
    125 H125      -46.1121  -25.9321   15.1122 H         1 UNK         0.0825 
    126 H126      -47.3485  -24.6476   13.2720 H         1 UNK         0.3029 
    127 H127      -50.4087  -23.7848   11.6603 H         1 UNK         0.0897 
    128 H128      -48.9451  -22.3832   10.2346 H         1 UNK         0.0792 
    129 H129      -49.2357  -21.5785   11.7698 H         1 UNK         0.0792 
    130 H130      -47.6924  -22.3732   11.4748 H         1 UNK         0.0792 
    131 H131      -47.9035  -24.6818   10.6332 H         1 UNK         0.3086 
    132 H132      -48.5131  -28.1917   11.1245 H         1 UNK         0.0583 
    133 H133      -49.6303  -27.4367    8.9937 H         1 UNK         0.1020 
    134 H134      -48.2482  -26.4798    8.6055 H         1 UNK         0.1020 
    135 H135      -48.7404  -31.0159    8.0365 H         1 UNK         0.0694 
    136 H136      -48.4938  -30.6589    9.7248 H         1 UNK         0.0694 
    137 H137      -46.2847  -26.7081   10.0965 H         1 UNK         0.2989 
    138 H138      -44.5108  -26.4302   13.1404 H         1 UNK         0.1055 
    139 H139      -44.0920  -28.7943   12.4505 H         1 UNK         0.0806 
    140 H140      -42.8144  -27.7364   11.8768 H         1 UNK         0.0806 
    141 H141      -44.0514  -28.3149   10.7597 H         1 UNK         0.0806 
    142 H142      -43.8564  -25.8474   10.3986 H         1 UNK         0.3061 
    143 H143      -45.0563  -22.4610   10.4858 H         1 UNK         0.0734 
    144 H144      -42.3054  -23.7831   10.1961 H         1 UNK         0.0832 
    145 H145      -42.7319  -22.1354    9.7333 H         1 UNK         0.0832 
    146 H146      -42.7378  -22.6024   11.4243 H         1 UNK         0.0832 
    147 H147      -43.9808  -23.7849    8.2798 H         1 UNK         0.3156 
    148 H148      -45.5317  -23.7918    6.4349 H         1 UNK         0.0589 
    149 H149      -45.6712  -26.1922    5.6852 H         1 UNK         0.0808 
    150 H150      -44.5538  -26.0420    7.0253 H         1 UNK         0.0808 
    151 H151      -46.1652  -26.6799    7.3007 H         1 UNK         0.0808 
    152 H152      -48.1401  -24.1649    7.4483 H         1 UNK         0.3098 
    153 H153      -49.6486  -22.9718    5.6470 H         1 UNK         0.0720 
    154 H154      -49.4274  -23.3415    3.2057 H         1 UNK         0.0791 
    155 H155      -51.0568  -23.7051    3.7426 H         1 UNK         0.0791 
    156 H156      -49.9322  -25.0166    3.3879 H         1 UNK         0.0791 
    157 H157      -50.9257  -25.5735    5.5680 H         1 UNK         0.3028 
@<TRIPOS>BOND
     1    1    2 1    
     2    1   82 1    
     3    1   83 1    
     4    1   84 1    
     5    2    3 2    
     6    2    4 am   BACKBONE|DICT|INTERRES
     7    4    5 1    
     8    4   85 1    
     9    5    6 1    
    10    5   80 1    
    11    5   86 1    
    12    6    7 1    
    13    6   87 1    
    14    6   88 1    
    15    7    8 1    
    16    8    9 1    
    17    8   89 1    
    18    8   90 1    
    19    9   10 ar   
    20    9   14 ar   
    21   10   11 ar   
    22   10   91 1    
    23   11   12 ar   
    24   11   58 1    
    25   12   13 ar   
    26   12   92 1    
    27   13   14 ar   
    28   13   15 1    
    29   14   93 1    
    30   15   16 1    
    31   15   94 1    
    32   15   95 1    
    33   16   17 1    
    34   17   18 1    
    35   17   96 1    
    36   17   97 1    
    37   18   19 1    
    38   18   22 1    
    39   18   98 1    
    40   19   20 am   BACKBONE|DICT|INTERRES
    41   19   21 2    
    42   20   99 1    
    43   20  100 1    
    44   22   23 am   BACKBONE|DICT|INTERRES
    45   22  101 1    
    46   23   24 2    
    47   23   25 1    
    48   25   26 1    
    49   25   27 1    
    50   25  102 1    
    51   26  103 1    
    52   26  104 1    
    53   26  105 1    
    54   27   28 am   BACKBONE|DICT|INTERRES
    55   27  106 1    
    56   28   29 2    
    57   28   30 1    
    58   30   31 1    
    59   30   32 1    
    60   30  107 1    
    61   31  108 1    
    62   31  109 1    
    63   31  110 1    
    64   32   33 am   BACKBONE|DICT|INTERRES
    65   32  111 1    
    66   33   34 2    
    67   33   35 1    
    68   35   36 1    
    69   35   37 1    
    70   35  112 1    
    71   36  113 1    
    72   36  114 1    
    73   36  115 1    
    74   37   38 am   BACKBONE|DICT|INTERRES
    75   37  116 1    
    76   38   39 2    
    77   38   40 1    
    78   40   41 1    
    79   40   42 1    
    80   40  117 1    
    81   41  118 1    
    82   41  119 1    
    83   41  120 1    
    84   42   43 am   BACKBONE|DICT|INTERRES
    85   42  121 1    
    86   43   44 2    
    87   43   45 1    
    88   45   46 1    
    89   45   47 1    
    90   45  122 1    
    91   46  123 1    
    92   46  124 1    
    93   46  125 1    
    94   47   48 am   BACKBONE|DICT|INTERRES
    95   47  126 1    
    96   48   49 2    
    97   48   50 1    
    98   50   51 1    
    99   50   52 1    
   100   50  127 1    
   101   51  128 1    
   102   51  129 1    
   103   51  130 1    
   104   52   53 am   BACKBONE|DICT|INTERRES
   105   52  131 1    
   106   53   54 2    
   107   53   55 1    
   108   55   56 1    
   109   55   59 1    
   110   55  132 1    
   111   56   57 1    
   112   56  133 1    
   113   56  134 1    
   114   57   58 1    
   115   58  135 1    
   116   58  136 1    
   117   59   60 am   BACKBONE|DICT|INTERRES
   118   59  137 1    
   119   60   61 2    
   120   60   62 1    
   121   62   63 1    
   122   62   64 1    
   123   62  138 1    
   124   63  139 1    
   125   63  140 1    
   126   63  141 1    
   127   64   65 am   BACKBONE|DICT|INTERRES
   128   64  142 1    
   129   65   66 2    
   130   65   67 1    
   131   67   68 1    
   132   67   69 1    
   133   67  143 1    
   134   68  144 1    
   135   68  145 1    
   136   68  146 1    
   137   69   70 am   BACKBONE|DICT|INTERRES
   138   69  147 1    
   139   70   71 2    
   140   70   72 1    
   141   72   73 1    
   142   72   74 1    
   143   72  148 1    
   144   73  149 1    
   145   73  150 1    
   146   73  151 1    
   147   74   75 am   BACKBONE|DICT|INTERRES
   148   74  152 1    
   149   75   76 2    
   150   75   77 1    
   151   77   78 1    
   152   77   79 1    
   153   77  153 1    
   154   78  154 1    
   155   78  155 1    
   156   78  156 1    
   157   79   80 am   BACKBONE|DICT|INTERRES
   158   79  157 1    
   159   80   81 2    
@<TRIPOS>SUBSTRUCTURE
     1 UNK         1 GROUP             0       ****    0 ROOT    
