@<TRIPOS>MOLECULE
3R207
157   159    1
SMALL
USER_CHARGES


@<TRIPOS>ATOM
      1 CA        -47.2118  -27.9399   11.4047 C.3       0 UNK        -0.1975 
      2 C         -47.3187  -28.7964   10.1524 C.2       0 UNK         0.4852 
      3 O         -46.7629  -29.8941   10.1085 O.2       0 UNK        -0.5216 
      4 N         -48.0201  -28.2928    9.1303 N.am      1 UNK        -0.4461 
      5 CA        -48.2050  -28.9399    7.8260 C.3       1 UNK         0.0864 
      6 C6        -49.5347  -28.5039    7.1581 C.3       14 UNK        -0.0898 
      7 S7        -50.9963  -28.8949    8.1722 S.3       14 UNK        -0.2598 
      8 C8        -52.3397  -28.5464    6.9944 C.3       14 UNK         0.0286 
      9 C9        -53.3250  -27.5368    7.5622 C.ar      14 UNK        -0.0844 
     10 C10       -53.2800  -26.1961    7.1655 C.ar      14 UNK        -0.0881 
     11 C11       -54.2031  -25.2733    7.6719 C.ar      14 UNK        -0.0643 
     12 C12       -55.1691  -25.7052    8.5873 C.ar      14 UNK        -0.0930 
     13 C13       -55.2327  -27.0457    8.9806 C.ar      14 UNK        -0.0827 
     14 C14       -54.3069  -27.9558    8.4640 C.ar      14 UNK        -0.1249 
     15 C15       -56.3296  -27.5125    9.9284 C.3       14 UNK         0.0141 
     16 S16       -55.7772  -27.5088   11.6612 S.3       14 UNK        -0.2313 
     17 C17       -54.9726  -29.1415   11.8159 C.3       14 UNK        -0.0915 
     18 CA        -55.6195  -30.0336   12.9083 C.3       13 UNK         0.0968 
     19 C         -54.9983  -31.4620   12.9290 C.2       13 UNK         0.5732 
     20 N         -54.5355  -31.9855   14.0595 N.am      13 UNK        -0.7310 
     21 O         -54.9507  -32.1232   11.8944 O.2       13 UNK        -0.5035 
     22 N         -55.6215  -29.3779   14.2256 N.am      13 UNK        -0.4233 
     23 C         -56.5909  -29.5286   15.1373 C.2       13 UNK         0.4989 
     24 O         -57.6190  -30.1786   14.9361 O.2       13 UNK        -0.4996 
     25 CA        -56.3811  -28.8407   16.5019 C.3       12 UNK         0.0216 
     26 CB        -57.2802  -29.4277   17.6112 C.3       12 UNK        -0.1964 
     27 N         -54.9819  -28.8078   16.9449 N.am      12 UNK        -0.4276 
     28 C         -54.1574  -29.8518   17.1349 C.2       12 UNK         0.5020 
     29 O         -54.4825  -31.0203   16.9180 O.2       12 UNK        -0.5489 
     30 CA        -52.7242  -29.5465   17.6161 C.3       11 UNK         0.0294 
     31 CB        -51.6904  -30.4485   16.9166 C.3       11 UNK        -0.2019 
     32 N         -52.3698  -28.1488   17.3673 N.am      11 UNK        -0.4493 
     33 C         -52.3189  -27.1742   18.2859 C.2       11 UNK         0.4932 
     34 O         -52.4691  -27.3626   19.4929 O.2       11 UNK        -0.5029 
     35 CA        -52.0961  -25.7368   17.7728 C.3       10 UNK         0.0280 
     36 CB        -50.6274  -25.3248   17.9580 C.3       10 UNK        -0.1976 
     37 N         -52.4845  -25.5536   16.3686 N.am      10 UNK        -0.4242 
     38 C         -53.7484  -25.6335   15.9176 C.2       10 UNK         0.5072 
     39 O         -54.7200  -25.7870   16.6579 O.2       10 UNK        -0.5224 
     40 CA        -53.9740  -25.6297   14.3928 C.3       9 UNK         0.0343 
     41 CB        -54.3212  -24.2180   13.8985 C.3       9 UNK        -0.2003 
     42 N         -52.8360  -26.1480   13.6288 N.am      9 UNK        -0.4272 
     43 C         -52.3154  -27.3779   13.7693 C.2       9 UNK         0.4988 
     44 O         -52.8438  -28.2519   14.4572 O.2       9 UNK        -0.5108 
     45 CA        -50.9591  -27.6787   13.0976 C.3       8 UNK         0.0248 
     46 CB        -51.1484  -28.5877   11.8739 C.3       8 UNK        -0.2001 
     47 N         -50.2103  -26.4851   12.6951 N.am      8 UNK        -0.4140 
     48 C         -49.8111  -25.4940   13.5074 C.2       8 UNK         0.5028 
     49 O         -49.9443  -25.5210   14.7309 O.2       8 UNK        -0.5428 
     50 CA        -49.2501  -24.2239   12.8393 C.3       7 UNK         0.0264 
     51 CB        -47.7221  -24.1570   12.9906 C.3       7 UNK        -0.1988 
     52 N         -49.6199  -24.0786   11.4233 N.am      7 UNK        -0.4454 
     53 C         -50.8746  -23.9724   10.9558 C.2       7 UNK         0.5027 
     54 O         -51.8562  -23.9532   11.6999 O.2       7 UNK        -0.5083 
     55 CA        -51.0885  -23.9309    9.4234 C.3       6 UNK         0.0844 
     56 C56       -52.2412  -22.9703    9.0347 C.3       14 UNK        -0.0967 
     57 S57       -52.5885  -23.0073    7.2425 S.3       14 UNK        -0.2604 
     58 C58       -54.2162  -23.8260    7.1864 C.3       14 UNK         0.0134 
     59 N         -49.8707  -23.6602    8.6448 N.am      6 UNK        -0.4116 
     60 C         -48.8880  -24.5343    8.3971 C.2       5 UNK         0.5034 
     61 O         -48.8034  -25.6287    8.9520 O.2       5 UNK        -0.5045 
     62 CA        -47.7947  -24.1190    7.3990 C.3       5 UNK         0.0224 
     63 CB        -48.0141  -24.8142    6.0468 C.3       5 UNK        -0.1978 
     64 N         -47.7533  -22.6697    7.1737 N.am      5 UNK        -0.4737 
     65 C         -46.9967  -21.7366    7.7753 C.2       4 UNK         0.5027 
     66 O         -47.2043  -20.5423    7.5727 O.2       4 UNK        -0.5211 
     67 CA        -45.8257  -22.1195    8.7093 C.3       4 UNK         0.0297 
     68 CB        -46.3025  -22.6412   10.0753 C.3       4 UNK        -0.1993 
     69 N         -44.8468  -23.0382    8.1227 N.am      4 UNK        -0.4486 
     70 C         -44.0901  -22.8020    7.0450 C.2       3 UNK         0.4961 
     71 O         -44.1091  -21.7487    6.4080 O.2       3 UNK        -0.5105 
     72 CA        -43.1271  -23.9234    6.6103 C.3       3 UNK         0.0299 
     73 CB        -41.9766  -24.0958    7.6228 C.3       3 UNK        -0.1972 
     74 N         -43.7687  -25.2110    6.3015 N.am      3 UNK        -0.4305 
     75 C         -44.4270  -26.0402    7.1228 C.2       2 UNK         0.5006 
     76 O         -44.6364  -25.8189    8.3196 O.2       2 UNK        -0.5106 
     77 CA        -44.9303  -27.3476    6.5024 C.3       2 UNK         0.0296 
     78 CB        -43.8237  -28.4190    6.5135 C.3       2 UNK        -0.2002 
     79 N         -46.0835  -27.7998    7.2721 N.am      2 UNK        -0.4032 
     80 C         -47.0137  -28.6782    6.8754 C.2       1 UNK         0.5000 
     81 O         -46.9716  -29.2628    5.7911 O.2       1 UNK        -0.5238 
     82 H82       -46.1655  -27.7816   11.6647 H         1 UNK         0.0889 
     83 H83       -47.7028  -28.4331   12.2432 H         1 UNK         0.0889 
     84 H84       -47.6751  -26.9649   11.2623 H         1 UNK         0.0889 
     85 H85       -48.4336  -27.3639    9.2035 H         1 UNK         0.3028 
     86 H86       -48.2481  -30.0206    7.9777 H         1 UNK         0.0864 
     87 H87       -49.5407  -27.4319    6.9589 H         1 UNK         0.0720 
     88 H88       -49.6532  -29.0006    6.1929 H         1 UNK         0.0720 
     89 H89       -52.8581  -29.4784    6.7647 H         1 UNK         0.0814 
     90 H90       -51.9366  -28.1856    6.0471 H         1 UNK         0.0814 
     91 H91       -52.5352  -25.8706    6.4522 H         1 UNK         0.1469 
     92 H92       -55.8934  -25.0022    8.9756 H         1 UNK         0.1381 
     93 H93       -54.3512  -28.9957    8.7550 H         1 UNK         0.1206 
     94 H94       -57.1952  -26.8541    9.8427 H         1 UNK         0.0813 
     95 H95       -56.6835  -28.5052    9.6464 H         1 UNK         0.0813 
     96 H96       -53.9188  -28.9837   12.0288 H         1 UNK         0.0638 
     97 H97       -55.0075  -29.6493   10.8520 H         1 UNK         0.0638 
     98 H98       -56.6562  -30.1846   12.6017 H         1 UNK         0.0568 
     99 H99       -54.5908  -31.4845   14.9394 H         1 UNK         0.3450 
    100 H100      -54.1476  -32.9147   14.0415 H         1 UNK         0.3450 
    101 H101      -54.7732  -28.8768   14.4667 H         1 UNK         0.2987 
    102 H102      -56.6763  -27.8005   16.3568 H         1 UNK         0.0766 
    103 H103      -57.0761  -30.4861   17.7775 H         1 UNK         0.0798 
    104 H104      -57.1352  -28.9055   18.5569 H         1 UNK         0.0798 
    105 H105      -58.3358  -29.3361   17.3524 H         1 UNK         0.0798 
    106 H106      -54.6159  -27.8780   17.1155 H         1 UNK         0.3198 
    107 H107      -52.6945  -29.7604   18.6864 H         1 UNK         0.0843 
    108 H108      -51.8710  -31.5004   17.1415 H         1 UNK         0.0831 
    109 H109      -50.6767  -30.2191   17.2450 H         1 UNK         0.0831 
    110 H110      -51.7257  -30.3374   15.8321 H         1 UNK         0.0831 
    111 H111      -52.2778  -27.9029   16.3874 H         1 UNK         0.3133 
    112 H112      -52.7141  -25.0714   18.3792 H         1 UNK         0.0566 
    113 H113      -50.4556  -24.3006   17.6266 H         1 UNK         0.0814 
    114 H114      -50.3365  -25.3792   19.0080 H         1 UNK         0.0814 
    115 H115      -49.9527  -25.9753   17.3999 H         1 UNK         0.0814 
    116 H116      -51.7239  -25.4523   15.7016 H         1 UNK         0.3091 
    117 H117      -54.8275  -26.2800   14.1942 H         1 UNK         0.0702 
    118 H118      -54.5714  -24.2231   12.8372 H         1 UNK         0.0785 
    119 H119      -53.4914  -23.5249   14.0432 H         1 UNK         0.0785 
    120 H120      -55.1831  -23.8164   14.4331 H         1 UNK         0.0785 
    121 H121      -52.3725  -25.4855   13.0160 H         1 UNK         0.2998 
    122 H122      -50.3506  -28.2121   13.8306 H         1 UNK         0.0697 
    123 H123      -50.1961  -28.8429   11.4103 H         1 UNK         0.0825 
    124 H124      -51.7743  -28.1171   11.1140 H         1 UNK         0.0825 
    125 H125      -51.6237  -29.5277   12.1569 H         1 UNK         0.0825 
    126 H126      -50.0773  -26.3556   11.7033 H         1 UNK         0.3029 
    127 H127      -49.6798  -23.3764   13.3780 H         1 UNK         0.0897 
    128 H128      -47.3418  -23.1757   12.7091 H         1 UNK         0.0792 
    129 H129      -47.4239  -24.3243   14.0268 H         1 UNK         0.0792 
    130 H130      -47.2147  -24.9051   12.3822 H         1 UNK         0.0792 
    131 H131      -48.8750  -24.1428   10.7453 H         1 UNK         0.3086 
    132 H132      -51.4151  -24.9394    9.1593 H         1 UNK         0.0583 
    133 H133      -53.1554  -23.2216    9.5766 H         1 UNK         0.1020 
    134 H134      -51.9971  -21.9448    9.3177 H         1 UNK         0.1020 
    135 H135      -54.9254  -23.2285    7.7615 H         1 UNK         0.0694 
    136 H136      -54.5732  -23.8133    6.1559 H         1 UNK         0.0694 
    137 H137      -49.8441  -22.7674    8.1755 H         1 UNK         0.2989 
    138 H138      -46.8578  -24.4862    7.8041 H         1 UNK         0.1055 
    139 H139      -48.9749  -24.5490    5.6034 H         1 UNK         0.0806 
    140 H140      -47.9918  -25.8976    6.1517 H         1 UNK         0.0806 
    141 H141      -47.2317  -24.5486    5.3355 H         1 UNK         0.0806 
    142 H142      -48.4379  -22.3288    6.5139 H         1 UNK         0.3061 
    143 H143      -45.2873  -21.1897    8.9063 H         1 UNK         0.0734 
    144 H144      -47.1365  -22.0485   10.4543 H         1 UNK         0.0832 
    145 H145      -46.6209  -23.6815   10.0375 H         1 UNK         0.0832 
    146 H146      -45.5031  -22.5761   10.8138 H         1 UNK         0.0832 
    147 H147      -44.7687  -23.9658    8.5331 H         1 UNK         0.3156 
    148 H148      -42.6768  -23.5947    5.6720 H         1 UNK         0.0589 
    149 H149      -42.3291  -24.4446    8.5939 H         1 UNK         0.0808 
    150 H150      -41.2363  -24.8094    7.2614 H         1 UNK         0.0808 
    151 H151      -41.4594  -23.1497    7.7882 H         1 UNK         0.0808 
    152 H152      -43.6856  -25.4932    5.3339 H         1 UNK         0.3098 
    153 H153      -45.2464  -27.1515    5.4756 H         1 UNK         0.0720 
    154 H154      -44.1596  -29.3455    6.0477 H         1 UNK         0.0791 
    155 H155      -43.5035  -28.6534    7.5297 H         1 UNK         0.0791 
    156 H156      -42.9444  -28.0830    5.9626 H         1 UNK         0.0791 
    157 H157      -46.1824  -27.3481    8.1729 H         1 UNK         0.3028 
@<TRIPOS>BOND
     1    1    2 1    
     2    1   82 1    
     3    1   83 1    
     4    1   84 1    
     5    2    3 2    
     6    2    4 am   BACKBONE|DICT|INTERRES
     7    4    5 1    
     8    4   85 1    
     9    5    6 1    
    10    5   80 1    
    11    5   86 1    
    12    6    7 1    
    13    6   87 1    
    14    6   88 1    
    15    7    8 1    
    16    8    9 1    
    17    8   89 1    
    18    8   90 1    
    19    9   10 ar   
    20    9   14 ar   
    21   10   11 ar   
    22   10   91 1    
    23   11   12 ar   
    24   11   58 1    
    25   12   13 ar   
    26   12   92 1    
    27   13   14 ar   
    28   13   15 1    
    29   14   93 1    
    30   15   16 1    
    31   15   94 1    
    32   15   95 1    
    33   16   17 1    
    34   17   18 1    
    35   17   96 1    
    36   17   97 1    
    37   18   19 1    
    38   18   22 1    
    39   18   98 1    
    40   19   20 am   BACKBONE|DICT|INTERRES
    41   19   21 2    
    42   20   99 1    
    43   20  100 1    
    44   22   23 am   BACKBONE|DICT|INTERRES
    45   22  101 1    
    46   23   24 2    
    47   23   25 1    
    48   25   26 1    
    49   25   27 1    
    50   25  102 1    
    51   26  103 1    
    52   26  104 1    
    53   26  105 1    
    54   27   28 am   BACKBONE|DICT|INTERRES
    55   27  106 1    
    56   28   29 2    
    57   28   30 1    
    58   30   31 1    
    59   30   32 1    
    60   30  107 1    
    61   31  108 1    
    62   31  109 1    
    63   31  110 1    
    64   32   33 am   BACKBONE|DICT|INTERRES
    65   32  111 1    
    66   33   34 2    
    67   33   35 1    
    68   35   36 1    
    69   35   37 1    
    70   35  112 1    
    71   36  113 1    
    72   36  114 1    
    73   36  115 1    
    74   37   38 am   BACKBONE|DICT|INTERRES
    75   37  116 1    
    76   38   39 2    
    77   38   40 1    
    78   40   41 1    
    79   40   42 1    
    80   40  117 1    
    81   41  118 1    
    82   41  119 1    
    83   41  120 1    
    84   42   43 am   BACKBONE|DICT|INTERRES
    85   42  121 1    
    86   43   44 2    
    87   43   45 1    
    88   45   46 1    
    89   45   47 1    
    90   45  122 1    
    91   46  123 1    
    92   46  124 1    
    93   46  125 1    
    94   47   48 am   BACKBONE|DICT|INTERRES
    95   47  126 1    
    96   48   49 2    
    97   48   50 1    
    98   50   51 1    
    99   50   52 1    
   100   50  127 1    
   101   51  128 1    
   102   51  129 1    
   103   51  130 1    
   104   52   53 am   BACKBONE|DICT|INTERRES
   105   52  131 1    
   106   53   54 2    
   107   53   55 1    
   108   55   56 1    
   109   55   59 1    
   110   55  132 1    
   111   56   57 1    
   112   56  133 1    
   113   56  134 1    
   114   57   58 1    
   115   58  135 1    
   116   58  136 1    
   117   59   60 am   BACKBONE|DICT|INTERRES
   118   59  137 1    
   119   60   61 2    
   120   60   62 1    
   121   62   63 1    
   122   62   64 1    
   123   62  138 1    
   124   63  139 1    
   125   63  140 1    
   126   63  141 1    
   127   64   65 am   BACKBONE|DICT|INTERRES
   128   64  142 1    
   129   65   66 2    
   130   65   67 1    
   131   67   68 1    
   132   67   69 1    
   133   67  143 1    
   134   68  144 1    
   135   68  145 1    
   136   68  146 1    
   137   69   70 am   BACKBONE|DICT|INTERRES
   138   69  147 1    
   139   70   71 2    
   140   70   72 1    
   141   72   73 1    
   142   72   74 1    
   143   72  148 1    
   144   73  149 1    
   145   73  150 1    
   146   73  151 1    
   147   74   75 am   BACKBONE|DICT|INTERRES
   148   74  152 1    
   149   75   76 2    
   150   75   77 1    
   151   77   78 1    
   152   77   79 1    
   153   77  153 1    
   154   78  154 1    
   155   78  155 1    
   156   78  156 1    
   157   79   80 am   BACKBONE|DICT|INTERRES
   158   79  157 1    
   159   80   81 2    
@<TRIPOS>SUBSTRUCTURE
     1 UNK         1 GROUP             0       ****    0 ROOT    
