@<TRIPOS>MOLECULE
3R207
157   159    1
SMALL
USER_CHARGES


@<TRIPOS>ATOM
      1 CA        -53.1608  -24.6154   11.7328 C.3       0 UNK        -0.1975 
      2 C         -52.3249  -24.4097   10.4817 C.2       0 UNK         0.4852 
      3 O         -52.2974  -23.3051    9.9377 O.2       0 UNK        -0.5216 
      4 N         -51.6161  -25.4558   10.0391 N.am      1 UNK        -0.4461 
      5 CA        -50.7282  -25.5175    8.8727 C.3       1 UNK         0.0864 
      6 C6        -51.4089  -25.0860    7.5439 C.3       14 UNK        -0.0898 
      7 S7        -50.5678  -25.7495    6.0661 S.3       14 UNK        -0.2598 
      8 C8        -51.5872  -27.2143    5.6871 C.3       14 UNK         0.0286 
      9 C9        -51.5698  -28.2213    6.8283 C.ar      14 UNK        -0.0844 
     10 C10       -50.4150  -28.9612    7.0901 C.ar      14 UNK        -0.0881 
     11 C11       -50.3516  -29.8360    8.1840 C.ar      14 UNK        -0.0643 
     12 C12       -51.4894  -29.9982    8.9841 C.ar      14 UNK        -0.0930 
     13 C13       -52.6603  -29.2806    8.7182 C.ar      14 UNK        -0.0827 
     14 C14       -52.6925  -28.3915    7.6410 C.ar      14 UNK        -0.1249 
     15 C15       -53.9041  -29.4693    9.5741 C.3       14 UNK         0.0141 
     16 S16       -54.1332  -28.1005   10.7522 S.3       14 UNK        -0.2313 
     17 C17       -53.3554  -28.7689   12.2628 C.3       14 UNK        -0.0915 
     18 CA        -54.3643  -29.5235   13.1729 C.3       13 UNK         0.0968 
     19 C         -53.6871  -30.1328   14.4350 C.2       13 UNK         0.5732 
     20 N         -54.2211  -29.9617   15.6399 N.am      13 UNK        -0.7310 
     21 O         -52.6655  -30.8041   14.3195 O.2       13 UNK        -0.5035 
     22 N         -55.5565  -28.7160   13.4816 N.am      13 UNK        -0.4233 
     23 C         -56.7986  -29.2130   13.5415 C.2       13 UNK         0.4989 
     24 O         -57.0710  -30.3935   13.3110 O.2       13 UNK        -0.4996 
     25 CA        -57.9288  -28.2321   13.9169 C.3       12 UNK         0.0216 
     26 CB        -59.2522  -28.9529   14.2526 C.3       12 UNK        -0.1964 
     27 N         -57.5896  -27.2954   14.9948 N.am      12 UNK        -0.4276 
     28 C         -57.1224  -27.5746   16.2194 C.2       12 UNK         0.5020 
     29 O         -56.7855  -28.7016   16.5877 O.2       12 UNK        -0.5489 
     30 CA        -56.9952  -26.3747   17.1818 C.3       11 UNK         0.0294 
     31 CB        -56.6000  -26.8020   18.6079 C.3       11 UNK        -0.2019 
     32 N         -56.0236  -25.3927   16.6992 N.am      11 UNK        -0.4493 
     33 C         -56.1892  -24.5610   15.6615 C.2       11 UNK         0.4932 
     34 O         -57.2489  -24.4512   15.0427 O.2       11 UNK        -0.5029 
     35 CA        -54.9660  -23.7410   15.2101 C.3       10 UNK         0.0280 
     36 CB        -55.0947  -22.2826   15.6774 C.3       10 UNK        -0.1976 
     37 N         -53.6751  -24.2790   15.6571 N.am      10 UNK        -0.4242 
     38 C         -53.1735  -25.4759   15.3217 C.2       10 UNK         0.5072 
     39 O         -53.7582  -26.2921   14.6071 O.2       10 UNK        -0.5224 
     40 CA        -51.7998  -25.8279   15.9162 C.3       9 UNK         0.0343 
     41 CB        -51.8440  -27.1899   16.6295 C.3       9 UNK        -0.2003 
     42 N         -50.7460  -25.8548   14.9024 N.am      9 UNK        -0.4272 
     43 C         -50.3286  -24.8110   14.1711 C.2       9 UNK         0.4988 
     44 O         -50.7956  -23.6769   14.2782 O.2       9 UNK        -0.5108 
     45 CA        -49.1725  -25.0463   13.1763 C.3       8 UNK         0.0248 
     46 CB        -47.9789  -24.1313   13.5017 C.3       8 UNK        -0.2001 
     47 N         -48.6965  -26.4329   13.1283 N.am      8 UNK        -0.4140 
     48 C         -49.3110  -27.4311   12.4839 C.2       8 UNK         0.5028 
     49 O         -50.3407  -27.2916   11.8249 O.2       8 UNK        -0.5428 
     50 CA        -48.6353  -28.8007   12.5697 C.3       7 UNK         0.0264 
     51 CB        -49.6494  -29.9582   12.5360 C.3       7 UNK        -0.1988 
     52 N         -47.6990  -28.9016   11.4576 N.am      7 UNK        -0.4454 
     53 C         -46.6524  -29.7345   11.4035 C.2       7 UNK         0.5027 
     54 O         -46.3761  -30.5465   12.2880 O.2       7 UNK        -0.5083 
     55 CA        -45.7459  -29.6347   10.1601 C.3       6 UNK         0.0844 
     56 C56       -46.2484  -30.5520    9.0117 C.3       14 UNK        -0.0967 
     57 S57       -47.5455  -29.7878    7.9778 S.3       14 UNK        -0.2604 
     58 C58       -49.0783  -30.6160    8.5241 C.3       14 UNK         0.0134 
     59 N         -45.5552  -28.2458    9.7270 N.am      6 UNK        -0.4116 
     60 C         -44.8907  -27.2955   10.3967 C.2       5 UNK         0.5034 
     61 O         -44.2734  -27.5078   11.4411 O.2       5 UNK        -0.5045 
     62 CA        -44.9593  -25.8583    9.8427 C.3       5 UNK         0.0224 
     63 CB        -43.5932  -25.1423    9.8817 C.3       5 UNK        -0.1978 
     64 N         -45.5926  -25.7393    8.5214 N.am      5 UNK        -0.4737 
     65 C         -45.1252  -26.1318    7.3266 C.2       4 UNK         0.5027 
     66 O         -44.0514  -26.7088    7.1603 O.2       4 UNK        -0.5211 
     67 CA        -46.0145  -25.8324    6.1078 C.3       4 UNK         0.0297 
     68 CB        -46.9905  -26.9890    5.8486 C.3       4 UNK        -0.1993 
     69 N         -46.7802  -24.5971    6.2826 N.am      4 UNK        -0.4486 
     70 C         -46.3504  -23.3794    5.9247 C.2       3 UNK         0.4961 
     71 O         -45.2810  -23.1681    5.3519 O.2       3 UNK        -0.5105 
     72 CA        -47.2692  -22.1903    6.2613 C.3       3 UNK         0.0299 
     73 CB        -48.2882  -21.9637    5.1327 C.3       3 UNK        -0.1972 
     74 N         -47.9818  -22.3610    7.5290 N.am      3 UNK        -0.4305 
     75 C         -47.4022  -22.3584    8.7386 C.2       2 UNK         0.5006 
     76 O         -46.2102  -22.1163    8.9275 O.2       2 UNK        -0.5106 
     77 CA        -48.2929  -22.7115    9.9439 C.3       2 UNK         0.0296 
     78 CB        -48.7809  -21.4400   10.6550 C.3       2 UNK        -0.2002 
     79 N         -49.4484  -23.5507    9.6126 N.am      2 UNK        -0.4032 
     80 C         -49.3918  -24.7917    9.1108 C.2       1 UNK         0.5000 
     81 O         -48.3349  -25.3620    8.8385 O.2       1 UNK        -0.5238 
     82 H82       -52.9343  -25.5699   12.2060 H         1 UNK         0.0889 
     83 H83       -54.2219  -24.6010   11.4866 H         1 UNK         0.0889 
     84 H84       -52.9632  -23.8244   12.4556 H         1 UNK         0.0889 
     85 H85       -51.5888  -26.2993   10.6081 H         1 UNK         0.3028 
     86 H86       -50.4791  -26.5765    8.7950 H         1 UNK         0.0864 
     87 H87       -52.4460  -25.4239    7.5298 H         1 UNK         0.0720 
     88 H88       -51.4564  -23.9992    7.4577 H         1 UNK         0.0720 
     89 H89       -51.2063  -27.6871    4.7808 H         1 UNK         0.0814 
     90 H90       -52.6066  -26.8972    5.4620 H         1 UNK         0.0814 
     91 H91       -49.5573  -28.8228    6.4478 H         1 UNK         0.1469 
     92 H92       -51.4663  -30.6868    9.8167 H         1 UNK         0.1381 
     93 H93       -53.5915  -27.8231    7.4451 H         1 UNK         0.1206 
     94 H94       -53.8740  -30.4224   10.1042 H         1 UNK         0.0813 
     95 H95       -54.7797  -29.5161    8.9250 H         1 UNK         0.0813 
     96 H96       -52.8948  -27.9428   12.8043 H         1 UNK         0.0638 
     97 H97       -52.5353  -29.4240   11.9681 H         1 UNK         0.0638 
     98 H98       -54.6832  -30.3927   12.5955 H         1 UNK         0.0568 
     99 H99       -55.0906  -29.4553   15.7665 H         1 UNK         0.3450 
    100 H100      -53.7691  -30.3806   16.4358 H         1 UNK         0.3450 
    101 H101      -55.3787  -27.7511   13.7291 H         1 UNK         0.2987 
    102 H102      -58.1015  -27.6235   13.0280 H         1 UNK         0.0766 
    103 H103      -60.0487  -28.2409   14.4690 H         1 UNK         0.0798 
    104 H104      -59.1440  -29.6080   15.1180 H         1 UNK         0.0798 
    105 H105      -59.5901  -29.5676   13.4172 H         1 UNK         0.0798 
    106 H106      -57.7439  -26.3104   14.7913 H         1 UNK         0.3198 
    107 H107      -57.9759  -25.8968   17.2365 H         1 UNK         0.0843 
    108 H108      -55.6192  -27.2789   18.6307 H         1 UNK         0.0831 
    109 H109      -57.3182  -27.5161   19.0134 H         1 UNK         0.0831 
    110 H110      -56.5760  -25.9494   19.2866 H         1 UNK         0.0831 
    111 H111      -55.1088  -25.4262   17.1235 H         1 UNK         0.3133 
    112 H112      -54.9626  -23.7497   14.1184 H         1 UNK         0.0566 
    113 H113      -55.0790  -22.2036   16.7652 H         1 UNK         0.0814 
    114 H114      -54.2868  -21.6660   15.2825 H         1 UNK         0.0814 
    115 H115      -56.0318  -21.8428   15.3326 H         1 UNK         0.0814 
    116 H116      -53.1096  -23.6674   16.2289 H         1 UNK         0.3091 
    117 H117      -51.5310  -25.0707   16.6558 H         1 UNK         0.0702 
    118 H118      -50.9080  -27.3978   17.1481 H         1 UNK         0.0785 
    119 H119      -52.0268  -28.0053   15.9288 H         1 UNK         0.0785 
    120 H120      -52.6403  -27.2180   17.3746 H         1 UNK         0.0785 
    121 H121      -50.3221  -26.7518   14.7240 H         1 UNK         0.2998 
    122 H122      -49.5466  -24.7756   12.1881 H         1 UNK         0.0697 
    123 H123      -47.5892  -24.3181   14.5031 H         1 UNK         0.0825 
    124 H124      -48.2664  -23.0800   13.4567 H         1 UNK         0.0825 
    125 H125      -47.1621  -24.2720   12.7938 H         1 UNK         0.0825 
    126 H126      -47.8451  -26.6320   13.6351 H         1 UNK         0.3029 
    127 H127      -48.0840  -28.8563   13.5112 H         1 UNK         0.0897 
    128 H128      -49.1612  -30.9263   12.6456 H         1 UNK         0.0792 
    129 H129      -50.2114  -29.9693   11.6045 H         1 UNK         0.0792 
    130 H130      -50.3674  -29.8636   13.3505 H         1 UNK         0.0792 
    131 H131      -47.8625  -28.2673   10.6867 H         1 UNK         0.3086 
    132 H132      -44.7663  -30.0090   10.4658 H         1 UNK         0.0583 
    133 H133      -45.4096  -30.7749    8.3504 H         1 UNK         0.1020 
    134 H134      -46.5818  -31.5229    9.3847 H         1 UNK         0.1020 
    135 H135      -49.1315  -31.6039    8.0654 H         1 UNK         0.0694 
    136 H136      -49.0248  -30.7726    9.6019 H         1 UNK         0.0694 
    137 H137      -46.0258  -27.9855    8.8722 H         1 UNK         0.2989 
    138 H138      -45.6211  -25.3218   10.5248 H         1 UNK         0.1055 
    139 H139      -43.2076  -25.0892   10.9006 H         1 UNK         0.0806 
    140 H140      -43.6735  -24.1190    9.5142 H         1 UNK         0.0806 
    141 H141      -42.8447  -25.6590    9.2806 H         1 UNK         0.0806 
    142 H142      -46.5460  -25.3798    8.5463 H         1 UNK         0.3061 
    143 H143      -45.3636  -25.7400    5.2356 H         1 UNK         0.0734 
    144 H144      -47.5663  -26.8247    4.9377 H         1 UNK         0.0832 
    145 H145      -46.4574  -27.9331    5.7293 H         1 UNK         0.0832 
    146 H146      -47.6976  -27.1089    6.6701 H         1 UNK         0.0832 
    147 H147      -47.6566  -24.6781    6.7811 H         1 UNK         0.3156 
    148 H148      -46.6444  -21.2982    6.3418 H         1 UNK         0.0589 
    149 H149      -48.9593  -22.8158    5.0146 H         1 UNK         0.0808 
    150 H150      -48.8972  -21.0787    5.3185 H         1 UNK         0.0808 
    151 H151      -47.7835  -21.8125    4.1773 H         1 UNK         0.0808 
    152 H152      -48.9729  -22.5439    7.4751 H         1 UNK         0.3098 
    153 H153      -47.6715  -23.2761   10.6407 H         1 UNK         0.0720 
    154 H154      -49.3411  -21.6808   11.5590 H         1 UNK         0.0791 
    155 H155      -49.4255  -20.8403   10.0111 H         1 UNK         0.0791 
    156 H156      -47.9404  -20.8118   10.9534 H         1 UNK         0.0791 
    157 H157      -50.3740  -23.1695    9.7929 H         1 UNK         0.3028 
@<TRIPOS>BOND
     1    1    2 1    
     2    1   82 1    
     3    1   83 1    
     4    1   84 1    
     5    2    3 2    
     6    2    4 am   BACKBONE|DICT|INTERRES
     7    4    5 1    
     8    4   85 1    
     9    5    6 1    
    10    5   80 1    
    11    5   86 1    
    12    6    7 1    
    13    6   87 1    
    14    6   88 1    
    15    7    8 1    
    16    8    9 1    
    17    8   89 1    
    18    8   90 1    
    19    9   10 ar   
    20    9   14 ar   
    21   10   11 ar   
    22   10   91 1    
    23   11   12 ar   
    24   11   58 1    
    25   12   13 ar   
    26   12   92 1    
    27   13   14 ar   
    28   13   15 1    
    29   14   93 1    
    30   15   16 1    
    31   15   94 1    
    32   15   95 1    
    33   16   17 1    
    34   17   18 1    
    35   17   96 1    
    36   17   97 1    
    37   18   19 1    
    38   18   22 1    
    39   18   98 1    
    40   19   20 am   BACKBONE|DICT|INTERRES
    41   19   21 2    
    42   20   99 1    
    43   20  100 1    
    44   22   23 am   BACKBONE|DICT|INTERRES
    45   22  101 1    
    46   23   24 2    
    47   23   25 1    
    48   25   26 1    
    49   25   27 1    
    50   25  102 1    
    51   26  103 1    
    52   26  104 1    
    53   26  105 1    
    54   27   28 am   BACKBONE|DICT|INTERRES
    55   27  106 1    
    56   28   29 2    
    57   28   30 1    
    58   30   31 1    
    59   30   32 1    
    60   30  107 1    
    61   31  108 1    
    62   31  109 1    
    63   31  110 1    
    64   32   33 am   BACKBONE|DICT|INTERRES
    65   32  111 1    
    66   33   34 2    
    67   33   35 1    
    68   35   36 1    
    69   35   37 1    
    70   35  112 1    
    71   36  113 1    
    72   36  114 1    
    73   36  115 1    
    74   37   38 am   BACKBONE|DICT|INTERRES
    75   37  116 1    
    76   38   39 2    
    77   38   40 1    
    78   40   41 1    
    79   40   42 1    
    80   40  117 1    
    81   41  118 1    
    82   41  119 1    
    83   41  120 1    
    84   42   43 am   BACKBONE|DICT|INTERRES
    85   42  121 1    
    86   43   44 2    
    87   43   45 1    
    88   45   46 1    
    89   45   47 1    
    90   45  122 1    
    91   46  123 1    
    92   46  124 1    
    93   46  125 1    
    94   47   48 am   BACKBONE|DICT|INTERRES
    95   47  126 1    
    96   48   49 2    
    97   48   50 1    
    98   50   51 1    
    99   50   52 1    
   100   50  127 1    
   101   51  128 1    
   102   51  129 1    
   103   51  130 1    
   104   52   53 am   BACKBONE|DICT|INTERRES
   105   52  131 1    
   106   53   54 2    
   107   53   55 1    
   108   55   56 1    
   109   55   59 1    
   110   55  132 1    
   111   56   57 1    
   112   56  133 1    
   113   56  134 1    
   114   57   58 1    
   115   58  135 1    
   116   58  136 1    
   117   59   60 am   BACKBONE|DICT|INTERRES
   118   59  137 1    
   119   60   61 2    
   120   60   62 1    
   121   62   63 1    
   122   62   64 1    
   123   62  138 1    
   124   63  139 1    
   125   63  140 1    
   126   63  141 1    
   127   64   65 am   BACKBONE|DICT|INTERRES
   128   64  142 1    
   129   65   66 2    
   130   65   67 1    
   131   67   68 1    
   132   67   69 1    
   133   67  143 1    
   134   68  144 1    
   135   68  145 1    
   136   68  146 1    
   137   69   70 am   BACKBONE|DICT|INTERRES
   138   69  147 1    
   139   70   71 2    
   140   70   72 1    
   141   72   73 1    
   142   72   74 1    
   143   72  148 1    
   144   73  149 1    
   145   73  150 1    
   146   73  151 1    
   147   74   75 am   BACKBONE|DICT|INTERRES
   148   74  152 1    
   149   75   76 2    
   150   75   77 1    
   151   77   78 1    
   152   77   79 1    
   153   77  153 1    
   154   78  154 1    
   155   78  155 1    
   156   78  156 1    
   157   79   80 am   BACKBONE|DICT|INTERRES
   158   79  157 1    
   159   80   81 2    
@<TRIPOS>SUBSTRUCTURE
     1 UNK         1 GROUP             0       ****    0 ROOT    
