@<TRIPOS>MOLECULE
3R207
157   159    1
SMALL
USER_CHARGES


@<TRIPOS>ATOM
      1 CA        -45.8396  -31.8409    4.4460 C.3       0 UNK        -0.1975 
      2 C         -46.7741  -30.6509    4.2907 C.2       0 UNK         0.4852 
      3 O         -46.8633  -30.0776    3.2042 O.2       0 UNK        -0.5216 
      4 N         -47.4561  -30.2539    5.3733 N.am      1 UNK        -0.4461 
      5 CA        -48.4268  -29.1506    5.4379 C.3       1 UNK         0.0864 
      6 C6        -49.4098  -29.3784    6.6189 C.3       14 UNK        -0.0898 
      7 S7        -51.0241  -28.5491    6.4146 S.3       14 UNK        -0.2598 
      8 C8        -51.0084  -27.4397    7.8566 C.3       14 UNK         0.0286 
      9 C9        -52.3696  -26.8103    8.1043 C.ar      14 UNK        -0.0844 
     10 C10       -52.6719  -25.5425    7.5983 C.ar      14 UNK        -0.0881 
     11 C11       -53.8949  -24.9284    7.8984 C.ar      14 UNK        -0.0643 
     12 C12       -54.8279  -25.6160    8.6828 C.ar      14 UNK        -0.0930 
     13 C13       -54.5515  -26.9005    9.1635 C.ar      14 UNK        -0.0827 
     14 C14       -53.3179  -27.4887    8.8732 C.ar      14 UNK        -0.1249 
     15 C15       -55.5959  -27.6577    9.9741 C.3       14 UNK         0.0141 
     16 S16       -55.2962  -27.5309   11.7653 S.3       14 UNK        -0.2313 
     17 C17       -54.1111  -28.8900   12.0607 C.3       14 UNK        -0.0915 
     18 CA        -54.6030  -29.9069   13.1246 C.3       13 UNK         0.0968 
     19 C         -53.6370  -31.1230   13.2491 C.2       13 UNK         0.5732 
     20 N         -53.1644  -31.4979   14.4333 N.am      13 UNK        -0.7310 
     21 O         -53.3192  -31.7567   12.2455 O.2       13 UNK        -0.5035 
     22 N         -54.8973  -29.2600   14.4130 N.am      13 UNK        -0.4233 
     23 C         -55.8716  -29.6534   15.2436 C.2       13 UNK         0.4989 
     24 O         -56.6724  -30.5517   14.9759 O.2       13 UNK        -0.4996 
     25 CA        -55.9713  -28.9264   16.6004 C.3       12 UNK         0.0216 
     26 CB        -56.7837  -29.7206   17.6458 C.3       12 UNK        -0.1964 
     27 N         -54.6742  -28.5272   17.1603 N.am      12 UNK        -0.4276 
     28 C         -53.6280  -29.3189   17.4511 C.2       12 UNK         0.5020 
     29 O         -53.6190  -30.5331   17.2423 O.2       12 UNK        -0.5489 
     30 CA        -52.3719  -28.6481   18.0439 C.3       11 UNK         0.0294 
     31 CB        -51.0810  -29.2560   17.4642 C.3       11 UNK        -0.2019 
     32 N         -52.3690  -27.2084   17.7831 N.am      11 UNK        -0.4493 
     33 C         -52.6524  -26.2469   18.6730 C.2       11 UNK         0.4932 
     34 O         -52.8520  -26.4582   19.8689 O.2       11 UNK        -0.5029 
     35 CA        -52.7688  -24.8056   18.1357 C.3       10 UNK         0.0280 
     36 CB        -51.4779  -24.0226   18.4210 C.3       10 UNK        -0.1976 
     37 N         -53.0742  -24.7431   16.7008 N.am      10 UNK        -0.4242 
     38 C         -54.2279  -25.1648   16.1547 C.2       10 UNK         0.5072 
     39 O         -55.1834  -25.5627   16.8213 O.2       10 UNK        -0.5224 
     40 CA        -54.3149  -25.2451   14.6180 C.3       9 UNK         0.0343 
     41 CB        -55.0136  -24.0021   14.0492 C.3       9 UNK        -0.2003 
     42 N         -53.0136  -25.4224   13.9664 N.am      9 UNK        -0.4272 
     43 C         -52.1919  -26.4637   14.1786 C.2       9 UNK         0.4988 
     44 O         -52.5246  -27.4492   14.8381 O.2       9 UNK        -0.5108 
     45 CA        -50.7489  -26.3876   13.6358 C.3       8 UNK         0.0248 
     46 CB        -50.5652  -27.3398   12.4438 C.3       8 UNK        -0.2001 
     47 N         -50.3143  -25.0426   13.2466 N.am      8 UNK        -0.4140 
     48 C         -50.2808  -23.9653   14.0502 C.2       8 UNK         0.5028 
     49 O         -50.5267  -24.0094   15.2559 O.2       8 UNK        -0.5428 
     50 CA        -50.0222  -22.5965   13.3891 C.3       7 UNK         0.0264 
     51 CB        -48.5549  -22.1814   13.5724 C.3       7 UNK        -0.1988 
     52 N         -50.3677  -22.5720   11.9628 N.am      7 UNK        -0.4454 
     53 C         -51.5930  -22.8175   11.4683 C.2       7 UNK         0.5027 
     54 O         -52.5914  -22.9249   12.1804 O.2       7 UNK        -0.5083 
     55 CA        -51.7300  -23.0760    9.9525 C.3       6 UNK         0.0844 
     56 C56       -52.7111  -22.0806    9.2840 C.3       14 UNK        -0.0967 
     57 S57       -52.8695  -22.3332    7.4798 S.3       14 UNK        -0.2604 
     58 C58       -54.2370  -23.5386    7.3631 C.3       14 UNK         0.0134 
     59 N         -50.4503  -23.1787    9.2393 N.am      6 UNK        -0.4116 
     60 C         -49.5615  -24.1692    9.3866 C.2       5 UNK         0.5034 
     61 O         -49.6794  -25.0615   10.2301 O.2       5 UNK        -0.5045 
     62 CA        -48.3544  -24.1730    8.4291 C.3       5 UNK         0.0224 
     63 CB        -48.0258  -22.7943    7.8106 C.3       5 UNK        -0.1978 
     64 N         -47.1653  -24.7647    9.0479 N.am      5 UNK        -0.4737 
     65 C         -46.4950  -24.3157   10.1170 C.2       4 UNK         0.5027 
     66 O         -46.7831  -23.2794   10.7163 O.2       4 UNK        -0.5211 
     67 CA        -45.2807  -25.1352   10.5990 C.3       4 UNK         0.0297 
     68 CB        -45.6927  -26.1230   11.7091 C.3       4 UNK        -0.1993 
     69 N         -44.5150  -25.7964    9.5267 N.am      4 UNK        -0.4486 
     70 C         -44.8852  -26.8170    8.7417 C.2       3 UNK         0.4961 
     71 O         -45.9550  -27.4191    8.8458 O.2       3 UNK        -0.5105 
     72 CA        -43.9119  -27.2124    7.6204 C.3       3 UNK         0.0299 
     73 CB        -43.3056  -28.6002    7.8848 C.3       3 UNK        -0.1972 
     74 N         -44.6175  -27.2261    6.3393 N.am      3 UNK        -0.4305 
     75 C         -45.0237  -26.1301    5.6814 C.2       2 UNK         0.5006 
     76 O         -44.7114  -24.9835    6.0052 O.2       2 UNK        -0.5106 
     77 CA        -45.9422  -26.3424    4.4623 C.3       2 UNK         0.0296 
     78 CB        -45.1158  -26.3933    3.1672 C.3       2 UNK        -0.2002 
     79 N         -46.7737  -27.5474    4.5528 N.am      2 UNK        -0.4032 
     80 C         -47.7316  -27.7647    5.4657 C.2       1 UNK         0.5000 
     81 O         -48.0446  -26.9276    6.3115 O.2       1 UNK        -0.5238 
     82 H82       -44.8156  -31.5466    4.2173 H         1 UNK         0.0889 
     83 H83       -46.1277  -32.6350    3.7576 H         1 UNK         0.0889 
     84 H84       -45.8588  -32.2461    5.4576 H         1 UNK         0.0889 
     85 H85       -47.3121  -30.7467    6.2436 H         1 UNK         0.3028 
     86 H86       -49.0093  -29.1804    4.5142 H         1 UNK         0.0864 
     87 H87       -49.6379  -30.4420    6.7072 H         1 UNK         0.0720 
     88 H88       -48.9479  -29.1042    7.5697 H         1 UNK         0.0720 
     89 H89       -50.7016  -27.9937    8.7454 H         1 UNK         0.0814 
     90 H90       -50.2565  -26.6654    7.7086 H         1 UNK         0.0814 
     91 H91       -51.9440  -25.0227    6.9910 H         1 UNK         0.1469 
     92 H92       -55.7800  -25.1561    8.9098 H         1 UNK         0.1381 
     93 H93       -53.0891  -28.4772    9.2444 H         1 UNK         0.1206 
     94 H94       -55.6287  -28.7046    9.6687 H         1 UNK         0.0813 
     95 H95       -56.5888  -27.2572    9.7644 H         1 UNK         0.0813 
     96 H96       -53.9225  -29.4064   11.1198 H         1 UNK         0.0638 
     97 H97       -53.1596  -28.4564   12.3578 H         1 UNK         0.0638 
     98 H98       -55.5316  -30.3277   12.7350 H         1 UNK         0.0568 
     99 H99       -52.5475  -32.2923   14.4803 H         1 UNK         0.3450 
    100 H100      -53.4317  -31.0225   15.2884 H         1 UNK         0.3450 
    101 H101      -54.2333  -28.5533   14.7100 H         1 UNK         0.2987 
    102 H102      -56.5119  -28.0002   16.4002 H         1 UNK         0.0766 
    103 H103      -56.8643  -29.1731   18.5848 H         1 UNK         0.0798 
    104 H104      -57.7994  -29.9083   17.2954 H         1 UNK         0.0798 
    105 H105      -56.3286  -30.6884   17.8596 H         1 UNK         0.0798 
    106 H106      -54.5799  -27.5330   17.3357 H         1 UNK         0.3198 
    107 H107      -52.3857  -28.8388   19.1189 H         1 UNK         0.0843 
    108 H108      -51.0443  -29.1652   16.3779 H         1 UNK         0.0831 
    109 H109      -51.0042  -30.3172   17.7045 H         1 UNK         0.0831 
    110 H110      -50.1952  -28.7693   17.8722 H         1 UNK         0.0831 
    111 H111      -52.2570  -26.9544   16.8073 H         1 UNK         0.3133 
    112 H112      -53.5865  -24.3194   18.6719 H         1 UNK         0.0566 
    113 H113      -50.6146  -24.4771   17.9332 H         1 UNK         0.0814 
    114 H114      -51.2682  -23.9926   19.4911 H         1 UNK         0.0814 
    115 H115      -51.5528  -22.9912   18.0761 H         1 UNK         0.0814 
    116 H116      -52.3157  -24.4459   16.0922 H         1 UNK         0.3091 
    117 H117      -54.9249  -26.1172   14.3767 H         1 UNK         0.0702 
    118 H118      -55.1466  -24.0836   12.9700 H         1 UNK         0.0785 
    119 H119      -54.4452  -23.0929   14.2496 H         1 UNK         0.0785 
    120 H120      -56.0035  -23.8741   14.4892 H         1 UNK         0.0785 
    121 H121      -52.6932  -24.6496   13.3934 H         1 UNK         0.2998 
    122 H122      -50.0900  -26.7183   14.4409 H         1 UNK         0.0697 
    123 H123      -50.7994  -28.3677   12.7239 H         1 UNK         0.0825 
    124 H124      -49.5359  -27.3323   12.0840 H         1 UNK         0.0825 
    125 H125      -51.2111  -27.0678   11.6072 H         1 UNK         0.0825 
    126 H126      -50.0896  -24.9187   12.2640 H         1 UNK         0.3029 
    127 H127      -50.6548  -21.8645   13.8957 H         1 UNK         0.0897 
    128 H128      -48.3579  -21.2027   13.1345 H         1 UNK         0.0792 
    129 H129      -48.2984  -22.1203   14.6310 H         1 UNK         0.0792 
    130 H130      -47.8730  -22.8990   13.1153 H         1 UNK         0.0792 
    131 H131      -49.5948  -22.5157   11.3139 H         1 UNK         0.3086 
    132 H132      -52.1899  -24.0633    9.8932 H         1 UNK         0.0583 
    133 H133      -53.7003  -22.1527    9.7411 H         1 UNK         0.1020 
    134 H134      -52.3784  -21.0539    9.4485 H         1 UNK         0.1020 
    135 H135      -55.1072  -23.1282    7.8778 H         1 UNK         0.0694 
    136 H136      -54.5201  -23.6376    6.3145 H         1 UNK         0.0694 
    137 H137      -50.2883  -22.4827    8.5263 H         1 UNK         0.2989 
    138 H138      -48.6309  -24.8363    7.6110 H         1 UNK         0.1055 
    139 H139      -47.1312  -22.8505    7.1897 H         1 UNK         0.0806 
    140 H140      -47.8510  -22.0332    8.5720 H         1 UNK         0.0806 
    141 H141      -48.8316  -22.4426    7.1654 H         1 UNK         0.0806 
    142 H142      -46.8943  -25.6767    8.6910 H         1 UNK         0.3061 
    143 H143      -44.5891  -24.4190   11.0458 H         1 UNK         0.0734 
    144 H144      -46.1379  -25.5921   12.5516 H         1 UNK         0.0832 
    145 H145      -46.4325  -26.8448   11.3614 H         1 UNK         0.0832 
    146 H146      -44.8342  -26.6758   12.0900 H         1 UNK         0.0832 
    147 H147      -43.6276  -25.3582    9.3185 H         1 UNK         0.3156 
    148 H148      -43.0993  -26.4847    7.5654 H         1 UNK         0.0589 
    149 H149      -44.0730  -29.3733    7.9445 H         1 UNK         0.0808 
    150 H150      -42.6036  -28.8832    7.1002 H         1 UNK         0.0808 
    151 H151      -42.7585  -28.6118    8.8284 H         1 UNK         0.0808 
    152 H152      -44.9537  -28.1217    6.0200 H         1 UNK         0.3098 
    153 H153      -46.6127  -25.4821    4.4078 H         1 UNK         0.0720 
    154 H154      -45.7584  -26.4523    2.2885 H         1 UNK         0.0791 
    155 H155      -44.5031  -25.4970    3.0593 H         1 UNK         0.0791 
    156 H156      -44.4439  -27.2525    3.1503 H         1 UNK         0.0791 
    157 H157      -46.5991  -28.2907    3.8815 H         1 UNK         0.3028 
@<TRIPOS>BOND
     1    1    2 1    
     2    1   82 1    
     3    1   83 1    
     4    1   84 1    
     5    2    3 2    
     6    2    4 am   BACKBONE|DICT|INTERRES
     7    4    5 1    
     8    4   85 1    
     9    5    6 1    
    10    5   80 1    
    11    5   86 1    
    12    6    7 1    
    13    6   87 1    
    14    6   88 1    
    15    7    8 1    
    16    8    9 1    
    17    8   89 1    
    18    8   90 1    
    19    9   10 ar   
    20    9   14 ar   
    21   10   11 ar   
    22   10   91 1    
    23   11   12 ar   
    24   11   58 1    
    25   12   13 ar   
    26   12   92 1    
    27   13   14 ar   
    28   13   15 1    
    29   14   93 1    
    30   15   16 1    
    31   15   94 1    
    32   15   95 1    
    33   16   17 1    
    34   17   18 1    
    35   17   96 1    
    36   17   97 1    
    37   18   19 1    
    38   18   22 1    
    39   18   98 1    
    40   19   20 am   BACKBONE|DICT|INTERRES
    41   19   21 2    
    42   20   99 1    
    43   20  100 1    
    44   22   23 am   BACKBONE|DICT|INTERRES
    45   22  101 1    
    46   23   24 2    
    47   23   25 1    
    48   25   26 1    
    49   25   27 1    
    50   25  102 1    
    51   26  103 1    
    52   26  104 1    
    53   26  105 1    
    54   27   28 am   BACKBONE|DICT|INTERRES
    55   27  106 1    
    56   28   29 2    
    57   28   30 1    
    58   30   31 1    
    59   30   32 1    
    60   30  107 1    
    61   31  108 1    
    62   31  109 1    
    63   31  110 1    
    64   32   33 am   BACKBONE|DICT|INTERRES
    65   32  111 1    
    66   33   34 2    
    67   33   35 1    
    68   35   36 1    
    69   35   37 1    
    70   35  112 1    
    71   36  113 1    
    72   36  114 1    
    73   36  115 1    
    74   37   38 am   BACKBONE|DICT|INTERRES
    75   37  116 1    
    76   38   39 2    
    77   38   40 1    
    78   40   41 1    
    79   40   42 1    
    80   40  117 1    
    81   41  118 1    
    82   41  119 1    
    83   41  120 1    
    84   42   43 am   BACKBONE|DICT|INTERRES
    85   42  121 1    
    86   43   44 2    
    87   43   45 1    
    88   45   46 1    
    89   45   47 1    
    90   45  122 1    
    91   46  123 1    
    92   46  124 1    
    93   46  125 1    
    94   47   48 am   BACKBONE|DICT|INTERRES
    95   47  126 1    
    96   48   49 2    
    97   48   50 1    
    98   50   51 1    
    99   50   52 1    
   100   50  127 1    
   101   51  128 1    
   102   51  129 1    
   103   51  130 1    
   104   52   53 am   BACKBONE|DICT|INTERRES
   105   52  131 1    
   106   53   54 2    
   107   53   55 1    
   108   55   56 1    
   109   55   59 1    
   110   55  132 1    
   111   56   57 1    
   112   56  133 1    
   113   56  134 1    
   114   57   58 1    
   115   58  135 1    
   116   58  136 1    
   117   59   60 am   BACKBONE|DICT|INTERRES
   118   59  137 1    
   119   60   61 2    
   120   60   62 1    
   121   62   63 1    
   122   62   64 1    
   123   62  138 1    
   124   63  139 1    
   125   63  140 1    
   126   63  141 1    
   127   64   65 am   BACKBONE|DICT|INTERRES
   128   64  142 1    
   129   65   66 2    
   130   65   67 1    
   131   67   68 1    
   132   67   69 1    
   133   67  143 1    
   134   68  144 1    
   135   68  145 1    
   136   68  146 1    
   137   69   70 am   BACKBONE|DICT|INTERRES
   138   69  147 1    
   139   70   71 2    
   140   70   72 1    
   141   72   73 1    
   142   72   74 1    
   143   72  148 1    
   144   73  149 1    
   145   73  150 1    
   146   73  151 1    
   147   74   75 am   BACKBONE|DICT|INTERRES
   148   74  152 1    
   149   75   76 2    
   150   75   77 1    
   151   77   78 1    
   152   77   79 1    
   153   77  153 1    
   154   78  154 1    
   155   78  155 1    
   156   78  156 1    
   157   79   80 am   BACKBONE|DICT|INTERRES
   158   79  157 1    
   159   80   81 2    
@<TRIPOS>SUBSTRUCTURE
     1 UNK         1 GROUP             0       ****    0 ROOT    
