@<TRIPOS>MOLECULE
3R207
157   159    1
SMALL
USER_CHARGES


@<TRIPOS>ATOM
      1 CA        -45.1650  -29.0256   10.8252 C.3       0 UNK        -0.1975 
      2 C         -45.6276  -28.9213    9.3798 C.2       0 UNK         0.4852 
      3 O         -44.7967  -28.7740    8.4817 O.2       0 UNK        -0.5216 
      4 N         -46.9425  -29.0150    9.1360 N.am      1 UNK        -0.4461 
      5 CA        -47.5256  -28.8808    7.8006 C.3       1 UNK         0.0864 
      6 C6        -48.9449  -29.4895    7.6953 C.3       14 UNK        -0.0898 
      7 S7        -50.2091  -28.7484    8.7825 S.3       14 UNK        -0.2598 
      8 C8        -51.7088  -29.5020    8.0664 C.3       14 UNK         0.0286 
      9 C9        -52.8965  -28.5540    8.1146 C.ar      14 UNK        -0.0844 
     10 C10       -52.8591  -27.3597    7.3898 C.ar      14 UNK        -0.0881 
     11 C11       -53.9334  -26.4652    7.4293 C.ar      14 UNK        -0.0643 
     12 C12       -55.0686  -26.7988    8.1748 C.ar      14 UNK        -0.0930 
     13 C13       -55.1357  -28.0074    8.8755 C.ar      14 UNK        -0.0827 
     14 C14       -54.0416  -28.8781    8.8486 C.ar      14 UNK        -0.1249 
     15 C15       -56.4063  -28.3788    9.6291 C.3       14 UNK         0.0141 
     16 S16       -56.2652  -28.0499   11.4132 S.3       14 UNK        -0.2313 
     17 C17       -55.4700  -29.5798   12.0133 C.3       14 UNK        -0.0915 
     18 CA        -56.0887  -30.1040   13.3367 C.3       13 UNK         0.0968 
     19 C         -55.4890  -31.4803   13.7519 C.2       13 UNK         0.5732 
     20 N         -55.0456  -31.6827   14.9883 N.am      13 UNK        -0.7310 
     21 O         -55.4399  -32.3984   12.9367 O.2       13 UNK        -0.5035 
     22 N         -56.0195  -29.0970   14.4061 N.am      13 UNK        -0.4233 
     23 C         -56.9797  -28.8874   15.3148 C.2       13 UNK         0.4989 
     24 O         -58.0645  -29.4733   15.3088 O.2       13 UNK        -0.4996 
     25 CA        -56.6781  -27.8516   16.4174 C.3       12 UNK         0.0216 
     26 CB        -57.6097  -27.9907   17.6406 C.3       12 UNK        -0.1964 
     27 N         -55.2734  -27.8326   16.8445 N.am      12 UNK        -0.4276 
     28 C         -54.5562  -28.8531   17.3449 C.2       12 UNK         0.5020 
     29 O         -55.0069  -29.9905   17.4904 O.2       12 UNK        -0.5489 
     30 CA        -53.0845  -28.5772   17.7151 C.3       11 UNK         0.0294 
     31 CB        -52.1689  -29.7362   17.2787 C.3       11 UNK        -0.2019 
     32 N         -52.6008  -27.3420   17.0978 N.am      11 UNK        -0.4493 
     33 C         -52.4756  -26.1555   17.7085 C.2       11 UNK         0.4932 
     34 O         -52.6637  -25.9817   18.9122 O.2       11 UNK        -0.5029 
     35 CA        -52.1136  -24.9468   16.8224 C.3       10 UNK         0.0280 
     36 CB        -50.6190  -24.6139   16.9508 C.3       10 UNK        -0.1976 
     37 N         -52.4526  -25.1468   15.4084 N.am      10 UNK        -0.4242 
     38 C         -53.7076  -25.2257   14.9349 C.2       10 UNK         0.5072 
     39 O         -54.7069  -25.0631   15.6354 O.2       10 UNK        -0.5224 
     40 CA        -53.8901  -25.6375   13.4622 C.3       9 UNK         0.0343 
     41 CB        -54.0608  -24.4028   12.5655 C.3       9 UNK        -0.2003 
     42 N         -52.7954  -26.4757   12.9622 N.am      9 UNK        -0.4272 
     43 C         -52.5194  -27.7016   13.4370 C.2       9 UNK         0.4988 
     44 O         -53.2113  -28.2566   14.2912 O.2       9 UNK        -0.5108 
     45 CA        -51.2546  -28.4225   12.9335 C.3       8 UNK         0.0248 
     46 CB        -51.6204  -29.5668   11.9778 C.3       8 UNK        -0.2001 
     47 N         -50.2775  -27.5391   12.2929 N.am      8 UNK        -0.4140 
     48 C         -49.6048  -26.5685   12.9285 C.2       8 UNK         0.5028 
     49 O         -49.7312  -26.3274   14.1293 O.2       8 UNK        -0.5428 
     50 CA        -48.6750  -25.6851   12.0791 C.3       7 UNK         0.0264 
     51 CB        -47.2518  -26.2543   12.0884 C.3       7 UNK        -0.1988 
     52 N         -49.1155  -25.4878   10.6921 N.am      7 UNK        -0.4454 
     53 C         -50.2956  -24.9588   10.3352 C.2       7 UNK         0.5027 
     54 O         -51.1734  -24.6496   11.1425 O.2       7 UNK        -0.5083 
     55 CA        -50.5162  -24.7445    8.8276 C.3       6 UNK         0.0844 
     56 C56       -51.9315  -24.1923    8.4903 C.3       14 UNK        -0.0967 
     57 S57       -52.2786  -24.2883    6.7006 S.3       14 UNK        -0.2604 
     58 C58       -53.8954  -25.1413    6.6669 C.3       14 UNK         0.0134 
     59 N         -49.4121  -23.9599    8.2582 N.am      6 UNK        -0.4116 
     60 C         -49.1700  -22.6582    8.4726 C.2       5 UNK         0.5034 
     61 O         -49.8564  -21.9369    9.1994 O.2       5 UNK        -0.5045 
     62 CA        -47.9674  -22.0577    7.7213 C.3       5 UNK         0.0224 
     63 CB        -48.1306  -20.5426    7.4747 C.3       5 UNK        -0.1978 
     64 N         -46.6745  -22.3279    8.3624 N.am      5 UNK        -0.4737 
     65 C         -46.2765  -22.0156    9.6081 C.2       4 UNK         0.5027 
     66 O         -47.0043  -21.4977   10.4548 O.2       4 UNK        -0.5211 
     67 CA        -44.7893  -22.2563    9.9550 C.3       4 UNK         0.0297 
     68 CB        -44.5764  -22.6694   11.4281 C.3       4 UNK        -0.1993 
     69 N         -44.0999  -23.1619    9.0251 N.am      4 UNK        -0.4486 
     70 C         -44.3075  -24.4766    8.8798 C.2       3 UNK         0.4961 
     71 O         -45.0323  -25.1559    9.6059 O.2       3 UNK        -0.5105 
     72 CA        -43.6288  -25.1361    7.6706 C.3       3 UNK         0.0299 
     73 CB        -42.5670  -26.1547    8.1144 C.3       3 UNK        -0.1972 
     74 N         -44.6430  -25.7895    6.8411 N.am      3 UNK        -0.4305 
     75 C         -45.5788  -25.1226    6.1456 C.2       2 UNK         0.5006 
     76 O         -45.5987  -23.8948    6.0435 O.2       2 UNK        -0.5106 
     77 CA        -46.6936  -25.9367    5.4629 C.3       2 UNK         0.0296 
     78 CB        -46.3760  -26.1360    3.9722 C.3       2 UNK        -0.2002 
     79 N         -46.9400  -27.2396    6.0841 N.am      2 UNK        -0.4032 
     80 C         -47.4469  -27.4187    7.3120 C.2       1 UNK         0.5000 
     81 O         -47.8220  -26.4965    8.0440 O.2       1 UNK        -0.5238 
     82 H82       -44.7840  -28.0619   11.1631 H         1 UNK         0.0889 
     83 H83       -44.3629  -29.7580   10.9104 H         1 UNK         0.0889 
     84 H84       -45.9718  -29.3312   11.4908 H         1 UNK         0.0889 
     85 H85       -47.6011  -29.1188    9.8935 H         1 UNK         0.3028 
     86 H86       -46.9005  -29.4782    7.1323 H         1 UNK         0.0864 
     87 H87       -49.2875  -29.4214    6.6611 H         1 UNK         0.0720 
     88 H88       -48.8985  -30.5565    7.9194 H         1 UNK         0.0720 
     89 H89       -51.5394  -29.7798    7.0255 H         1 UNK         0.0814 
     90 H90       -51.9241  -30.4298    8.5987 H         1 UNK         0.0814 
     91 H91       -51.9798  -27.1206    6.8077 H         1 UNK         0.1469 
     92 H92       -55.9105  -26.1204    8.2000 H         1 UNK         0.1381 
     93 H93       -54.0868  -29.8125    9.3902 H         1 UNK         0.1206 
     94 H94       -57.2487  -27.8028    9.2431 H         1 UNK         0.0813 
     95 H95       -56.6600  -29.4246    9.4511 H         1 UNK         0.0813 
     96 H96       -55.5478  -30.3450   11.2401 H         1 UNK         0.0638 
     97 H97       -54.4083  -29.3840   12.1342 H         1 UNK         0.0638 
     98 H98       -57.1385  -30.3114   13.1231 H         1 UNK         0.0568 
     99 H99       -55.1059  -30.9620   15.6988 H         1 UNK         0.3450 
    100 H100      -54.6703  -32.5858   15.2280 H         1 UNK         0.3450 
    101 H101      -55.1248  -28.6259   14.4982 H         1 UNK         0.2987 
    102 H102      -56.8701  -26.8762   15.9678 H         1 UNK         0.0766 
    103 H103      -57.3947  -27.2302   18.3913 H         1 UNK         0.0798 
    104 H104      -58.6555  -27.8729   17.3542 H         1 UNK         0.0798 
    105 H105      -57.5099  -28.9678   18.1147 H         1 UNK         0.0798 
    106 H106      -54.8078  -26.9404   16.7254 H         1 UNK         0.3198 
    107 H107      -53.0377  -28.4979   18.8031 H         1 UNK         0.0843 
    108 H108      -52.4429  -30.6640   17.7826 H         1 UNK         0.0831 
    109 H109      -51.1266  -29.5330   17.5245 H         1 UNK         0.0831 
    110 H110      -52.2316  -29.9193   16.2053 H         1 UNK         0.0831 
    111 H111      -52.4672  -27.3887   16.0945 H         1 UNK         0.3133 
    112 H112      -52.6842  -24.0895   17.1856 H         1 UNK         0.0566 
    113 H113      -49.9906  -25.4492   16.6397 H         1 UNK         0.0814 
    114 H114      -50.3599  -24.3816   17.9847 H         1 UNK         0.0814 
    115 H115      -50.3494  -23.7472   16.3470 H         1 UNK         0.0814 
    116 H116      -51.6791  -25.3310   14.7796 H         1 UNK         0.3091 
    117 H117      -54.8080  -26.2256   13.4006 H         1 UNK         0.0702 
    118 H118      -54.2077  -24.6870   11.5230 H         1 UNK         0.0785 
    119 H119      -53.1938  -23.7434   12.6162 H         1 UNK         0.0785 
    120 H120      -54.9312  -23.8198   12.8693 H         1 UNK         0.0785 
    121 H121      -52.1793  -26.0526   12.2755 H         1 UNK         0.2998 
    122 H122      -50.7714  -28.8611   13.8092 H         1 UNK         0.0697 
    123 H123      -52.1595  -29.2011   11.1040 H         1 UNK         0.0825 
    124 H124      -52.2559  -30.3009   12.4749 H         1 UNK         0.0825 
    125 H125      -50.7336  -30.0968   11.6301 H         1 UNK         0.0825 
    126 H126      -50.1364  -27.6547   11.2988 H         1 UNK         0.3029 
    127 H127      -48.6512  -24.7013   12.5525 H         1 UNK         0.0897 
    128 H128      -46.5477  -25.5572   11.6383 H         1 UNK         0.0792 
    129 H129      -46.9075  -26.4471   13.1056 H         1 UNK         0.0792 
    130 H130      -47.1984  -27.1914   11.5375 H         1 UNK         0.0792 
    131 H131      -48.4622  -25.7387    9.9556 H         1 UNK         0.3086 
    132 H132      -50.4421  -25.7366    8.3810 H         1 UNK         0.0583 
    133 H133      -52.6932  -24.7535    9.0336 H         1 UNK         0.1020 
    134 H134      -52.0518  -23.1605    8.8212 H         1 UNK         0.1020 
    135 H135      -54.6452  -24.4552    7.0643 H         1 UNK         0.0694 
    136 H136      -54.1692  -25.3296    5.6282 H         1 UNK         0.0694 
    137 H137      -48.7487  -24.5017    7.7192 H         1 UNK         0.2989 
    138 H138      -47.9344  -22.5374    6.7413 H         1 UNK         0.1055 
    139 H139      -49.0672  -20.3313    6.9570 H         1 UNK         0.0806 
    140 H140      -47.3230  -20.1530    6.8550 H         1 UNK         0.0806 
    141 H141      -48.1405  -19.9759    8.4065 H         1 UNK         0.0806 
    142 H142      -46.0003  -22.7857    7.7575 H         1 UNK         0.3061 
    143 H143      -44.3047  -21.2874    9.8251 H         1 UNK         0.0734 
    144 H144      -44.9207  -21.8869   12.1054 H         1 UNK         0.0832 
    145 H145      -45.1265  -23.5751   11.6816 H         1 UNK         0.0832 
    146 H146      -43.5227  -22.8429   11.6453 H         1 UNK         0.0832 
    147 H147      -43.4858  -22.7073    8.3620 H         1 UNK         0.3156 
    148 H148      -43.1341  -24.3735    7.0651 H         1 UNK         0.0589 
    149 H149      -42.9831  -26.9118    8.7792 H         1 UNK         0.0808 
    150 H150      -42.1207  -26.6648    7.2607 H         1 UNK         0.0808 
    151 H151      -41.7600  -25.6601    8.6562 H         1 UNK         0.0808 
    152 H152      -44.7306  -26.7914    6.9449 H         1 UNK         0.3098 
    153 H153      -47.6133  -25.3526    5.5386 H         1 UNK         0.0720 
    154 H154      -47.1958  -26.6341    3.4541 H         1 UNK         0.0791 
    155 H155      -46.2174  -25.1774    3.4758 H         1 UNK         0.0791 
    156 H156      -45.4734  -26.7310    3.8265 H         1 UNK         0.0791 
    157 H157      -46.6572  -28.0499    5.5514 H         1 UNK         0.3028 
@<TRIPOS>BOND
     1    1    2 1    
     2    1   82 1    
     3    1   83 1    
     4    1   84 1    
     5    2    3 2    
     6    2    4 am   BACKBONE|DICT|INTERRES
     7    4    5 1    
     8    4   85 1    
     9    5    6 1    
    10    5   80 1    
    11    5   86 1    
    12    6    7 1    
    13    6   87 1    
    14    6   88 1    
    15    7    8 1    
    16    8    9 1    
    17    8   89 1    
    18    8   90 1    
    19    9   10 ar   
    20    9   14 ar   
    21   10   11 ar   
    22   10   91 1    
    23   11   12 ar   
    24   11   58 1    
    25   12   13 ar   
    26   12   92 1    
    27   13   14 ar   
    28   13   15 1    
    29   14   93 1    
    30   15   16 1    
    31   15   94 1    
    32   15   95 1    
    33   16   17 1    
    34   17   18 1    
    35   17   96 1    
    36   17   97 1    
    37   18   19 1    
    38   18   22 1    
    39   18   98 1    
    40   19   20 am   BACKBONE|DICT|INTERRES
    41   19   21 2    
    42   20   99 1    
    43   20  100 1    
    44   22   23 am   BACKBONE|DICT|INTERRES
    45   22  101 1    
    46   23   24 2    
    47   23   25 1    
    48   25   26 1    
    49   25   27 1    
    50   25  102 1    
    51   26  103 1    
    52   26  104 1    
    53   26  105 1    
    54   27   28 am   BACKBONE|DICT|INTERRES
    55   27  106 1    
    56   28   29 2    
    57   28   30 1    
    58   30   31 1    
    59   30   32 1    
    60   30  107 1    
    61   31  108 1    
    62   31  109 1    
    63   31  110 1    
    64   32   33 am   BACKBONE|DICT|INTERRES
    65   32  111 1    
    66   33   34 2    
    67   33   35 1    
    68   35   36 1    
    69   35   37 1    
    70   35  112 1    
    71   36  113 1    
    72   36  114 1    
    73   36  115 1    
    74   37   38 am   BACKBONE|DICT|INTERRES
    75   37  116 1    
    76   38   39 2    
    77   38   40 1    
    78   40   41 1    
    79   40   42 1    
    80   40  117 1    
    81   41  118 1    
    82   41  119 1    
    83   41  120 1    
    84   42   43 am   BACKBONE|DICT|INTERRES
    85   42  121 1    
    86   43   44 2    
    87   43   45 1    
    88   45   46 1    
    89   45   47 1    
    90   45  122 1    
    91   46  123 1    
    92   46  124 1    
    93   46  125 1    
    94   47   48 am   BACKBONE|DICT|INTERRES
    95   47  126 1    
    96   48   49 2    
    97   48   50 1    
    98   50   51 1    
    99   50   52 1    
   100   50  127 1    
   101   51  128 1    
   102   51  129 1    
   103   51  130 1    
   104   52   53 am   BACKBONE|DICT|INTERRES
   105   52  131 1    
   106   53   54 2    
   107   53   55 1    
   108   55   56 1    
   109   55   59 1    
   110   55  132 1    
   111   56   57 1    
   112   56  133 1    
   113   56  134 1    
   114   57   58 1    
   115   58  135 1    
   116   58  136 1    
   117   59   60 am   BACKBONE|DICT|INTERRES
   118   59  137 1    
   119   60   61 2    
   120   60   62 1    
   121   62   63 1    
   122   62   64 1    
   123   62  138 1    
   124   63  139 1    
   125   63  140 1    
   126   63  141 1    
   127   64   65 am   BACKBONE|DICT|INTERRES
   128   64  142 1    
   129   65   66 2    
   130   65   67 1    
   131   67   68 1    
   132   67   69 1    
   133   67  143 1    
   134   68  144 1    
   135   68  145 1    
   136   68  146 1    
   137   69   70 am   BACKBONE|DICT|INTERRES
   138   69  147 1    
   139   70   71 2    
   140   70   72 1    
   141   72   73 1    
   142   72   74 1    
   143   72  148 1    
   144   73  149 1    
   145   73  150 1    
   146   73  151 1    
   147   74   75 am   BACKBONE|DICT|INTERRES
   148   74  152 1    
   149   75   76 2    
   150   75   77 1    
   151   77   78 1    
   152   77   79 1    
   153   77  153 1    
   154   78  154 1    
   155   78  155 1    
   156   78  156 1    
   157   79   80 am   BACKBONE|DICT|INTERRES
   158   79  157 1    
   159   80   81 2    
@<TRIPOS>SUBSTRUCTURE
     1 UNK         1 GROUP             0       ****    0 ROOT    
