@<TRIPOS>MOLECULE
3R207
157   159    1
SMALL
USER_CHARGES


@<TRIPOS>ATOM
      1 CA        -51.1021  -27.4565    2.9029 C.3       0 UNK        -0.1975 
      2 C         -50.3890  -28.7363    2.4710 C.2       0 UNK         0.4852 
      3 O         -50.6032  -29.1959    1.3502 O.2       0 UNK        -0.5216 
      4 N         -49.5513  -29.3559    3.3151 N.am      1 UNK        -0.4461 
      5 CA        -49.1313  -28.8922    4.6422 C.3       1 UNK         0.0864 
      6 C6        -48.6395  -30.0806    5.5103 C.3       14 UNK        -0.0898 
      7 S7        -48.8971  -29.7768    7.2884 S.3       14 UNK        -0.2598 
      8 C8        -50.6166  -30.3363    7.4851 C.3       14 UNK         0.0286 
      9 C9        -51.3548  -29.5201    8.5352 C.ar      14 UNK        -0.0844 
     10 C10       -51.7139  -28.1977    8.2651 C.ar      14 UNK        -0.0881 
     11 C11       -52.4383  -27.4478    9.1970 C.ar      14 UNK        -0.0643 
     12 C12       -52.8310  -28.0446   10.4005 C.ar      14 UNK        -0.0930 
     13 C13       -52.4969  -29.3762   10.6756 C.ar      14 UNK        -0.0827 
     14 C14       -51.7307  -30.0963    9.7506 C.ar      14 UNK        -0.1249 
     15 C15       -52.9977  -30.0473   11.9510 C.3       14 UNK         0.0141 
     16 S16       -53.8768  -31.6017   11.5771 S.3       14 UNK        -0.2313 
     17 C17       -54.8727  -31.8857   13.0767 C.3       14 UNK        -0.0915 
     18 CA        -56.3899  -31.7064   12.7746 C.3       13 UNK         0.0968 
     19 C         -57.3227  -32.3470   13.8504 C.2       13 UNK         0.5732 
     20 N         -58.5506  -31.8705   14.0190 N.am      13 UNK        -0.7310 
     21 O         -56.9510  -33.3111   14.5160 O.2       13 UNK        -0.5035 
     22 N         -56.7181  -30.3177   12.3965 N.am      13 UNK        -0.4233 
     23 C         -56.7329  -29.2647   13.2240 C.2       13 UNK         0.4989 
     24 O         -56.5454  -29.3454   14.4408 O.2       13 UNK        -0.4996 
     25 CA        -57.0347  -27.8985   12.5745 C.3       12 UNK         0.0216 
     26 CB        -58.4832  -27.8419   12.0561 C.3       12 UNK        -0.1964 
     27 N         -56.8339  -26.7959   13.5178 N.am      12 UNK        -0.4276 
     28 C         -55.6419  -26.3734   13.9546 C.2       12 UNK         0.5020 
     29 O         -54.5614  -26.7378   13.4786 O.2       12 UNK        -0.5489 
     30 CA        -55.6675  -25.4042   15.1454 C.3       11 UNK         0.0294 
     31 CB        -56.2771  -26.0865   16.3910 C.3       11 UNK        -0.2019 
     32 N         -54.2940  -24.9948   15.4125 N.am      11 UNK        -0.4493 
     33 C         -53.8719  -24.0710   16.2822 C.2       11 UNK         0.4932 
     34 O         -54.6319  -23.3607   16.9426 O.2       11 UNK        -0.5029 
     35 CA        -52.3467  -23.8964   16.4306 C.3       10 UNK         0.0280 
     36 CB        -51.9268  -23.5298   17.8695 C.3       10 UNK        -0.1976 
     37 N         -51.5665  -25.0343   15.9283 N.am      10 UNK        -0.4242 
     38 C         -51.5350  -26.2936   16.3916 C.2       10 UNK         0.5072 
     39 O         -52.1826  -26.6975   17.3581 O.2       10 UNK        -0.5224 
     40 CA        -50.6154  -27.2720   15.6393 C.3       9 UNK         0.0343 
     41 CB        -51.3207  -27.8297   14.3917 C.3       9 UNK        -0.2003 
     42 N         -49.3412  -26.6602   15.2520 N.am      9 UNK        -0.4272 
     43 C         -48.3928  -26.2725   16.1184 C.2       9 UNK         0.4988 
     44 O         -48.4461  -26.4766   17.3319 O.2       9 UNK        -0.5108 
     45 CA        -47.1859  -25.5142   15.5403 C.3       8 UNK         0.0248 
     46 CB        -46.1566  -26.4935   14.9539 C.3       8 UNK        -0.2001 
     47 N         -47.5691  -24.5230   14.5307 N.am      8 UNK        -0.4140 
     48 C         -48.2948  -23.4233   14.7845 C.2       8 UNK         0.5028 
     49 O         -48.6582  -23.0863   15.9114 O.2       8 UNK        -0.5428 
     50 CA        -48.7082  -22.5589   13.5810 C.3       7 UNK         0.0264 
     51 CB        -47.5832  -21.5846   13.1979 C.3       7 UNK        -0.1988 
     52 N         -49.1026  -23.3467   12.4100 N.am      7 UNK        -0.4454 
     53 C         -50.1637  -24.1672   12.3654 C.2       7 UNK         0.5027 
     54 O         -50.9470  -24.3177   13.3017 O.2       7 UNK        -0.5083 
     55 CA        -50.3684  -24.9851   11.0743 C.3       6 UNK         0.0844 
     56 C56       -51.0754  -24.1145   10.0075 C.3       14 UNK        -0.0967 
     57 S57       -51.4139  -24.9724    8.4373 S.3       14 UNK        -0.2604 
     58 C58       -52.8458  -26.0172    8.8655 C.3       14 UNK         0.0134 
     59 N         -49.1122  -25.5880   10.6145 N.am      6 UNK        -0.4116 
     60 C         -48.3888  -26.4597   11.3357 C.2       5 UNK         0.5034 
     61 O         -48.7407  -26.9098   12.4262 O.2       5 UNK        -0.5045 
     62 CA        -47.0015  -26.8338   10.7953 C.3       5 UNK         0.0224 
     63 CB        -47.0904  -27.9576    9.7548 C.3       5 UNK        -0.1978 
     64 N         -46.3104  -25.6736   10.2305 N.am      5 UNK        -0.4737 
     65 C         -45.8040  -24.6754   10.9683 C.2       4 UNK         0.5027 
     66 O         -45.8259  -24.6600   12.1976 O.2       4 UNK        -0.5211 
     67 CA        -45.2075  -23.4765   10.2118 C.3       4 UNK         0.0297 
     68 CB        -43.7342  -23.7395    9.8634 C.3       4 UNK        -0.1993 
     69 N         -45.9491  -23.1476    8.9928 N.am      4 UNK        -0.4486 
     70 C         -47.2164  -22.7106    8.9679 C.2       3 UNK         0.4961 
     71 O         -47.8817  -22.4788    9.9764 O.2       3 UNK        -0.5105 
     72 CA        -47.8687  -22.5608    7.5826 C.3       3 UNK         0.0299 
     73 CB        -47.6092  -21.1576    7.0128 C.3       3 UNK        -0.1972 
     74 N         -47.4308  -23.5773    6.6175 N.am      3 UNK        -0.4305 
     75 C         -47.6130  -24.8950    6.7760 C.2       2 UNK         0.5006 
     76 O         -48.1409  -25.4015    7.7682 O.2       2 UNK        -0.5106 
     77 CA        -47.0669  -25.8083    5.6779 C.3       2 UNK         0.0296 
     78 CB        -45.6263  -26.2452    6.0037 C.3       2 UNK        -0.2002 
     79 N         -47.9408  -26.9729    5.5925 N.am      2 UNK        -0.4032 
     80 C         -48.0707  -27.7741    4.5308 C.2       1 UNK         0.5000 
     81 O         -47.4035  -27.6547    3.4988 O.2       1 UNK        -0.5238 
     82 H82       -51.7461  -27.0918    2.1029 H         1 UNK         0.0889 
     83 H83       -50.3888  -26.6667    3.1351 H         1 UNK         0.0889 
     84 H84       -51.7311  -27.6353    3.7744 H         1 UNK         0.0889 
     85 H85       -49.0726  -30.1808    2.9831 H         1 UNK         0.3028 
     86 H86       -50.0095  -28.4620    5.1267 H         1 UNK         0.0864 
     87 H87       -47.5846  -30.2994    5.3322 H         1 UNK         0.0720 
     88 H88       -49.1745  -30.9964    5.2520 H         1 UNK         0.0720 
     89 H89       -50.6183  -31.3973    7.7396 H         1 UNK         0.0814 
     90 H90       -51.1527  -30.2492    6.5389 H         1 UNK         0.0814 
     91 H91       -51.4321  -27.7486    7.3229 H         1 UNK         0.1469 
     92 H92       -53.4169  -27.4800   11.1136 H         1 UNK         0.1381 
     93 H93       -51.4686  -31.1246    9.9591 H         1 UNK         0.1206 
     94 H94       -53.6643  -29.3776   12.4972 H         1 UNK         0.0813 
     95 H95       -52.1538  -30.2583   12.6083 H         1 UNK         0.0813 
     96 H96       -54.6555  -32.9031   13.4055 H         1 UNK         0.0638 
     97 H97       -54.5479  -31.2283   13.8847 H         1 UNK         0.0638 
     98 H98       -56.6051  -32.2983   11.8842 H         1 UNK         0.0568 
     99 H99       -58.8744  -31.0866   13.4763 H         1 UNK         0.3450 
    100 H100      -59.1534  -32.2941   14.7064 H         1 UNK         0.3450 
    101 H101      -56.9069  -30.1708   11.4159 H         1 UNK         0.2987 
    102 H102      -56.3505  -27.7640   11.7336 H         1 UNK         0.0766 
    103 H103      -58.7026  -26.8763   11.5997 H         1 UNK         0.0798 
    104 H104      -59.2059  -28.0051   12.8569 H         1 UNK         0.0798 
    105 H105      -58.6647  -28.6007   11.2941 H         1 UNK         0.0798 
    106 H106      -57.6608  -26.4591   13.9889 H         1 UNK         0.3198 
    107 H107      -56.2532  -24.5247   14.8710 H         1 UNK         0.0843 
    108 H108      -56.3112  -25.4139   17.2476 H         1 UNK         0.0831 
    109 H109      -55.7025  -26.9671   16.6822 H         1 UNK         0.0831 
    110 H110      -57.3013  -26.4132   16.2099 H         1 UNK         0.0831 
    111 H111      -53.6149  -25.5092   14.8619 H         1 UNK         0.3133 
    112 H112      -52.0794  -23.0558   15.7888 H         1 UNK         0.0566 
    113 H113      -50.8466  -23.4019   17.9440 H         1 UNK         0.0814 
    114 H114      -52.3854  -22.5921   18.1853 H         1 UNK         0.0814 
    115 H115      -52.2256  -24.2949   18.5865 H         1 UNK         0.0814 
    116 H116      -51.0618  -24.8411   15.0649 H         1 UNK         0.3091 
    117 H117      -50.3979  -28.1070   16.3085 H         1 UNK         0.0702 
    118 H118      -50.7052  -28.5769   13.8906 H         1 UNK         0.0785 
    119 H119      -51.5457  -27.0465   13.6665 H         1 UNK         0.0785 
    120 H120      -52.2653  -28.3073   14.6562 H         1 UNK         0.0785 
    121 H121      -49.1819  -26.5246   14.2567 H         1 UNK         0.2998 
    122 H122      -46.7082  -24.9777   16.3628 H         1 UNK         0.0697 
    123 H123      -45.2648  -25.9711   14.6072 H         1 UNK         0.0825 
    124 H124      -45.8367  -27.2180   15.7039 H         1 UNK         0.0825 
    125 H125      -46.5646  -27.0539   14.1128 H         1 UNK         0.0825 
    126 H126      -47.2307  -24.6788   13.5854 H         1 UNK         0.3029 
    127 H127      -49.5761  -21.9699   13.8857 H         1 UNK         0.0897 
    128 H128      -47.8932  -20.9170   12.3937 H         1 UNK         0.0792 
    129 H129      -47.3013  -20.9608   14.0472 H         1 UNK         0.0792 
    130 H130      -46.6876  -22.1113   12.8684 H         1 UNK         0.0792 
    131 H131      -48.5448  -23.2209   11.5675 H         1 UNK         0.3086 
    132 H132      -51.0374  -25.8109   11.3247 H         1 UNK         0.0583 
    133 H133      -52.0189  -23.7256   10.3960 H         1 UNK         0.1020 
    134 H134      -50.4704  -23.2373    9.7720 H         1 UNK         0.1020 
    135 H135      -53.4070  -25.5668    9.6856 H         1 UNK         0.0694 
    136 H136      -53.5227  -26.0423    8.0106 H         1 UNK         0.0694 
    137 H137      -48.7801  -25.3157    9.6947 H         1 UNK         0.2989 
    138 H138      -46.4107  -27.2050   11.6357 H         1 UNK         0.1055 
    139 H139      -47.5781  -28.8386   10.1745 H         1 UNK         0.0806 
    140 H140      -46.1024  -28.2648    9.4123 H         1 UNK         0.0806 
    141 H141      -47.6686  -27.6556    8.8834 H         1 UNK         0.0806 
    142 H142      -46.3296  -25.5775    9.2250 H         1 UNK         0.3061 
    143 H143      -45.2525  -22.6102   10.8751 H         1 UNK         0.0734 
    144 H144      -43.2736  -22.8675    9.3986 H         1 UNK         0.0832 
    145 H145      -43.1578  -23.9676   10.7612 H         1 UNK         0.0832 
    146 H146      -43.6221  -24.5839    9.1820 H         1 UNK         0.0832 
    147 H147      -45.4799  -23.3028    8.1128 H         1 UNK         0.3156 
    148 H148      -48.9462  -22.6797    7.7159 H         1 UNK         0.0589 
    149 H149      -46.5486  -20.9852    6.8250 H         1 UNK         0.0808 
    150 H150      -48.1466  -21.0031    6.0770 H         1 UNK         0.0808 
    151 H151      -47.9463  -20.3871    7.7079 H         1 UNK         0.0808 
    152 H152      -46.9781  -23.2430    5.7784 H         1 UNK         0.3098 
    153 H153      -47.0866  -25.2711    4.7271 H         1 UNK         0.0720 
    154 H154      -44.9642  -25.3835    6.0971 H         1 UNK         0.0791 
    155 H155      -45.2170  -26.8810    5.2185 H         1 UNK         0.0791 
    156 H156      -45.5771  -26.8015    6.9409 H         1 UNK         0.0791 
    157 H157      -48.5123  -27.1191    6.4168 H         1 UNK         0.3028 
@<TRIPOS>BOND
     1    1    2 1    
     2    1   82 1    
     3    1   83 1    
     4    1   84 1    
     5    2    3 2    
     6    2    4 am   BACKBONE|DICT|INTERRES
     7    4    5 1    
     8    4   85 1    
     9    5    6 1    
    10    5   80 1    
    11    5   86 1    
    12    6    7 1    
    13    6   87 1    
    14    6   88 1    
    15    7    8 1    
    16    8    9 1    
    17    8   89 1    
    18    8   90 1    
    19    9   10 ar   
    20    9   14 ar   
    21   10   11 ar   
    22   10   91 1    
    23   11   12 ar   
    24   11   58 1    
    25   12   13 ar   
    26   12   92 1    
    27   13   14 ar   
    28   13   15 1    
    29   14   93 1    
    30   15   16 1    
    31   15   94 1    
    32   15   95 1    
    33   16   17 1    
    34   17   18 1    
    35   17   96 1    
    36   17   97 1    
    37   18   19 1    
    38   18   22 1    
    39   18   98 1    
    40   19   20 am   BACKBONE|DICT|INTERRES
    41   19   21 2    
    42   20   99 1    
    43   20  100 1    
    44   22   23 am   BACKBONE|DICT|INTERRES
    45   22  101 1    
    46   23   24 2    
    47   23   25 1    
    48   25   26 1    
    49   25   27 1    
    50   25  102 1    
    51   26  103 1    
    52   26  104 1    
    53   26  105 1    
    54   27   28 am   BACKBONE|DICT|INTERRES
    55   27  106 1    
    56   28   29 2    
    57   28   30 1    
    58   30   31 1    
    59   30   32 1    
    60   30  107 1    
    61   31  108 1    
    62   31  109 1    
    63   31  110 1    
    64   32   33 am   BACKBONE|DICT|INTERRES
    65   32  111 1    
    66   33   34 2    
    67   33   35 1    
    68   35   36 1    
    69   35   37 1    
    70   35  112 1    
    71   36  113 1    
    72   36  114 1    
    73   36  115 1    
    74   37   38 am   BACKBONE|DICT|INTERRES
    75   37  116 1    
    76   38   39 2    
    77   38   40 1    
    78   40   41 1    
    79   40   42 1    
    80   40  117 1    
    81   41  118 1    
    82   41  119 1    
    83   41  120 1    
    84   42   43 am   BACKBONE|DICT|INTERRES
    85   42  121 1    
    86   43   44 2    
    87   43   45 1    
    88   45   46 1    
    89   45   47 1    
    90   45  122 1    
    91   46  123 1    
    92   46  124 1    
    93   46  125 1    
    94   47   48 am   BACKBONE|DICT|INTERRES
    95   47  126 1    
    96   48   49 2    
    97   48   50 1    
    98   50   51 1    
    99   50   52 1    
   100   50  127 1    
   101   51  128 1    
   102   51  129 1    
   103   51  130 1    
   104   52   53 am   BACKBONE|DICT|INTERRES
   105   52  131 1    
   106   53   54 2    
   107   53   55 1    
   108   55   56 1    
   109   55   59 1    
   110   55  132 1    
   111   56   57 1    
   112   56  133 1    
   113   56  134 1    
   114   57   58 1    
   115   58  135 1    
   116   58  136 1    
   117   59   60 am   BACKBONE|DICT|INTERRES
   118   59  137 1    
   119   60   61 2    
   120   60   62 1    
   121   62   63 1    
   122   62   64 1    
   123   62  138 1    
   124   63  139 1    
   125   63  140 1    
   126   63  141 1    
   127   64   65 am   BACKBONE|DICT|INTERRES
   128   64  142 1    
   129   65   66 2    
   130   65   67 1    
   131   67   68 1    
   132   67   69 1    
   133   67  143 1    
   134   68  144 1    
   135   68  145 1    
   136   68  146 1    
   137   69   70 am   BACKBONE|DICT|INTERRES
   138   69  147 1    
   139   70   71 2    
   140   70   72 1    
   141   72   73 1    
   142   72   74 1    
   143   72  148 1    
   144   73  149 1    
   145   73  150 1    
   146   73  151 1    
   147   74   75 am   BACKBONE|DICT|INTERRES
   148   74  152 1    
   149   75   76 2    
   150   75   77 1    
   151   77   78 1    
   152   77   79 1    
   153   77  153 1    
   154   78  154 1    
   155   78  155 1    
   156   78  156 1    
   157   79   80 am   BACKBONE|DICT|INTERRES
   158   79  157 1    
   159   80   81 2    
@<TRIPOS>SUBSTRUCTURE
     1 UNK         1 GROUP             0       ****    0 ROOT    
