@<TRIPOS>MOLECULE
3R207
157   159    1
SMALL
USER_CHARGES


@<TRIPOS>ATOM
      1 CA        -46.1485  -30.0256    3.2217 C.3       0 UNK        -0.1975 
      2 C         -46.6392  -28.7923    3.9640 C.2       0 UNK         0.4852 
      3 O         -46.1235  -28.4824    5.0379 O.2       0 UNK        -0.5216 
      4 N         -47.6074  -28.0669    3.3825 N.am      1 UNK        -0.4461 
      5 CA        -48.3239  -26.9035    3.9435 C.3       1 UNK         0.0864 
      6 C6        -49.1264  -27.2431    5.2315 C.3       14 UNK        -0.0898 
      7 S7        -50.2206  -28.6951    5.0901 S.3       14 UNK        -0.2598 
      8 C8        -50.4308  -29.1358    6.8485 C.3       14 UNK         0.0286 
      9 C9        -51.8015  -28.7340    7.3806 C.ar      14 UNK        -0.0844 
     10 C10       -52.1636  -27.3869    7.5032 C.ar      14 UNK        -0.0881 
     11 C11       -53.4378  -27.0325    7.9599 C.ar      14 UNK        -0.0643 
     12 C12       -54.3488  -28.0357    8.3003 C.ar      14 UNK        -0.0930 
     13 C13       -53.9940  -29.3843    8.2029 C.ar      14 UNK        -0.0827 
     14 C14       -52.7193  -29.7248    7.7429 C.ar      14 UNK        -0.1249 
     15 C15       -54.9946  -30.4796    8.5544 C.3       14 UNK         0.0141 
     16 S16       -55.7546  -30.2560   10.1946 S.3       14 UNK        -0.2313 
     17 C17       -54.2978  -30.3907   11.2823 C.3       14 UNK        -0.0915 
     18 CA        -54.6604  -30.1594   12.7718 C.3       13 UNK         0.0968 
     19 C         -53.4468  -30.4537   13.7027 C.2       13 UNK         0.5732 
     20 N         -53.0051  -29.5359   14.5540 N.am      13 UNK        -0.7310 
     21 O         -52.8951  -31.5505   13.6576 O.2       13 UNK        -0.5035 
     22 N         -55.2723  -28.8375   12.9707 N.am      13 UNK        -0.4233 
     23 C         -56.0752  -28.5128   13.9873 C.2       13 UNK         0.4989 
     24 O         -56.4798  -29.3083   14.8383 O.2       13 UNK        -0.4996 
     25 CA        -56.4888  -27.0337   14.0709 C.3       12 UNK         0.0216 
     26 CB        -57.9713  -26.8597   13.7034 C.3       12 UNK        -0.1964 
     27 N         -56.2436  -26.4781   15.4038 N.am      12 UNK        -0.4276 
     28 C         -55.0462  -26.4279   16.0031 C.2       12 UNK         0.5020 
     29 O         -54.0000  -26.8337   15.4871 O.2       12 UNK        -0.5489 
     30 CA        -55.0316  -25.8809   17.4390 C.3       11 UNK         0.0294 
     31 CB        -55.2496  -27.0221   18.4454 C.3       11 UNK        -0.2019 
     32 N         -53.7518  -25.2401   17.7254 N.am      11 UNK        -0.4493 
     33 C         -53.4093  -23.9980   17.3699 C.2       11 UNK         0.4932 
     34 O         -54.2040  -23.1799   16.9054 O.2       11 UNK        -0.5029 
     35 CA        -51.9346  -23.5896   17.5590 C.3       10 UNK         0.0280 
     36 CB        -51.6712  -23.0889   18.9925 C.3       10 UNK        -0.1976 
     37 N         -50.9597  -24.6140   17.1500 N.am      10 UNK        -0.4242 
     38 C         -50.7244  -25.8228   17.6869 C.2       10 UNK         0.5072 
     39 O         -51.2918  -26.2373   18.6991 O.2       10 UNK        -0.5224 
     40 CA        -49.7407  -26.7609   16.9629 C.3       9 UNK         0.0343 
     41 CB        -50.4476  -28.0684   16.5718 C.3       9 UNK        -0.2003 
     42 N         -49.1608  -26.1616   15.7585 N.am      9 UNK        -0.4272 
     43 C         -48.0291  -25.4444   15.7460 C.2       9 UNK         0.4988 
     44 O         -47.3301  -25.2502   16.7412 O.2       9 UNK        -0.5108 
     45 CA        -47.6126  -24.8132   14.4069 C.3       8 UNK         0.0248 
     46 CB        -46.8062  -25.8138   13.5638 C.3       8 UNK        -0.2001 
     47 N         -48.7303  -24.2940   13.6134 N.am      8 UNK        -0.4140 
     48 C         -49.5731  -23.3251   14.0012 C.2       8 UNK         0.5028 
     49 O         -49.5587  -22.8101   15.1188 O.2       8 UNK        -0.5428 
     50 CA        -50.6195  -22.8650   12.9795 C.3       7 UNK         0.0264 
     51 CB        -49.9759  -21.9911   11.8900 C.3       7 UNK        -0.1988 
     52 N         -51.2704  -24.0167   12.3611 N.am      7 UNK        -0.4454 
     53 C         -52.4470  -24.5259   12.7528 C.2       7 UNK         0.5027 
     54 O         -53.1444  -24.0259   13.6352 O.2       7 UNK        -0.5083 
     55 CA        -52.9483  -25.8008   12.0333 C.3       6 UNK         0.0844 
     56 C56       -53.9374  -25.4431   10.8927 C.3       14 UNK        -0.0967 
     57 S57       -53.1136  -24.6877    9.4397 S.3       14 UNK        -0.2604 
     58 C58       -53.8563  -25.5703    8.0321 C.3       14 UNK         0.0134 
     59 N         -51.8800  -26.6753   11.5452 N.am      6 UNK        -0.4116 
     60 C         -50.8880  -27.2109   12.2675 C.2       5 UNK         0.5034 
     61 O         -50.7519  -27.0728   13.4816 O.2       5 UNK        -0.5045 
     62 CA        -49.8141  -27.9630   11.4670 C.3       5 UNK         0.0224 
     63 CB        -50.2702  -29.4033   11.1824 C.3       5 UNK        -0.1978 
     64 N         -49.4534  -27.3092   10.2018 N.am      5 UNK        -0.4737 
     65 C         -49.0626  -26.0355   10.0519 C.2       4 UNK         0.5027 
     66 O         -48.9657  -25.2318   10.9799 O.2       4 UNK        -0.5211 
     67 CA        -48.7434  -25.5800    8.6203 C.3       4 UNK         0.0297 
     68 CB        -49.2718  -24.1623    8.3450 C.3       4 UNK        -0.1993 
     69 N         -47.3102  -25.6173    8.3349 N.am      4 UNK        -0.4486 
     70 C         -46.5555  -26.7214    8.2782 C.2       3 UNK         0.4961 
     71 O         -46.9879  -27.8601    8.4637 O.2       3 UNK        -0.5105 
     72 CA        -45.0929  -26.5035    7.8656 C.3       3 UNK         0.0299 
     73 CB        -44.2184  -27.7482    8.1041 C.3       3 UNK        -0.1972 
     74 N         -45.0827  -26.1814    6.4413 N.am      3 UNK        -0.4305 
     75 C         -44.8977  -24.9608    5.9164 C.2       2 UNK         0.5006 
     76 O         -44.6004  -23.9682    6.5816 O.2       2 UNK        -0.5106 
     77 CA        -45.1151  -24.8089    4.3962 C.3       2 UNK         0.0296 
     78 CB        -43.7991  -25.0394    3.6362 C.3       2 UNK        -0.2002 
     79 N         -46.1374  -25.7281    3.8901 N.am      2 UNK        -0.4032 
     80 C         -47.4396  -25.6569    4.2025 C.2       1 UNK         0.5000 
     81 O         -47.9465  -24.6602    4.7212 O.2       1 UNK        -0.5238 
     82 H82       -45.0827  -29.9389    3.0124 H         1 UNK         0.0889 
     83 H83       -46.6709  -30.1684    2.2760 H         1 UNK         0.0889 
     84 H84       -46.3047  -30.9141    3.8328 H         1 UNK         0.0889 
     85 H85       -47.9564  -28.3724    2.4841 H         1 UNK         0.3028 
     86 H86       -49.0408  -26.6004    3.1790 H         1 UNK         0.0864 
     87 H87       -49.7463  -26.3959    5.5298 H         1 UNK         0.0720 
     88 H88       -48.4278  -27.4209    6.0492 H         1 UNK         0.0720 
     89 H89       -49.6507  -28.6870    7.4625 H         1 UNK         0.0814 
     90 H90       -50.2899  -30.2137    6.9415 H         1 UNK         0.0814 
     91 H91       -51.4690  -26.6114    7.2153 H         1 UNK         0.1469 
     92 H92       -55.3420  -27.7693    8.6349 H         1 UNK         0.1381 
     93 H93       -52.4465  -30.7673    7.6502 H         1 UNK         0.1206 
     94 H94       -55.7829  -30.4880    7.8007 H         1 UNK         0.0813 
     95 H95       -54.5246  -31.4636    8.5191 H         1 UNK         0.0813 
     96 H96       -53.8627  -31.3810   11.1353 H         1 UNK         0.0638 
     97 H97       -53.5453  -29.6686   10.9615 H         1 UNK         0.0638 
     98 H98       -55.4090  -30.9081   13.0380 H         1 UNK         0.0568 
     99 H99       -53.4468  -28.6277   14.6463 H         1 UNK         0.3450 
    100 H100      -52.2187  -29.7634   15.1383 H         1 UNK         0.3450 
    101 H101      -55.0027  -28.1305   12.3064 H         1 UNK         0.2987 
    102 H102      -55.8928  -26.4538   13.3636 H         1 UNK         0.0766 
    103 H103      -58.1732  -27.2483   12.7042 H         1 UNK         0.0798 
    104 H104      -58.2618  -25.8089   13.7052 H         1 UNK         0.0798 
    105 H105      -58.6246  -27.3912   14.3969 H         1 UNK         0.0798 
    106 H106      -57.0552  -26.1654   15.9168 H         1 UNK         0.3198 
    107 H107      -55.8329  -25.1475   17.5540 H         1 UNK         0.0843 
    108 H108      -54.4709  -27.7823   18.3657 H         1 UNK         0.0831 
    109 H109      -56.2064  -27.5177   18.2758 H         1 UNK         0.0831 
    110 H110      -55.2533  -26.6521   19.4709 H         1 UNK         0.0831 
    111 H111      -53.0112  -25.8340   18.0896 H         1 UNK         0.3133 
    112 H112      -51.7608  -22.7484   16.8861 H         1 UNK         0.0566 
    113 H113      -50.6456  -22.7381   19.1069 H         1 UNK         0.0814 
    114 H114      -51.8462  -23.8652   19.7378 H         1 UNK         0.0814 
    115 H115      -52.3289  -22.2539   19.2372 H         1 UNK         0.0814 
    116 H116      -50.4252  -24.3642   16.3258 H         1 UNK         0.3091 
    117 H117      -48.9449  -27.0080   17.6686 H         1 UNK         0.0702 
    118 H118      -49.7880  -28.7293   16.0092 H         1 UNK         0.0785 
    119 H119      -51.3282  -27.8681   15.9613 H         1 UNK         0.0785 
    120 H120      -50.7820  -28.6143   17.4549 H         1 UNK         0.0785 
    121 H121      -49.6775  -26.3038   14.8931 H         1 UNK         0.2998 
    122 H122      -46.9635  -23.9655   14.6355 H         1 UNK         0.0697 
    123 H123      -47.4023  -26.6858   13.2966 H         1 UNK         0.0825 
    124 H124      -45.9326  -26.1709   14.1108 H         1 UNK         0.0825 
    125 H125      -46.4475  -25.3584   12.6403 H         1 UNK         0.0825 
    126 H126      -48.8152  -24.6562   12.6643 H         1 UNK         0.3029 
    127 H127      -51.3567  -22.2539   13.5054 H         1 UNK         0.0897 
    128 H128      -49.2099  -22.5298   11.3313 H         1 UNK         0.0792 
    129 H129      -49.5019  -21.1113   12.3273 H         1 UNK         0.0792 
    130 H130      -50.7210  -21.6376   11.1770 H         1 UNK         0.0792 
    131 H131      -50.7370  -24.5062   11.6510 H         1 UNK         0.3086 
    132 H132      -53.4920  -26.3753   12.7847 H         1 UNK         0.0583 
    133 H133      -54.4674  -26.3427   10.5805 H         1 UNK         0.1020 
    134 H134      -54.7132  -24.7623   11.2495 H         1 UNK         0.1020 
    135 H135      -54.9423  -25.4777    8.0851 H         1 UNK         0.0694 
    136 H136      -53.5560  -25.0690    7.1109 H         1 UNK         0.0694 
    137 H137      -51.8643  -26.8208   10.5460 H         1 UNK         0.2989 
    138 H138      -48.9156  -28.0042   12.0843 H         1 UNK         0.1055 
    139 H139      -51.1238  -29.4325   10.5041 H         1 UNK         0.0806 
    140 H140      -49.4685  -29.9913   10.7351 H         1 UNK         0.0806 
    141 H141      -50.5662  -29.9102   12.1025 H         1 UNK         0.0806 
    142 H142      -49.4180  -27.9075    9.3895 H         1 UNK         0.3061 
    143 H143      -49.2447  -26.2577    7.9309 H         1 UNK         0.0734 
    144 H144      -48.7672  -23.4143    8.9577 H         1 UNK         0.0832 
    145 H145      -49.1360  -23.8861    7.2989 H         1 UNK         0.0832 
    146 H146      -50.3378  -24.0921    8.5605 H         1 UNK         0.0832 
    147 H147      -46.8640  -24.7278    8.1597 H         1 UNK         0.3156 
    148 H148      -44.6871  -25.6823    8.4600 H         1 UNK         0.0589 
    149 H149      -43.1807  -27.5597    7.8290 H         1 UNK         0.0808 
    150 H150      -44.2298  -28.0370    9.1558 H         1 UNK         0.0808 
    151 H151      -44.5665  -28.6049    7.5249 H         1 UNK         0.0808 
    152 H152      -45.3837  -26.9409    5.8325 H         1 UNK         0.3098 
    153 H153      -45.4483  -23.7863    4.2061 H         1 UNK         0.0720 
    154 H154      -43.0260  -24.3501    3.9791 H         1 UNK         0.0791 
    155 H155      -43.9252  -24.8761    2.5657 H         1 UNK         0.0791 
    156 H156      -43.4200  -26.0522    3.7802 H         1 UNK         0.0791 
    157 H157      -45.8095  -26.5817    3.4619 H         1 UNK         0.3028 
@<TRIPOS>BOND
     1    1    2 1    
     2    1   82 1    
     3    1   83 1    
     4    1   84 1    
     5    2    3 2    
     6    2    4 am   BACKBONE|DICT|INTERRES
     7    4    5 1    
     8    4   85 1    
     9    5    6 1    
    10    5   80 1    
    11    5   86 1    
    12    6    7 1    
    13    6   87 1    
    14    6   88 1    
    15    7    8 1    
    16    8    9 1    
    17    8   89 1    
    18    8   90 1    
    19    9   10 ar   
    20    9   14 ar   
    21   10   11 ar   
    22   10   91 1    
    23   11   12 ar   
    24   11   58 1    
    25   12   13 ar   
    26   12   92 1    
    27   13   14 ar   
    28   13   15 1    
    29   14   93 1    
    30   15   16 1    
    31   15   94 1    
    32   15   95 1    
    33   16   17 1    
    34   17   18 1    
    35   17   96 1    
    36   17   97 1    
    37   18   19 1    
    38   18   22 1    
    39   18   98 1    
    40   19   20 am   BACKBONE|DICT|INTERRES
    41   19   21 2    
    42   20   99 1    
    43   20  100 1    
    44   22   23 am   BACKBONE|DICT|INTERRES
    45   22  101 1    
    46   23   24 2    
    47   23   25 1    
    48   25   26 1    
    49   25   27 1    
    50   25  102 1    
    51   26  103 1    
    52   26  104 1    
    53   26  105 1    
    54   27   28 am   BACKBONE|DICT|INTERRES
    55   27  106 1    
    56   28   29 2    
    57   28   30 1    
    58   30   31 1    
    59   30   32 1    
    60   30  107 1    
    61   31  108 1    
    62   31  109 1    
    63   31  110 1    
    64   32   33 am   BACKBONE|DICT|INTERRES
    65   32  111 1    
    66   33   34 2    
    67   33   35 1    
    68   35   36 1    
    69   35   37 1    
    70   35  112 1    
    71   36  113 1    
    72   36  114 1    
    73   36  115 1    
    74   37   38 am   BACKBONE|DICT|INTERRES
    75   37  116 1    
    76   38   39 2    
    77   38   40 1    
    78   40   41 1    
    79   40   42 1    
    80   40  117 1    
    81   41  118 1    
    82   41  119 1    
    83   41  120 1    
    84   42   43 am   BACKBONE|DICT|INTERRES
    85   42  121 1    
    86   43   44 2    
    87   43   45 1    
    88   45   46 1    
    89   45   47 1    
    90   45  122 1    
    91   46  123 1    
    92   46  124 1    
    93   46  125 1    
    94   47   48 am   BACKBONE|DICT|INTERRES
    95   47  126 1    
    96   48   49 2    
    97   48   50 1    
    98   50   51 1    
    99   50   52 1    
   100   50  127 1    
   101   51  128 1    
   102   51  129 1    
   103   51  130 1    
   104   52   53 am   BACKBONE|DICT|INTERRES
   105   52  131 1    
   106   53   54 2    
   107   53   55 1    
   108   55   56 1    
   109   55   59 1    
   110   55  132 1    
   111   56   57 1    
   112   56  133 1    
   113   56  134 1    
   114   57   58 1    
   115   58  135 1    
   116   58  136 1    
   117   59   60 am   BACKBONE|DICT|INTERRES
   118   59  137 1    
   119   60   61 2    
   120   60   62 1    
   121   62   63 1    
   122   62   64 1    
   123   62  138 1    
   124   63  139 1    
   125   63  140 1    
   126   63  141 1    
   127   64   65 am   BACKBONE|DICT|INTERRES
   128   64  142 1    
   129   65   66 2    
   130   65   67 1    
   131   67   68 1    
   132   67   69 1    
   133   67  143 1    
   134   68  144 1    
   135   68  145 1    
   136   68  146 1    
   137   69   70 am   BACKBONE|DICT|INTERRES
   138   69  147 1    
   139   70   71 2    
   140   70   72 1    
   141   72   73 1    
   142   72   74 1    
   143   72  148 1    
   144   73  149 1    
   145   73  150 1    
   146   73  151 1    
   147   74   75 am   BACKBONE|DICT|INTERRES
   148   74  152 1    
   149   75   76 2    
   150   75   77 1    
   151   77   78 1    
   152   77   79 1    
   153   77  153 1    
   154   78  154 1    
   155   78  155 1    
   156   78  156 1    
   157   79   80 am   BACKBONE|DICT|INTERRES
   158   79  157 1    
   159   80   81 2    
@<TRIPOS>SUBSTRUCTURE
     1 UNK         1 GROUP             0       ****    0 ROOT    
