@<TRIPOS>MOLECULE
3R207
157   159    1
SMALL
USER_CHARGES


@<TRIPOS>ATOM
      1 CA        -48.9326  -30.3173    1.2240 C.3       0 UNK        -0.1975 
      2 C         -49.4483  -28.9675    1.7007 C.2       0 UNK         0.4852 
      3 O         -49.3869  -27.9915    0.9520 O.2       0 UNK        -0.5216 
      4 N         -49.9583  -28.9067    2.9390 N.am      1 UNK        -0.4461 
      5 CA        -50.4818  -27.6913    3.5760 C.3       1 UNK         0.0864 
      6 C6        -51.2899  -28.0424    4.8520 C.3       14 UNK        -0.0898 
      7 S7        -52.4213  -26.7126    5.3846 S.3       14 UNK        -0.2598 
      8 C8        -51.5066  -25.9760    6.7780 C.3       14 UNK         0.0286 
      9 C9        -51.7202  -26.7416    8.0759 C.ar      14 UNK        -0.0844 
     10 C10       -50.8504  -27.7697    8.4526 C.ar      14 UNK        -0.0881 
     11 C11       -51.0421  -28.4574    9.6544 C.ar      14 UNK        -0.0643 
     12 C12       -52.0960  -28.0890   10.4947 C.ar      14 UNK        -0.0930 
     13 C13       -52.9630  -27.0437   10.1443 C.ar      14 UNK        -0.0827 
     14 C14       -52.7709  -26.3867    8.9259 C.ar      14 UNK        -0.1249 
     15 C15       -54.0726  -26.5404   11.0691 C.3       14 UNK         0.0141 
     16 S16       -54.5419  -27.6752   12.4139 S.3       14 UNK        -0.2313 
     17 C17       -55.7579  -28.7626   11.5954 C.3       14 UNK        -0.0915 
     18 CA        -57.1674  -28.6134   12.2395 C.3       13 UNK         0.0968 
     19 C         -58.2857  -29.3702   11.4593 C.2       13 UNK         0.5732 
     20 N         -59.3450  -29.8320   12.1130 N.am      13 UNK        -0.7310 
     21 O         -58.2172  -29.5101   10.2401 O.2       13 UNK        -0.5035 
     22 N         -57.1342  -28.8513   13.6956 N.am      13 UNK        -0.4233 
     23 C         -56.8833  -30.0209   14.2987 C.2       13 UNK         0.4989 
     24 O         -56.8028  -31.1037   13.7149 O.2       13 UNK        -0.4996 
     25 CA        -56.6447  -29.9351   15.8167 C.3       12 UNK         0.0216 
     26 CB        -56.6741  -31.3133   16.5124 C.3       12 UNK        -0.1964 
     27 N         -55.3998  -29.2162   16.1258 N.am      12 UNK        -0.4276 
     28 C         -54.1465  -29.5422   15.7735 C.2       12 UNK         0.5020 
     29 O         -53.8476  -30.5359   15.1085 O.2       12 UNK        -0.5489 
     30 CA        -53.0340  -28.5983   16.2750 C.3       11 UNK         0.0294 
     31 CB        -51.6274  -29.2018   16.1028 C.3       11 UNK        -0.2019 
     32 N         -53.0541  -27.2852   15.6287 N.am      11 UNK        -0.4493 
     33 C         -53.9490  -26.3118   15.8384 C.2       11 UNK         0.4932 
     34 O         -54.9462  -26.4358   16.5537 O.2       11 UNK        -0.5029 
     35 CA        -53.6158  -24.9618   15.1745 C.3       10 UNK         0.0280 
     36 CB        -54.6767  -23.8714   15.4306 C.3       10 UNK        -0.1976 
     37 N         -52.2727  -24.5117   15.5651 N.am      10 UNK        -0.4242 
     38 C         -51.8314  -24.2538   16.8077 C.2       10 UNK         0.5072 
     39 O         -52.5549  -24.2011   17.8033 O.2       10 UNK        -0.5224 
     40 CA        -50.3158  -24.0640   16.9949 C.3       9 UNK         0.0343 
     41 CB        -49.6898  -25.3647   17.5255 C.3       9 UNK        -0.2003 
     42 N         -49.6158  -23.6646   15.7727 N.am      9 UNK        -0.4272 
     43 C         -49.6298  -22.4259   15.2613 C.2       9 UNK         0.4988 
     44 O         -50.2162  -21.4753   15.7802 O.2       9 UNK        -0.5108 
     45 CA        -48.8718  -22.2151   13.9390 C.3       8 UNK         0.0248 
     46 CB        -47.3599  -22.0917   14.1874 C.3       8 UNK        -0.2001 
     47 N         -49.1265  -23.2772   12.9631 N.am      8 UNK        -0.4140 
     48 C         -50.3214  -23.5336   12.4100 C.2       8 UNK         0.5028 
     49 O         -51.3434  -22.8862   12.6363 O.2       8 UNK        -0.5428 
     50 CA        -50.3897  -24.7371   11.4639 C.3       7 UNK         0.0264 
     51 CB        -49.8697  -24.3592   10.0662 C.3       7 UNK        -0.1988 
     52 N         -49.6298  -25.8700   11.9891 N.am      7 UNK        -0.4454 
     53 C         -50.0224  -26.6440   13.0119 C.2       7 UNK         0.5027 
     54 O         -51.0847  -26.4990   13.6191 O.2       7 UNK        -0.5083 
     55 CA        -49.0480  -27.7498   13.4671 C.3       6 UNK         0.0844 
     56 C56       -49.2863  -29.0765   12.7026 C.3       14 UNK        -0.0967 
     57 S57       -48.6680  -29.0719   10.9792 S.3       14 UNK        -0.2604 
     58 C58       -50.1242  -29.6130   10.0286 C.3       14 UNK         0.0134 
     59 N         -47.6450  -27.3279   13.4249 N.am      6 UNK        -0.4116 
     60 C         -47.1188  -26.3189   14.1328 C.2       5 UNK         0.5034 
     61 O         -47.7466  -25.6634   14.9625 O.2       5 UNK        -0.5045 
     62 CA        -45.6611  -25.9332   13.8221 C.3       5 UNK         0.0224 
     63 CB        -44.6962  -26.7117   14.7298 C.3       5 UNK        -0.1978 
     64 N         -45.2713  -26.1176   12.4174 N.am      5 UNK        -0.4737 
     65 C         -45.8941  -25.5666   11.3658 C.2       4 UNK         0.5027 
     66 O         -46.8932  -24.8512   11.4750 O.2       4 UNK        -0.5211 
     67 CA        -45.3187  -25.9064    9.9781 C.3       4 UNK         0.0297 
     68 CB        -45.3007  -27.4247    9.7243 C.3       4 UNK        -0.1993 
     69 N         -46.0904  -25.2796    8.9073 N.am      4 UNK        -0.4486 
     70 C         -45.9780  -24.0143    8.4941 C.2       3 UNK         0.4961 
     71 O         -45.1315  -23.2262    8.9206 O.2       3 UNK        -0.5105 
     72 CA        -46.9677  -23.5783    7.3934 C.3       3 UNK         0.0299 
     73 CB        -46.8221  -22.0915    7.0191 C.3       3 UNK        -0.1972 
     74 N         -46.8409  -24.3908    6.1785 N.am      3 UNK        -0.4305 
     75 C         -47.3118  -25.6349    6.0228 C.2       2 UNK         0.5006 
     76 O         -47.8920  -26.2652    6.9110 O.2       2 UNK        -0.5106 
     77 CA        -47.0462  -26.3066    4.6660 C.3       2 UNK         0.0296 
     78 CB        -45.7836  -27.1804    4.7415 C.3       2 UNK        -0.2002 
     79 N         -48.1800  -27.1355    4.2540 N.am      2 UNK        -0.4032 
     80 C         -49.3713  -26.6552    3.8670 C.2       1 UNK         0.5000 
     81 O         -49.6062  -25.4533    3.7229 O.2       1 UNK        -0.5238 
     82 H82       -47.8736  -30.2479    0.9766 H         1 UNK         0.0889 
     83 H83       -49.4717  -30.6302    0.3301 H         1 UNK         0.0889 
     84 H84       -49.0538  -31.0920    1.9810 H         1 UNK         0.0889 
     85 H85       -49.9946  -29.7482    3.4973 H         1 UNK         0.3028 
     86 H86       -51.1667  -27.2319    2.8593 H         1 UNK         0.0864 
     87 H87       -50.6287  -28.3380    5.6660 H         1 UNK         0.0720 
     88 H88       -51.9195  -28.9124    4.6583 H         1 UNK         0.0720 
     89 H89       -51.8387  -24.9444    6.9039 H         1 UNK         0.0814 
     90 H90       -50.4453  -25.9154    6.5407 H         1 UNK         0.0814 
     91 H91       -50.0169  -28.0323    7.8162 H         1 UNK         0.1469 
     92 H92       -52.2194  -28.6111   11.4316 H         1 UNK         0.1381 
     93 H93       -53.4289  -25.5749    8.6467 H         1 UNK         0.1206 
     94 H94       -54.9607  -26.2870   10.4882 H         1 UNK         0.0813 
     95 H95       -53.7347  -25.6099   11.5258 H         1 UNK         0.0813 
     96 H96       -55.4057  -29.7925   11.6704 H         1 UNK         0.0638 
     97 H97       -55.7864  -28.5289   10.5299 H         1 UNK         0.0638 
     98 H98       -57.4484  -27.5651   12.1333 H         1 UNK         0.0568 
     99 H99       -59.4175  -29.7202   13.1113 H         1 UNK         0.3450 
    100 H100      -60.0706  -30.3099   11.6026 H         1 UNK         0.3450 
    101 H101      -57.1935  -28.0211   14.2664 H         1 UNK         0.2987 
    102 H102      -57.4606  -29.3428   16.2341 H         1 UNK         0.0766 
    103 H103      -55.8879  -31.9743   16.1459 H         1 UNK         0.0798 
    104 H104      -57.6261  -31.8161   16.3376 H         1 UNK         0.0798 
    105 H105      -56.5522  -31.2152   17.5910 H         1 UNK         0.0798 
    106 H106      -55.5086  -28.3149   16.5849 H         1 UNK         0.3198 
    107 H107      -53.1972  -28.4500   17.3448 H         1 UNK         0.0843 
    108 H108      -51.3845  -29.3567   15.0513 H         1 UNK         0.0831 
    109 H109      -51.5541  -30.1698   16.6004 H         1 UNK         0.0831 
    110 H110      -50.8618  -28.5578   16.5355 H         1 UNK         0.0831 
    111 H111      -52.3071  -27.0926   14.9649 H         1 UNK         0.3133 
    112 H112      -53.5796  -25.1402   14.0989 H         1 UNK         0.0566 
    113 H113      -55.6486  -24.1800   15.0440 H         1 UNK         0.0814 
    114 H114      -54.8029  -23.6632   16.4933 H         1 UNK         0.0814 
    115 H115      -54.4105  -22.9380   14.9346 H         1 UNK         0.0814 
    116 H116      -51.5800  -24.5596   14.8291 H         1 UNK         0.3091 
    117 H117      -50.1709  -23.2854   17.7469 H         1 UNK         0.0702 
    118 H118      -48.6252  -25.2402   17.7250 H         1 UNK         0.0785 
    119 H119      -49.8029  -26.1839   16.8141 H         1 UNK         0.0785 
    120 H120      -50.1610  -25.6752   18.4591 H         1 UNK         0.0785 
    121 H121      -49.0453  -24.3781   15.3233 H         1 UNK         0.2998 
    122 H122      -49.2210  -21.2775   13.5013 H         1 UNK         0.0697 
    123 H123      -46.9514  -22.9889   14.6522 H         1 UNK         0.0825 
    124 H124      -47.1433  -21.2550   14.8529 H         1 UNK         0.0825 
    125 H125      -46.8162  -21.9171   13.2587 H         1 UNK         0.0825 
    126 H126      -48.3381  -23.8495   12.6791 H         1 UNK         0.3029 
    127 H127      -51.4326  -25.0406   11.3731 H         1 UNK         0.0897 
    128 H128      -48.8927  -23.8781   10.1094 H         1 UNK         0.0792 
    129 H129      -50.5517  -23.6637    9.5764 H         1 UNK         0.0792 
    130 H130      -49.7768  -25.2331    9.4228 H         1 UNK         0.0792 
    131 H131      -48.7107  -26.0158   11.5908 H         1 UNK         0.3086 
    132 H132      -49.2767  -27.9397   14.5178 H         1 UNK         0.0583 
    133 H133      -48.7767  -29.8860   13.2275 H         1 UNK         0.1020 
    134 H134      -50.3434  -29.3463   12.7260 H         1 UNK         0.1020 
    135 H135      -49.7748  -30.1052    9.1197 H         1 UNK         0.0694 
    136 H136      -50.6732  -30.3744   10.5847 H         1 UNK         0.0694 
    137 H137      -47.0611  -27.7976   12.7486 H         1 UNK         0.2989 
    138 H138      -45.5569  -24.8702   14.0478 H         1 UNK         0.1055 
    139 H139      -44.9532  -26.5742   15.7813 H         1 UNK         0.0806 
    140 H140      -43.6686  -26.3700   14.6039 H         1 UNK         0.0806 
    141 H141      -44.7227  -27.7828   14.5254 H         1 UNK         0.0806 
    142 H142      -44.4555  -26.6892   12.2491 H         1 UNK         0.3061 
    143 H143      -44.2932  -25.5331    9.9422 H         1 UNK         0.0734 
    144 H144      -44.8744  -27.6536    8.7472 H         1 UNK         0.0832 
    145 H145      -44.6996  -27.9552   10.4631 H         1 UNK         0.0832 
    146 H146      -46.3045  -27.8480    9.7510 H         1 UNK         0.0832 
    147 H147      -46.8210  -25.8397    8.4765 H         1 UNK         0.3156 
    148 H148      -47.9739  -23.7163    7.7943 H         1 UNK         0.0589 
    149 H149      -45.8393  -21.8737    6.5992 H         1 UNK         0.0808 
    150 H150      -47.5742  -21.7901    6.2897 H         1 UNK         0.0808 
    151 H151      -46.9511  -21.4545    7.8953 H         1 UNK         0.0808 
    152 H152      -46.3350  -23.9682    5.4131 H         1 UNK         0.3098 
    153 H153      -46.8935  -25.5347    3.9086 H         1 UNK         0.0720 
    154 H154      -45.5641  -27.6458    3.7803 H         1 UNK         0.0791 
    155 H155      -45.8849  -27.9732    5.4842 H         1 UNK         0.0791 
    156 H156      -44.9122  -26.5855    5.0186 H         1 UNK         0.0791 
    157 H157      -48.0763  -28.1332    4.3623 H         1 UNK         0.3028 
@<TRIPOS>BOND
     1    1    2 1    
     2    1   82 1    
     3    1   83 1    
     4    1   84 1    
     5    2    3 2    
     6    2    4 am   BACKBONE|DICT|INTERRES
     7    4    5 1    
     8    4   85 1    
     9    5    6 1    
    10    5   80 1    
    11    5   86 1    
    12    6    7 1    
    13    6   87 1    
    14    6   88 1    
    15    7    8 1    
    16    8    9 1    
    17    8   89 1    
    18    8   90 1    
    19    9   10 ar   
    20    9   14 ar   
    21   10   11 ar   
    22   10   91 1    
    23   11   12 ar   
    24   11   58 1    
    25   12   13 ar   
    26   12   92 1    
    27   13   14 ar   
    28   13   15 1    
    29   14   93 1    
    30   15   16 1    
    31   15   94 1    
    32   15   95 1    
    33   16   17 1    
    34   17   18 1    
    35   17   96 1    
    36   17   97 1    
    37   18   19 1    
    38   18   22 1    
    39   18   98 1    
    40   19   20 am   BACKBONE|DICT|INTERRES
    41   19   21 2    
    42   20   99 1    
    43   20  100 1    
    44   22   23 am   BACKBONE|DICT|INTERRES
    45   22  101 1    
    46   23   24 2    
    47   23   25 1    
    48   25   26 1    
    49   25   27 1    
    50   25  102 1    
    51   26  103 1    
    52   26  104 1    
    53   26  105 1    
    54   27   28 am   BACKBONE|DICT|INTERRES
    55   27  106 1    
    56   28   29 2    
    57   28   30 1    
    58   30   31 1    
    59   30   32 1    
    60   30  107 1    
    61   31  108 1    
    62   31  109 1    
    63   31  110 1    
    64   32   33 am   BACKBONE|DICT|INTERRES
    65   32  111 1    
    66   33   34 2    
    67   33   35 1    
    68   35   36 1    
    69   35   37 1    
    70   35  112 1    
    71   36  113 1    
    72   36  114 1    
    73   36  115 1    
    74   37   38 am   BACKBONE|DICT|INTERRES
    75   37  116 1    
    76   38   39 2    
    77   38   40 1    
    78   40   41 1    
    79   40   42 1    
    80   40  117 1    
    81   41  118 1    
    82   41  119 1    
    83   41  120 1    
    84   42   43 am   BACKBONE|DICT|INTERRES
    85   42  121 1    
    86   43   44 2    
    87   43   45 1    
    88   45   46 1    
    89   45   47 1    
    90   45  122 1    
    91   46  123 1    
    92   46  124 1    
    93   46  125 1    
    94   47   48 am   BACKBONE|DICT|INTERRES
    95   47  126 1    
    96   48   49 2    
    97   48   50 1    
    98   50   51 1    
    99   50   52 1    
   100   50  127 1    
   101   51  128 1    
   102   51  129 1    
   103   51  130 1    
   104   52   53 am   BACKBONE|DICT|INTERRES
   105   52  131 1    
   106   53   54 2    
   107   53   55 1    
   108   55   56 1    
   109   55   59 1    
   110   55  132 1    
   111   56   57 1    
   112   56  133 1    
   113   56  134 1    
   114   57   58 1    
   115   58  135 1    
   116   58  136 1    
   117   59   60 am   BACKBONE|DICT|INTERRES
   118   59  137 1    
   119   60   61 2    
   120   60   62 1    
   121   62   63 1    
   122   62   64 1    
   123   62  138 1    
   124   63  139 1    
   125   63  140 1    
   126   63  141 1    
   127   64   65 am   BACKBONE|DICT|INTERRES
   128   64  142 1    
   129   65   66 2    
   130   65   67 1    
   131   67   68 1    
   132   67   69 1    
   133   67  143 1    
   134   68  144 1    
   135   68  145 1    
   136   68  146 1    
   137   69   70 am   BACKBONE|DICT|INTERRES
   138   69  147 1    
   139   70   71 2    
   140   70   72 1    
   141   72   73 1    
   142   72   74 1    
   143   72  148 1    
   144   73  149 1    
   145   73  150 1    
   146   73  151 1    
   147   74   75 am   BACKBONE|DICT|INTERRES
   148   74  152 1    
   149   75   76 2    
   150   75   77 1    
   151   77   78 1    
   152   77   79 1    
   153   77  153 1    
   154   78  154 1    
   155   78  155 1    
   156   78  156 1    
   157   79   80 am   BACKBONE|DICT|INTERRES
   158   79  157 1    
   159   80   81 2    
@<TRIPOS>SUBSTRUCTURE
     1 UNK         1 GROUP             0       ****    0 ROOT    
