@<TRIPOS>MOLECULE
3R207
157   159    1
SMALL
USER_CHARGES


@<TRIPOS>ATOM
      1 CA        -46.9179  -32.1830    5.2054 C.3       0 UNK        -0.1975 
      2 C         -47.5928  -30.9877    5.8638 C.2       0 UNK         0.4852 
      3 O         -47.2746  -30.6785    7.0123 O.2       0 UNK        -0.5216 
      4 N         -48.5178  -30.3429    5.1357 N.am      1 UNK        -0.4461 
      5 CA        -49.2950  -29.1429    5.4872 C.3       1 UNK         0.0864 
      6 C6        -50.0652  -29.2395    6.8300 C.3       14 UNK        -0.0898 
      7 S7        -51.3310  -30.5501    6.8537 S.3       14 UNK        -0.2598 
      8 C8        -52.8300  -29.6097    7.3054 C.3       14 UNK         0.0286 
      9 C9        -52.6946  -28.8365    8.6158 C.ar      14 UNK        -0.0844 
     10 C10       -53.0053  -27.4723    8.6594 C.ar      14 UNK        -0.0881 
     11 C11       -52.9182  -26.7565    9.8583 C.ar      14 UNK        -0.0643 
     12 C12       -52.5152  -27.4167   11.0213 C.ar      14 UNK        -0.0930 
     13 C13       -52.1988  -28.7770   10.9919 C.ar      14 UNK        -0.0827 
     14 C14       -52.2868  -29.4818    9.7880 C.ar      14 UNK        -0.1249 
     15 C15       -51.7741  -29.4789   12.2705 C.3       14 UNK         0.0141 
     16 S16       -53.1899  -29.7670   13.3792 S.3       14 UNK        -0.2313 
     17 C17       -54.0974  -31.0934   12.5119 C.3       14 UNK        -0.0915 
     18 CA        -55.2235  -30.5862   11.5681 C.3       13 UNK         0.0968 
     19 C         -55.9246  -31.7823   10.8603 C.2       13 UNK         0.5732 
     20 N         -57.2048  -32.0424   11.0994 N.am      13 UNK        -0.7310 
     21 O         -55.2942  -32.4871   10.0758 O.2       13 UNK        -0.5035 
     22 N         -56.1288  -29.6368   12.2363 N.am      13 UNK        -0.4233 
     23 C         -56.9472  -28.7885   11.5985 C.2       13 UNK         0.4989 
     24 O         -57.0704  -28.7426   10.3739 O.2       13 UNK        -0.4996 
     25 CA        -57.7840  -27.8267   12.4635 C.3       12 UNK         0.0216 
     26 CB        -59.2141  -28.3665   12.6334 C.3       12 UNK        -0.1964 
     27 N         -57.2134  -27.5488   13.7867 N.am      12 UNK        -0.4276 
     28 C         -56.0796  -26.8682   14.0013 C.2       12 UNK         0.5020 
     29 O         -55.3791  -26.4000   13.0998 O.2       12 UNK        -0.5489 
     30 CA        -55.6757  -26.6714   15.4697 C.3       11 UNK         0.0294 
     31 CB        -55.4044  -28.0094   16.1838 C.3       11 UNK        -0.2019 
     32 N         -54.4722  -25.8504   15.5227 N.am      11 UNK        -0.4493 
     33 C         -54.1730  -24.9396   16.4498 C.2       11 UNK         0.4932 
     34 O         -54.8792  -24.6994   17.4310 O.2       11 UNK        -0.5029 
     35 CA        -52.8387  -24.1984   16.2507 C.3       10 UNK         0.0280 
     36 CB        -52.7249  -22.9361   17.1254 C.3       10 UNK        -0.1976 
     37 N         -51.7015  -25.0764   16.5318 N.am      10 UNK        -0.4242 
     38 C         -51.2489  -26.0412   15.7207 C.2       10 UNK         0.5072 
     39 O         -51.7227  -26.2878   14.6098 O.2       10 UNK        -0.5224 
     40 CA        -50.0643  -26.8585   16.2437 C.3       9 UNK         0.0343 
     41 CB        -50.2549  -28.3675   16.0107 C.3       9 UNK        -0.2003 
     42 N         -48.8580  -26.4048   15.5610 N.am      9 UNK        -0.4272 
     43 C         -47.6802  -26.1736   16.1525 C.2       9 UNK         0.4988 
     44 O         -47.4674  -26.3514   17.3530 O.2       9 UNK        -0.5108 
     45 CA        -46.5399  -25.6513   15.2618 C.3       8 UNK         0.0248 
     46 CB        -45.8952  -26.8028   14.4733 C.3       8 UNK        -0.2001 
     47 N         -46.9632  -24.5917   14.3422 N.am      8 UNK        -0.4140 
     48 C         -47.3486  -23.3639   14.7232 C.2       8 UNK         0.5028 
     49 O         -47.3595  -22.9799   15.8935 O.2       8 UNK        -0.5428 
     50 CA        -47.7976  -22.3954   13.6157 C.3       7 UNK         0.0264 
     51 CB        -46.5845  -21.7371   12.9388 C.3       7 UNK        -0.1988 
     52 N         -48.6263  -23.0520   12.6054 N.am      7 UNK        -0.4454 
     53 C         -49.8793  -23.4828   12.8112 C.2       7 UNK         0.5027 
     54 O         -50.5114  -23.2568   13.8419 O.2       7 UNK        -0.5083 
     55 CA        -50.5308  -24.3109   11.6832 C.3       6 UNK         0.0844 
     56 C56       -51.3144  -23.3947   10.7101 C.3       14 UNK        -0.0967 
     57 S57       -51.9578  -24.2391    9.2223 S.3       14 UNK        -0.2604 
     58 C58       -53.2906  -25.2808    9.8970 C.3       14 UNK         0.0134 
     59 N         -49.5577  -25.1655   10.9989 N.am      6 UNK        -0.4116 
     60 C         -48.9104  -26.1956   11.5592 C.2       5 UNK         0.5034 
     61 O         -49.0592  -26.5587   12.7244 O.2       5 UNK        -0.5045 
     62 CA        -47.8755  -26.9082   10.6802 C.3       5 UNK         0.0224 
     63 CB        -48.5598  -27.9326    9.7684 C.3       5 UNK        -0.1978 
     64 N         -47.1036  -25.9598    9.8744 N.am      5 UNK        -0.4737 
     65 C         -46.1911  -25.1226   10.3893 C.2       4 UNK         0.5027 
     66 O         -45.8828  -25.1022   11.5805 O.2       4 UNK        -0.5211 
     67 CA        -45.5519  -24.1032    9.4298 C.3       4 UNK         0.0297 
     68 CB        -44.3479  -24.7254    8.7058 C.3       4 UNK        -0.1993 
     69 N         -46.4964  -23.5723    8.4438 N.am      4 UNK        -0.4486 
     70 C         -47.6101  -22.8902    8.7453 C.2       3 UNK         0.4961 
     71 O         -47.9239  -22.5730    9.8913 O.2       3 UNK        -0.5105 
     72 CA        -48.5568  -22.5237    7.5897 C.3       3 UNK         0.0299 
     73 CB        -48.3372  -21.0629    7.1663 C.3       3 UNK        -0.1972 
     74 N         -48.4697  -23.3898    6.4073 N.am      3 UNK        -0.4305 
     75 C         -48.6682  -24.7161    6.3869 C.2       2 UNK         0.5006 
     76 O         -48.8517  -25.3959    7.3995 O.2       2 UNK        -0.5106 
     77 CA        -48.6750  -25.3614    4.9884 C.3       2 UNK         0.0296 
     78 CB        -47.3237  -25.1914    4.2582 C.3       2 UNK        -0.2002 
     79 N         -49.1214  -26.7613    5.0134 N.am      2 UNK        -0.4032 
     80 C         -48.4545  -27.8471    5.4367 C.2       1 UNK         0.5000 
     81 O         -47.2695  -27.8466    5.7790 O.2       1 UNK        -0.5238 
     82 H82       -47.2923  -32.3624    4.1977 H         1 UNK         0.0889 
     83 H83       -47.0908  -33.0827    5.7955 H         1 UNK         0.0889 
     84 H84       -45.8426  -32.0180    5.1427 H         1 UNK         0.0889 
     85 H85       -48.6928  -30.6803    4.1996 H         1 UNK         0.3028 
     86 H86       -50.0402  -29.0593    4.6940 H         1 UNK         0.0864 
     87 H87       -49.3851  -29.4293    7.6573 H         1 UNK         0.0720 
     88 H88       -50.5428  -28.2845    7.0562 H         1 UNK         0.0720 
     89 H89       -53.6658  -30.3048    7.3958 H         1 UNK         0.0814 
     90 H90       -53.0780  -28.9372    6.4827 H         1 UNK         0.0814 
     91 H91       -53.3246  -26.9617    7.7613 H         1 UNK         0.1469 
     92 H92       -52.4653  -26.8827   11.9604 H         1 UNK         0.1381 
     93 H93       -52.0526  -30.5372    9.7639 H         1 UNK         0.1206 
     94 H94       -51.2720  -30.4230   12.0547 H         1 UNK         0.0813 
     95 H95       -51.0434  -28.8533   12.7843 H         1 UNK         0.0813 
     96 H96       -53.3791  -31.7005   11.9579 H         1 UNK         0.0638 
     97 H97       -54.5191  -31.7498   13.2750 H         1 UNK         0.0638 
     98 H98       -54.7460  -30.0273   10.7640 H         1 UNK         0.0568 
     99 H99       -57.6462  -32.8181   10.6317 H         1 UNK         0.3450 
    100 H100      -57.7320  -31.4702   11.7384 H         1 UNK         0.3450 
    101 H101      -56.0753  -29.6030   13.2422 H         1 UNK         0.2987 
    102 H102      -57.8408  -26.8793   11.9227 H         1 UNK         0.0766 
    103 H103      -59.6766  -28.5596   11.6642 H         1 UNK         0.0798 
    104 H104      -59.8500  -27.6504   13.1543 H         1 UNK         0.0798 
    105 H105      -59.2306  -29.3020   13.1941 H         1 UNK         0.0798 
    106 H106      -57.7355  -27.8856   14.5832 H         1 UNK         0.3198 
    107 H107      -56.4965  -26.1515   15.9687 H         1 UNK         0.0843 
    108 H108      -54.5907  -28.5588   15.7102 H         1 UNK         0.0831 
    109 H109      -56.2830  -28.6547   16.1822 H         1 UNK         0.0831 
    110 H110      -55.1297  -27.8489   17.2265 H         1 UNK         0.0831 
    111 H111      -53.8283  -25.9842   14.7468 H         1 UNK         0.3133 
    112 H112      -52.7902  -23.8824   15.2065 H         1 UNK         0.0566 
    113 H113      -51.8064  -22.3895   16.9100 H         1 UNK         0.0814 
    114 H114      -53.5565  -22.2558   16.9368 H         1 UNK         0.0814 
    115 H115      -52.7333  -23.1751   18.1896 H         1 UNK         0.0814 
    116 H116      -51.2566  -24.9541   17.4298 H         1 UNK         0.3091 
    117 H117      -49.9816  -26.6908   17.3198 H         1 UNK         0.0702 
    118 H118      -51.1971  -28.7145   16.4369 H         1 UNK         0.0785 
    119 H119      -50.2671  -28.6104   14.9487 H         1 UNK         0.0785 
    120 H120      -49.4532  -28.9424   16.4741 H         1 UNK         0.0785 
    121 H121      -48.9521  -26.2660   14.5550 H         1 UNK         0.2998 
    122 H122      -45.7765  -25.2295   15.9190 H         1 UNK         0.0697 
    123 H123      -46.5982  -27.2595   13.7765 H         1 UNK         0.0825 
    124 H124      -45.5454  -27.5878   15.1450 H         1 UNK         0.0825 
    125 H125      -45.0336  -26.4582   13.9011 H         1 UNK         0.0825 
    126 H126      -46.9197  -24.8049   13.3510 H         1 UNK         0.3029 
    127 H127      -48.3938  -21.6087   14.0833 H         1 UNK         0.0897 
    128 H128      -46.8962  -21.0056   12.1929 H         1 UNK         0.0792 
    129 H129      -45.9504  -22.4709   12.4406 H         1 UNK         0.0792 
    130 H130      -45.9667  -21.2135   13.6696 H         1 UNK         0.0792 
    131 H131      -48.2203  -23.1663   11.6798 H         1 UNK         0.3086 
    132 H132      -51.2502  -24.9739   12.1648 H         1 UNK         0.0583 
    133 H133      -52.1478  -22.9176   11.2296 H         1 UNK         0.1020 
    134 H134      -50.6768  -22.5795   10.3622 H         1 UNK         0.1020 
    135 H135      -53.5395  -24.9734   10.9142 H         1 UNK         0.0694 
    136 H136      -54.1934  -25.1219    9.3056 H         1 UNK         0.0694 
    137 H137      -49.3813  -24.9536   10.0268 H         1 UNK         0.2989 
    138 H138      -47.1859  -27.4428   11.3372 H         1 UNK         0.1055 
    139 H139      -49.0910  -28.6844   10.3537 H         1 UNK         0.0806 
    140 H140      -47.8323  -28.4552    9.1466 H         1 UNK         0.0806 
    141 H141      -49.2911  -27.4597    9.1118 H         1 UNK         0.0806 
    142 H142      -47.3610  -25.8732    8.8970 H         1 UNK         0.3061 
    143 H143      -45.1948  -23.2643   10.0309 H         1 UNK         0.0734 
    144 H144      -43.8309  -23.9902    8.0889 H         1 UNK         0.0832 
    145 H145      -43.6218  -25.1128    9.4220 H         1 UNK         0.0832 
    146 H146      -44.6461  -25.5553    8.0635 H         1 UNK         0.0832 
    147 H147      -46.3217  -23.7917    7.4743 H         1 UNK         0.3156 
    148 H148      -49.5743  -22.6137    7.9748 H         1 UNK         0.0589 
    149 H149      -47.3477  -20.9122    6.7329 H         1 UNK         0.0808 
    150 H150      -49.0790  -20.7443    6.4337 H         1 UNK         0.0808 
    151 H151      -48.4234  -20.3912    8.0219 H         1 UNK         0.0808 
    152 H152      -48.3221  -22.9184    5.5263 H         1 UNK         0.3098 
    153 H153      -49.4315  -24.8309    4.4078 H         1 UNK         0.0720 
    154 H154      -47.1225  -24.1433    4.0354 H         1 UNK         0.0791 
    155 H155      -47.3165  -25.7255    3.3079 H         1 UNK         0.0791 
    156 H156      -46.4869  -25.5577    4.8538 H         1 UNK         0.0791 
    157 H157      -50.0970  -26.8840    4.7806 H         1 UNK         0.3028 
@<TRIPOS>BOND
     1    1    2 1    
     2    1   82 1    
     3    1   83 1    
     4    1   84 1    
     5    2    3 2    
     6    2    4 am   BACKBONE|DICT|INTERRES
     7    4    5 1    
     8    4   85 1    
     9    5    6 1    
    10    5   80 1    
    11    5   86 1    
    12    6    7 1    
    13    6   87 1    
    14    6   88 1    
    15    7    8 1    
    16    8    9 1    
    17    8   89 1    
    18    8   90 1    
    19    9   10 ar   
    20    9   14 ar   
    21   10   11 ar   
    22   10   91 1    
    23   11   12 ar   
    24   11   58 1    
    25   12   13 ar   
    26   12   92 1    
    27   13   14 ar   
    28   13   15 1    
    29   14   93 1    
    30   15   16 1    
    31   15   94 1    
    32   15   95 1    
    33   16   17 1    
    34   17   18 1    
    35   17   96 1    
    36   17   97 1    
    37   18   19 1    
    38   18   22 1    
    39   18   98 1    
    40   19   20 am   BACKBONE|DICT|INTERRES
    41   19   21 2    
    42   20   99 1    
    43   20  100 1    
    44   22   23 am   BACKBONE|DICT|INTERRES
    45   22  101 1    
    46   23   24 2    
    47   23   25 1    
    48   25   26 1    
    49   25   27 1    
    50   25  102 1    
    51   26  103 1    
    52   26  104 1    
    53   26  105 1    
    54   27   28 am   BACKBONE|DICT|INTERRES
    55   27  106 1    
    56   28   29 2    
    57   28   30 1    
    58   30   31 1    
    59   30   32 1    
    60   30  107 1    
    61   31  108 1    
    62   31  109 1    
    63   31  110 1    
    64   32   33 am   BACKBONE|DICT|INTERRES
    65   32  111 1    
    66   33   34 2    
    67   33   35 1    
    68   35   36 1    
    69   35   37 1    
    70   35  112 1    
    71   36  113 1    
    72   36  114 1    
    73   36  115 1    
    74   37   38 am   BACKBONE|DICT|INTERRES
    75   37  116 1    
    76   38   39 2    
    77   38   40 1    
    78   40   41 1    
    79   40   42 1    
    80   40  117 1    
    81   41  118 1    
    82   41  119 1    
    83   41  120 1    
    84   42   43 am   BACKBONE|DICT|INTERRES
    85   42  121 1    
    86   43   44 2    
    87   43   45 1    
    88   45   46 1    
    89   45   47 1    
    90   45  122 1    
    91   46  123 1    
    92   46  124 1    
    93   46  125 1    
    94   47   48 am   BACKBONE|DICT|INTERRES
    95   47  126 1    
    96   48   49 2    
    97   48   50 1    
    98   50   51 1    
    99   50   52 1    
   100   50  127 1    
   101   51  128 1    
   102   51  129 1    
   103   51  130 1    
   104   52   53 am   BACKBONE|DICT|INTERRES
   105   52  131 1    
   106   53   54 2    
   107   53   55 1    
   108   55   56 1    
   109   55   59 1    
   110   55  132 1    
   111   56   57 1    
   112   56  133 1    
   113   56  134 1    
   114   57   58 1    
   115   58  135 1    
   116   58  136 1    
   117   59   60 am   BACKBONE|DICT|INTERRES
   118   59  137 1    
   119   60   61 2    
   120   60   62 1    
   121   62   63 1    
   122   62   64 1    
   123   62  138 1    
   124   63  139 1    
   125   63  140 1    
   126   63  141 1    
   127   64   65 am   BACKBONE|DICT|INTERRES
   128   64  142 1    
   129   65   66 2    
   130   65   67 1    
   131   67   68 1    
   132   67   69 1    
   133   67  143 1    
   134   68  144 1    
   135   68  145 1    
   136   68  146 1    
   137   69   70 am   BACKBONE|DICT|INTERRES
   138   69  147 1    
   139   70   71 2    
   140   70   72 1    
   141   72   73 1    
   142   72   74 1    
   143   72  148 1    
   144   73  149 1    
   145   73  150 1    
   146   73  151 1    
   147   74   75 am   BACKBONE|DICT|INTERRES
   148   74  152 1    
   149   75   76 2    
   150   75   77 1    
   151   77   78 1    
   152   77   79 1    
   153   77  153 1    
   154   78  154 1    
   155   78  155 1    
   156   78  156 1    
   157   79   80 am   BACKBONE|DICT|INTERRES
   158   79  157 1    
   159   80   81 2    
@<TRIPOS>SUBSTRUCTURE
     1 UNK         1 GROUP             0       ****    0 ROOT    
