@<TRIPOS>MOLECULE
3R207
157   159    1
SMALL
USER_CHARGES


@<TRIPOS>ATOM
      1 CA        -47.4370  -30.4166    6.9149 C.3       0 UNK        -0.1975 
      2 C         -47.7938  -28.9606    6.6621 C.2       0 UNK         0.4852 
      3 O         -47.3597  -28.0849    7.4105 O.2       0 UNK        -0.5216 
      4 N         -48.5672  -28.6826    5.6031 N.am      1 UNK        -0.4461 
      5 CA        -49.0316  -27.3412    5.2177 C.3       1 UNK         0.0864 
      6 C6        -50.0416  -26.7594    6.2496 C.3       14 UNK        -0.0898 
      7 S7        -51.3700  -25.8025    5.4526 S.3       14 UNK        -0.2598 
      8 C8        -52.7672  -26.9663    5.5744 C.3       14 UNK         0.0286 
      9 C9        -53.3517  -27.0079    6.9801 C.ar      14 UNK        -0.0844 
     10 C10       -54.1091  -25.9307    7.4440 C.ar      14 UNK        -0.0881 
     11 C11       -54.6660  -25.9513    8.7252 C.ar      14 UNK        -0.0643 
     12 C12       -54.4870  -27.0754    9.5353 C.ar      14 UNK        -0.0930 
     13 C13       -53.7184  -28.1575    9.0907 C.ar      14 UNK        -0.0827 
     14 C14       -53.1547  -28.1167    7.8099 C.ar      14 UNK        -0.1249 
     15 C15       -53.5301  -29.3934    9.9633 C.3       14 UNK         0.0141 
     16 S16       -53.1164  -29.0054   11.6974 S.3       14 UNK        -0.2313 
     17 C17       -53.1423  -30.6854   12.4080 C.3       14 UNK        -0.0915 
     18 CA        -54.5670  -31.1145   12.8696 C.3       13 UNK         0.0968 
     19 C         -54.6805  -32.6404   13.1775 C.2       13 UNK         0.5732 
     20 N         -55.5754  -33.0689   14.0600 N.am      13 UNK        -0.7310 
     21 O         -53.9791  -33.4566   12.5838 O.2       13 UNK        -0.5035 
     22 N         -55.1191  -30.2239   13.9065 N.am      13 UNK        -0.4233 
     23 C         -54.7005  -30.1175   15.1735 C.2       13 UNK         0.4989 
     24 O         -53.7909  -30.7914   15.6596 O.2       13 UNK        -0.4996 
     25 CA        -55.4264  -29.0649   16.0315 C.3       12 UNK         0.0216 
     26 CB        -55.0782  -29.1731   17.5275 C.3       12 UNK        -0.1964 
     27 N         -55.1381  -27.7075   15.5585 N.am      12 UNK        -0.4276 
     28 C         -55.7346  -27.1244   14.5079 C.2       12 UNK         0.5020 
     29 O         -56.5938  -27.6971   13.8337 O.2       12 UNK        -0.5489 
     30 CA        -55.3094  -25.6993   14.0963 C.3       11 UNK         0.0294 
     31 CB        -56.5210  -24.7506   13.9987 C.3       11 UNK        -0.2019 
     32 N         -54.2351  -25.0961   14.8942 N.am      11 UNK        -0.4493 
     33 C         -54.2331  -24.7339   16.1839 C.2       11 UNK         0.4932 
     34 O         -55.1996  -24.8467   16.9388 O.2       11 UNK        -0.5029 
     35 CA        -52.8771  -24.2178   16.7113 C.3       10 UNK         0.0280 
     36 CB        -52.8862  -23.9223   18.2260 C.3       10 UNK        -0.1976 
     37 N         -51.7770  -25.1297   16.3583 N.am      10 UNK        -0.4242 
     38 C         -51.6865  -26.4317   16.6757 C.2       10 UNK         0.5072 
     39 O         -52.4970  -27.0094   17.3988 O.2       10 UNK        -0.5224 
     40 CA        -50.5447  -27.2576   16.0591 C.3       9 UNK         0.0343 
     41 CB        -51.1224  -28.3700   15.1669 C.3       9 UNK        -0.2003 
     42 N         -49.6065  -26.4568   15.2693 N.am      9 UNK        -0.4272 
     43 C         -48.4935  -25.8939   15.7589 C.2       9 UNK         0.4988 
     44 O         -48.1504  -25.9667   16.9395 O.2       9 UNK        -0.5108 
     45 CA        -47.6113  -25.1143   14.7682 C.3       8 UNK         0.0248 
     46 CB        -46.7562  -26.0753   13.9275 C.3       8 UNK        -0.2001 
     47 N         -48.3695  -24.2275   13.8828 N.am      8 UNK        -0.4140 
     48 C         -49.0767  -23.1652   14.2946 C.2       8 UNK         0.5028 
     49 O         -49.1985  -22.8307   15.4732 O.2       8 UNK        -0.5428 
     50 CA        -49.7836  -22.3449   13.2069 C.3       7 UNK         0.0264 
     51 CB        -48.8010  -21.3830   12.5188 C.3       7 UNK        -0.1988 
     52 N         -50.4162  -23.2031   12.2068 N.am      7 UNK        -0.4454 
     53 C         -51.5416  -23.8978   12.4233 C.2       7 UNK         0.5027 
     54 O         -52.1646  -23.8733   13.4835 O.2       7 UNK        -0.5083 
     55 CA        -52.0377  -24.7946   11.2713 C.3       6 UNK         0.0844 
     56 C56       -52.8325  -23.9567   10.2319 C.3       14 UNK        -0.0967 
     57 S57       -54.6135  -23.9191   10.6531 S.3       14 UNK        -0.2604 
     58 C58       -55.4282  -24.7374    9.2377 C.3       14 UNK         0.0134 
     59 N         -50.9566  -25.5850   10.6724 N.am      6 UNK        -0.4116 
     60 C         -50.1878  -26.4519   11.3514 C.2       5 UNK         0.5034 
     61 O         -50.3166  -26.6935   12.5500 O.2       5 UNK        -0.5045 
     62 CA        -49.0312  -27.1200   10.5903 C.3       5 UNK         0.0224 
     63 CB        -49.5280  -28.4042    9.9091 C.3       5 UNK        -0.1978 
     64 N         -48.3442  -26.2549    9.6196 N.am      5 UNK        -0.4737 
     65 C         -47.8803  -25.0183    9.8689 C.2       4 UNK         0.5027 
     66 O         -47.9834  -24.4572   10.9625 O.2       4 UNK        -0.5211 
     67 CA        -47.2255  -24.2791    8.6885 C.3       4 UNK         0.0297 
     68 CB        -46.6202  -22.9162    9.0882 C.3       4 UNK        -0.1993 
     69 N         -46.2484  -25.1060    7.9760 N.am      4 UNK        -0.4486 
     70 C         -45.1045  -25.6219    8.4567 C.2       3 UNK         0.4961 
     71 O         -44.6918  -25.4271    9.6005 O.2       3 UNK        -0.5105 
     72 CA        -44.2675  -26.5078    7.5114 C.3       3 UNK         0.0299 
     73 CB        -43.9917  -27.8836    8.1448 C.3       3 UNK        -0.1972 
     74 N         -44.9165  -26.7069    6.2135 N.am      3 UNK        -0.4305 
     75 C         -44.7026  -25.9628    5.1185 C.2       2 UNK         0.5006 
     76 O         -43.8653  -25.0620    5.0578 O.2       2 UNK        -0.5106 
     77 CA        -45.5753  -26.2538    3.8798 C.3       2 UNK         0.0296 
     78 CB        -44.7917  -27.0961    2.8597 C.3       2 UNK        -0.2002 
     79 N         -46.8442  -26.9257    4.1829 N.am      2 UNK        -0.4032 
     80 C         -47.8475  -26.3941    4.8987 C.2       1 UNK         0.5000 
     81 O         -47.8126  -25.2494    5.3549 O.2       1 UNK        -0.5238 
     82 H82       -47.8467  -31.0759    6.1500 H         1 UNK         0.0889 
     83 H83       -47.8256  -30.7344    7.8817 H         1 UNK         0.0889 
     84 H84       -46.3545  -30.5395    6.9262 H         1 UNK         0.0889 
     85 H85       -48.8898  -29.4401    5.0159 H         1 UNK         0.3028 
     86 H86       -49.5538  -27.4874    4.2706 H         1 UNK         0.0864 
     87 H87       -50.5055  -27.5681    6.8134 H         1 UNK         0.0720 
     88 H88       -49.5537  -26.1390    7.0020 H         1 UNK         0.0720 
     89 H89       -53.5442  -26.6559    4.8743 H         1 UNK         0.0814 
     90 H90       -52.4488  -27.9590    5.2520 H         1 UNK         0.0814 
     91 H91       -54.2473  -25.0662    6.8087 H         1 UNK         0.1469 
     92 H92       -54.9281  -27.0940   10.5226 H         1 UNK         0.1381 
     93 H93       -52.5720  -28.9547    7.4523 H         1 UNK         0.1206 
     94 H94       -52.7427  -30.0297    9.5561 H         1 UNK         0.0813 
     95 H95       -54.4507  -29.9768    9.9323 H         1 UNK         0.0813 
     96 H96       -52.4430  -30.7167   13.2448 H         1 UNK         0.0638 
     97 H97       -52.7443  -31.3730   11.6599 H         1 UNK         0.0638 
     98 H98       -55.2287  -30.9840   12.0135 H         1 UNK         0.0568 
     99 H99       -56.1680  -32.4160   14.5464 H         1 UNK         0.3450 
    100 H100      -55.6515  -34.0565   14.2449 H         1 UNK         0.3450 
    101 H101      -55.8451  -29.5828   13.6035 H         1 UNK         0.2987 
    102 H102      -56.4990  -29.2489   15.9376 H         1 UNK         0.0766 
    103 H103      -55.5887  -28.4078   18.1123 H         1 UNK         0.0798 
    104 H104      -54.0077  -29.0726   17.7058 H         1 UNK         0.0798 
    105 H105      -55.3803  -30.1424   17.9258 H         1 UNK         0.0798 
    106 H106      -54.4270  -27.1944   16.0650 H         1 UNK         0.3198 
    107 H107      -54.8968  -25.8027   13.0917 H         1 UNK         0.0843 
    108 H108      -56.2228  -23.7643   13.6431 H         1 UNK         0.0831 
    109 H109      -57.0197  -24.6273   14.9603 H         1 UNK         0.0831 
    110 H110      -57.2620  -25.1340   13.2961 H         1 UNK         0.0831 
    111 H111      -53.3884  -24.8726   14.3716 H         1 UNK         0.3133 
    112 H112      -52.6783  -23.2784   16.1932 H         1 UNK         0.0566 
    113 H113      -51.9221  -23.5391   18.5600 H         1 UNK         0.0814 
    114 H114      -53.6369  -23.1699   18.4706 H         1 UNK         0.0814 
    115 H115      -53.1157  -24.8115   18.8139 H         1 UNK         0.0814 
    116 H116      -51.0721  -24.7466   15.7427 H         1 UNK         0.3091 
    117 H117      -50.0092  -27.7359   16.8818 H         1 UNK         0.0702 
    118 H118      -51.7118  -29.0726   15.7564 H         1 UNK         0.0785 
    119 H119      -50.3346  -28.9420   14.6766 H         1 UNK         0.0785 
    120 H120      -51.7773  -27.9697   14.3917 H         1 UNK         0.0785 
    121 H121      -49.8092  -26.3857   14.2726 H         1 UNK         0.2998 
    122 H122      -46.9346  -24.4869   15.3522 H         1 UNK         0.0697 
    123 H123      -47.3741  -26.7581   13.3458 H         1 UNK         0.0825 
    124 H124      -46.1132  -26.6830   14.5654 H         1 UNK         0.0825 
    125 H125      -46.1107  -25.5347   13.2346 H         1 UNK         0.0825 
    126 H126      -48.3048  -24.4053   12.8832 H         1 UNK         0.3029 
    127 H127      -50.5603  -21.7475   13.6904 H         1 UNK         0.0897 
    128 H128      -49.3059  -20.7628   11.7781 H         1 UNK         0.0792 
    129 H129      -48.3429  -20.7108   13.2456 H         1 UNK         0.0792 
    130 H130      -47.9935  -21.9164   12.0158 H         1 UNK         0.0792 
    131 H131      -49.8993  -23.3590   11.3511 H         1 UNK         0.3086 
    132 H132      -52.7095  -25.5353   11.7117 H         1 UNK         0.0583 
    133 H133      -52.4691  -22.9289   10.1637 H         1 UNK         0.1020 
    134 H134      -52.6949  -24.3553    9.2283 H         1 UNK         0.1020 
    135 H135      -56.4319  -25.0427    9.5365 H         1 UNK         0.0694 
    136 H136      -55.5574  -24.0009    8.4431 H         1 UNK         0.0694 
    137 H137      -50.7752  -25.4515    9.6894 H         1 UNK         0.2989 
    138 H138      -48.2866  -27.4077   11.3332 H         1 UNK         0.1055 
    139 H139      -50.0793  -29.0317   10.6114 H         1 UNK         0.0806 
    140 H140      -48.6959  -29.0015    9.5398 H         1 UNK         0.0806 
    141 H141      -50.1958  -28.1900    9.0752 H         1 UNK         0.0806 
    142 H142      -48.1239  -26.6791    8.7234 H         1 UNK         0.3061 
    143 H143      -48.0273  -24.0809    7.9755 H         1 UNK         0.0734 
    144 H144      -46.1750  -22.4123    8.2305 H         1 UNK         0.0832 
    145 H145      -47.3870  -22.2533    9.4905 H         1 UNK         0.0832 
    146 H146      -45.8510  -23.0213    9.8539 H         1 UNK         0.0832 
    147 H147      -46.5074  -25.3352    7.0229 H         1 UNK         0.3156 
    148 H148      -43.3073  -26.0081    7.3688 H         1 UNK         0.0589 
    149 H149      -44.9141  -28.4151    8.3801 H         1 UNK         0.0808 
    150 H150      -43.3993  -28.5148    7.4823 H         1 UNK         0.0808 
    151 H151      -43.4324  -27.7802    9.0755 H         1 UNK         0.0808 
    152 H152      -45.6602  -27.3934    6.2028 H         1 UNK         0.3098 
    153 H153      -45.8116  -25.2922    3.4192 H         1 UNK         0.0720 
    154 H154      -45.3597  -27.2365    1.9397 H         1 UNK         0.0791 
    155 H155      -44.5416  -28.0813    3.2556 H         1 UNK         0.0791 
    156 H156      -43.8550  -26.6076    2.5871 H         1 UNK         0.0791 
    157 H157      -46.9410  -27.8777    3.8592 H         1 UNK         0.3028 
@<TRIPOS>BOND
     1    1    2 1    
     2    1   82 1    
     3    1   83 1    
     4    1   84 1    
     5    2    3 2    
     6    2    4 am   BACKBONE|DICT|INTERRES
     7    4    5 1    
     8    4   85 1    
     9    5    6 1    
    10    5   80 1    
    11    5   86 1    
    12    6    7 1    
    13    6   87 1    
    14    6   88 1    
    15    7    8 1    
    16    8    9 1    
    17    8   89 1    
    18    8   90 1    
    19    9   10 ar   
    20    9   14 ar   
    21   10   11 ar   
    22   10   91 1    
    23   11   12 ar   
    24   11   58 1    
    25   12   13 ar   
    26   12   92 1    
    27   13   14 ar   
    28   13   15 1    
    29   14   93 1    
    30   15   16 1    
    31   15   94 1    
    32   15   95 1    
    33   16   17 1    
    34   17   18 1    
    35   17   96 1    
    36   17   97 1    
    37   18   19 1    
    38   18   22 1    
    39   18   98 1    
    40   19   20 am   BACKBONE|DICT|INTERRES
    41   19   21 2    
    42   20   99 1    
    43   20  100 1    
    44   22   23 am   BACKBONE|DICT|INTERRES
    45   22  101 1    
    46   23   24 2    
    47   23   25 1    
    48   25   26 1    
    49   25   27 1    
    50   25  102 1    
    51   26  103 1    
    52   26  104 1    
    53   26  105 1    
    54   27   28 am   BACKBONE|DICT|INTERRES
    55   27  106 1    
    56   28   29 2    
    57   28   30 1    
    58   30   31 1    
    59   30   32 1    
    60   30  107 1    
    61   31  108 1    
    62   31  109 1    
    63   31  110 1    
    64   32   33 am   BACKBONE|DICT|INTERRES
    65   32  111 1    
    66   33   34 2    
    67   33   35 1    
    68   35   36 1    
    69   35   37 1    
    70   35  112 1    
    71   36  113 1    
    72   36  114 1    
    73   36  115 1    
    74   37   38 am   BACKBONE|DICT|INTERRES
    75   37  116 1    
    76   38   39 2    
    77   38   40 1    
    78   40   41 1    
    79   40   42 1    
    80   40  117 1    
    81   41  118 1    
    82   41  119 1    
    83   41  120 1    
    84   42   43 am   BACKBONE|DICT|INTERRES
    85   42  121 1    
    86   43   44 2    
    87   43   45 1    
    88   45   46 1    
    89   45   47 1    
    90   45  122 1    
    91   46  123 1    
    92   46  124 1    
    93   46  125 1    
    94   47   48 am   BACKBONE|DICT|INTERRES
    95   47  126 1    
    96   48   49 2    
    97   48   50 1    
    98   50   51 1    
    99   50   52 1    
   100   50  127 1    
   101   51  128 1    
   102   51  129 1    
   103   51  130 1    
   104   52   53 am   BACKBONE|DICT|INTERRES
   105   52  131 1    
   106   53   54 2    
   107   53   55 1    
   108   55   56 1    
   109   55   59 1    
   110   55  132 1    
   111   56   57 1    
   112   56  133 1    
   113   56  134 1    
   114   57   58 1    
   115   58  135 1    
   116   58  136 1    
   117   59   60 am   BACKBONE|DICT|INTERRES
   118   59  137 1    
   119   60   61 2    
   120   60   62 1    
   121   62   63 1    
   122   62   64 1    
   123   62  138 1    
   124   63  139 1    
   125   63  140 1    
   126   63  141 1    
   127   64   65 am   BACKBONE|DICT|INTERRES
   128   64  142 1    
   129   65   66 2    
   130   65   67 1    
   131   67   68 1    
   132   67   69 1    
   133   67  143 1    
   134   68  144 1    
   135   68  145 1    
   136   68  146 1    
   137   69   70 am   BACKBONE|DICT|INTERRES
   138   69  147 1    
   139   70   71 2    
   140   70   72 1    
   141   72   73 1    
   142   72   74 1    
   143   72  148 1    
   144   73  149 1    
   145   73  150 1    
   146   73  151 1    
   147   74   75 am   BACKBONE|DICT|INTERRES
   148   74  152 1    
   149   75   76 2    
   150   75   77 1    
   151   77   78 1    
   152   77   79 1    
   153   77  153 1    
   154   78  154 1    
   155   78  155 1    
   156   78  156 1    
   157   79   80 am   BACKBONE|DICT|INTERRES
   158   79  157 1    
   159   80   81 2    
@<TRIPOS>SUBSTRUCTURE
     1 UNK         1 GROUP             0       ****    0 ROOT    
