@<TRIPOS>MOLECULE
3R207
157   159    1
SMALL
USER_CHARGES


@<TRIPOS>ATOM
      1 CA        -51.6819  -29.1863    9.3609 C.3       0 UNK        -0.1975 
      2 C         -50.9827  -29.4779    8.0423 C.2       0 UNK         0.4852 
      3 O         -50.0416  -30.2714    8.0157 O.2       0 UNK        -0.5216 
      4 N         -51.4292  -28.8450    6.9479 N.am      1 UNK        -0.4461 
      5 CA        -50.8802  -29.0205    5.5937 C.3       1 UNK         0.0864 
      6 C6        -51.8374  -28.4818    4.4993 C.3       14 UNK        -0.0898 
      7 S7        -53.4247  -29.3782    4.4319 S.3       14 UNK        -0.2598 
      8 C8        -54.6307  -28.0422    4.7089 C.3       14 UNK         0.0286 
      9 C9        -54.6928  -27.6464    6.1748 C.ar      14 UNK        -0.0844 
     10 C10       -53.9975  -26.5256    6.6406 C.ar      14 UNK        -0.0881 
     11 C11       -54.0334  -26.1878    7.9964 C.ar      14 UNK        -0.0643 
     12 C12       -54.7828  -26.9657    8.8818 C.ar      14 UNK        -0.0930 
     13 C13       -55.4880  -28.0802    8.4251 C.ar      14 UNK        -0.0827 
     14 C14       -55.4437  -28.4146    7.0697 C.ar      14 UNK        -0.1249 
     15 C15       -56.2753  -28.9312    9.4053 C.3       14 UNK         0.0141 
     16 S16       -55.3130  -30.3896    9.9013 S.3       14 UNK        -0.2313 
     17 C17       -56.2631  -30.9528   11.3546 C.3       14 UNK        -0.0915 
     18 CA        -55.3861  -31.6578   12.4217 C.3       13 UNK         0.0968 
     19 C         -54.9416  -33.0786   11.9597 C.2       13 UNK         0.5732 
     20 N         -53.6575  -33.3396   11.7433 N.am      13 UNK        -0.7310 
     21 O         -55.7805  -33.9640   11.8087 O.2       13 UNK        -0.5035 
     22 N         -54.3053  -30.7812   12.9035 N.am      13 UNK        -0.4233 
     23 C         -53.5948  -30.9801   14.0183 C.2       13 UNK         0.4989 
     24 O         -53.8231  -31.8834   14.8235 O.2       13 UNK        -0.4996 
     25 CA        -52.4240  -30.0207   14.2871 C.3       12 UNK         0.0216 
     26 CB        -51.2442  -30.3025   13.3325 C.3       12 UNK        -0.1964 
     27 N         -52.7907  -28.5969   14.3034 N.am      12 UNK        -0.4276 
     28 C         -53.1754  -27.8120   13.2867 C.2       12 UNK         0.5020 
     29 O         -53.3551  -28.2126   12.1368 O.2       12 UNK        -0.5489 
     30 CA        -53.4104  -26.3344   13.6389 C.3       11 UNK         0.0294 
     31 CB        -54.0985  -25.5406   12.5143 C.3       11 UNK        -0.2019 
     32 N         -54.2006  -26.2372   14.8695 N.am      11 UNK        -0.4493 
     33 C         -54.0572  -25.3926   15.9020 C.2       11 UNK         0.4932 
     34 O         -54.8468  -25.4189   16.8456 O.2       11 UNK        -0.5029 
     35 CA        -52.8823  -24.3832   15.9276 C.3       10 UNK         0.0280 
     36 CB        -53.0079  -23.3537   17.0704 C.3       10 UNK        -0.1976 
     37 N         -51.5565  -25.0177   15.9793 N.am      10 UNK        -0.4242 
     38 C         -51.1339  -25.9581   16.8395 C.2       10 UNK         0.5072 
     39 O         -51.8124  -26.4068   17.7636 O.2       10 UNK        -0.5224 
     40 CA        -49.7231  -26.5293   16.6308 C.3       9 UNK         0.0343 
     41 CB        -49.7872  -27.8378   15.8302 C.3       9 UNK        -0.2003 
     42 N         -48.8040  -25.6057   15.9628 N.am      9 UNK        -0.4272 
     43 C         -48.0722  -24.6932   16.6161 C.2       9 UNK         0.4988 
     44 O         -48.1808  -24.4608   17.8210 O.2       9 UNK        -0.5108 
     45 CA        -47.0059  -23.9439   15.8030 C.3       8 UNK         0.0248 
     46 CB        -45.8275  -24.8748   15.4719 C.3       8 UNK        -0.2001 
     47 N         -47.5290  -23.3453   14.5746 N.am      8 UNK        -0.4140 
     48 C         -48.3472  -22.2836   14.5476 C.2       8 UNK         0.5028 
     49 O         -48.7558  -21.7055   15.5557 O.2       8 UNK        -0.5428 
     50 CA        -48.7784  -21.7654   13.1651 C.3       7 UNK         0.0264 
     51 CB        -47.6775  -20.8862   12.5503 C.3       7 UNK        -0.1988 
     52 N         -49.1391  -22.8311   12.2276 N.am      7 UNK        -0.4454 
     53 C         -50.1732  -23.6682   12.3974 C.2       7 UNK         0.5027 
     54 O         -50.9357  -23.6261   13.3620 O.2       7 UNK        -0.5083 
     55 CA        -50.3692  -24.7695   11.3384 C.3       6 UNK         0.0844 
     56 C56       -51.0035  -24.1942   10.0489 C.3       14 UNK        -0.0967 
     57 S57       -51.5455  -25.5210    8.9223 S.3       14 UNK        -0.2604 
     58 C58       -53.2399  -25.0049    8.5196 C.3       14 UNK         0.0134 
     59 N         -49.1245  -25.4944   11.0759 N.am      6 UNK        -0.4116 
     60 C         -48.3974  -26.1455   11.9951 C.2       5 UNK         0.5034 
     61 O         -48.7114  -26.2563   13.1799 O.2       5 UNK        -0.5045 
     62 CA        -47.0549  -26.7166   11.5221 C.3       5 UNK         0.0224 
     63 CB        -47.2580  -28.0354   10.7580 C.3       5 UNK        -0.1978 
     64 N         -46.3201  -25.7558   10.6946 N.am      5 UNK        -0.4737 
     65 C         -45.8066  -24.6051   11.1544 C.2       4 UNK         0.5027 
     66 O         -45.8706  -24.2483   12.3297 O.2       4 UNK        -0.5211 
     67 CA        -45.1450  -23.6770   10.1234 C.3       4 UNK         0.0297 
     68 CB        -43.7117  -24.1393    9.8173 C.3       4 UNK        -0.1993 
     69 N         -45.9101  -23.5787    8.8790 N.am      4 UNK        -0.4486 
     70 C         -47.1343  -23.0411    8.7846 C.2       3 UNK         0.4961 
     71 O         -47.7432  -22.5424    9.7305 O.2       3 UNK        -0.5105 
     72 CA        -47.8154  -23.1147    7.4082 C.3       3 UNK         0.0299 
     73 CB        -47.3579  -21.9493    6.5168 C.3       3 UNK        -0.1972 
     74 N         -47.6143  -24.3868    6.7032 N.am      3 UNK        -0.4305 
     75 C         -47.9392  -25.5914    7.1917 C.2       2 UNK         0.5006 
     76 O         -48.3423  -25.7878    8.3387 O.2       2 UNK        -0.5106 
     77 CA        -47.7853  -26.7884    6.2570 C.3       2 UNK         0.0296 
     78 CB        -46.5885  -27.6645    6.6714 C.3       2 UNK        -0.2002 
     79 N         -49.0313  -27.5438    6.3270 N.am      2 UNK        -0.4032 
     80 C         -49.4724  -28.4071    5.4047 C.2       1 UNK         0.5000 
     81 O         -48.8199  -28.7148    4.4045 O.2       1 UNK        -0.5238 
     82 H82       -52.5412  -28.5312    9.2307 H         1 UNK         0.0889 
     83 H83       -50.9957  -28.7034   10.0564 H         1 UNK         0.0889 
     84 H84       -52.0365  -30.1114    9.8140 H         1 UNK         0.0889 
     85 H85       -52.2286  -28.2292    7.0225 H         1 UNK         0.3028 
     86 H86       -50.7622  -30.0940    5.4297 H         1 UNK         0.0864 
     87 H87       -52.0110  -27.4135    4.6352 H         1 UNK         0.0720 
     88 H88       -51.3857  -28.5846    3.5104 H         1 UNK         0.0720 
     89 H89       -54.3888  -27.1839    4.0800 H         1 UNK         0.0814 
     90 H90       -55.6145  -28.3853    4.3848 H         1 UNK         0.0814 
     91 H91       -53.4141  -25.9251    5.9560 H         1 UNK         0.1469 
     92 H92       -54.7962  -26.7215    9.9344 H         1 UNK         0.1381 
     93 H93       -55.9766  -29.2866    6.7151 H         1 UNK         0.1206 
     94 H94       -56.5321  -28.3406   10.2860 H         1 UNK         0.0813 
     95 H95       -57.2174  -29.2505    8.9575 H         1 UNK         0.0813 
     96 H96       -57.0710  -31.6040   11.0159 H         1 UNK         0.0638 
     97 H97       -56.7511  -30.0927   11.8149 H         1 UNK         0.0638 
     98 H98       -56.0349  -31.8366   13.2812 H         1 UNK         0.0568 
     99 H99       -53.3845  -34.2641   11.4505 H         1 UNK         0.3450 
    100 H100      -52.9657  -32.6175   11.8542 H         1 UNK         0.3450 
    101 H101      -54.0580  -29.9897   12.3138 H         1 UNK         0.2987 
    102 H102      -52.0747  -30.2404   15.2974 H         1 UNK         0.0766 
    103 H103      -50.3746  -29.6942   13.5778 H         1 UNK         0.0798 
    104 H104      -51.5007  -30.1071   12.2916 H         1 UNK         0.0798 
    105 H105      -50.9332  -31.3460   13.3974 H         1 UNK         0.0798 
    106 H106      -52.7557  -28.1648   15.2165 H         1 UNK         0.3198 
    107 H107      -52.4156  -25.9154   13.7714 H         1 UNK         0.0843 
    108 H108      -53.5174  -25.5941   11.5940 H         1 UNK         0.0831 
    109 H109      -54.1944  -24.4860   12.7721 H         1 UNK         0.0831 
    110 H110      -55.0947  -25.9283   12.2993 H         1 UNK         0.0831 
    111 H111      -54.9701  -26.8910   14.9192 H         1 UNK         0.3133 
    112 H112      -52.9369  -23.8267   14.9922 H         1 UNK         0.0566 
    113 H113      -52.2163  -22.6061   17.0158 H         1 UNK         0.0814 
    114 H114      -53.9590  -22.8226   17.0165 H         1 UNK         0.0814 
    115 H115      -52.9531  -23.8276   18.0512 H         1 UNK         0.0814 
    116 H116      -50.9217  -24.7199   15.2471 H         1 UNK         0.3091 
    117 H117      -49.3232  -26.7721   17.6180 H         1 UNK         0.0702 
    118 H118      -50.4179  -28.5733   16.3307 H         1 UNK         0.0785 
    119 H119      -50.1940  -27.6740   14.8329 H         1 UNK         0.0785 
    120 H120      -48.7987  -28.2831   15.7172 H         1 UNK         0.0785 
    121 H121      -48.6665  -25.7416   14.9626 H         1 UNK         0.2998 
    122 H122      -46.6220  -23.1361   16.4299 H         1 UNK         0.0697 
    123 H123      -46.1239  -25.6800   14.7984 H         1 UNK         0.0825 
    124 H124      -45.4245  -25.3346   16.3753 H         1 UNK         0.0825 
    125 H125      -45.0132  -24.3273   14.9970 H         1 UNK         0.0825 
    126 H126      -47.1875  -23.7302   13.6976 H         1 UNK         0.3029 
    127 H127      -49.6648  -21.1443   13.3119 H         1 UNK         0.0897 
    128 H128      -48.0116  -20.4265   11.6199 H         1 UNK         0.0792 
    129 H129      -46.7767  -21.4617   12.3327 H         1 UNK         0.0792 
    130 H130      -47.3959  -20.0791   13.2279 H         1 UNK         0.0792 
    131 H131      -48.5734  -22.9042   11.3839 H         1 UNK         0.3086 
    132 H132      -51.0652  -25.4956   11.7617 H         1 UNK         0.0583 
    133 H133      -51.8570  -23.5595   10.2946 H         1 UNK         0.1020 
    134 H134      -50.2960  -23.5554    9.5189 H         1 UNK         0.1020 
    135 H135      -53.7320  -24.5935    9.4017 H         1 UNK         0.0694 
    136 H136      -53.2101  -24.2049    7.7784 H         1 UNK         0.0694 
    137 H137      -48.8010  -25.4972   10.1105 H         1 UNK         0.2989 
    138 H138      -46.4532  -26.9255   12.4097 H         1 UNK         0.1055 
    139 H139      -47.7485  -28.7765   11.3907 H         1 UNK         0.0806 
    140 H140      -46.3067  -28.4613   10.4393 H         1 UNK         0.0806 
    141 H141      -47.8821  -27.9056    9.8735 H         1 UNK         0.0806 
    142 H142      -46.2948  -25.9343    9.7010 H         1 UNK         0.3061 
    143 H143      -45.0940  -22.6787   10.5636 H         1 UNK         0.0734 
    144 H144      -43.2020  -23.4403    9.1540 H         1 UNK         0.0832 
    145 H145      -43.1210  -24.2036   10.7323 H         1 UNK         0.0832 
    146 H146      -43.6927  -25.1239    9.3483 H         1 UNK         0.0832 
    147 H147      -45.4933  -23.9698    8.0469 H         1 UNK         0.3156 
    148 H148      -48.8895  -23.0086    7.5732 H         1 UNK         0.0589 
    149 H149      -46.2977  -22.0187    6.2700 H         1 UNK         0.0808 
    150 H150      -47.9196  -21.9185    5.5830 H         1 UNK         0.0808 
    151 H151      -47.5139  -20.9919    7.0166 H         1 UNK         0.0808 
    152 H152      -47.2766  -24.3250    5.7531 H         1 UNK         0.3098 
    153 H153      -47.6391  -26.4316    5.2352 H         1 UNK         0.0720 
    154 H154      -46.7169  -28.0743    7.6737 H         1 UNK         0.0791 
    155 H155      -45.6615  -27.0899    6.6669 H         1 UNK         0.0791 
    156 H156      -46.4529  -28.5014    5.9862 H         1 UNK         0.0791 
    157 H157      -49.6158  -27.3252    7.1248 H         1 UNK         0.3028 
@<TRIPOS>BOND
     1    1    2 1    
     2    1   82 1    
     3    1   83 1    
     4    1   84 1    
     5    2    3 2    
     6    2    4 am   BACKBONE|DICT|INTERRES
     7    4    5 1    
     8    4   85 1    
     9    5    6 1    
    10    5   80 1    
    11    5   86 1    
    12    6    7 1    
    13    6   87 1    
    14    6   88 1    
    15    7    8 1    
    16    8    9 1    
    17    8   89 1    
    18    8   90 1    
    19    9   10 ar   
    20    9   14 ar   
    21   10   11 ar   
    22   10   91 1    
    23   11   12 ar   
    24   11   58 1    
    25   12   13 ar   
    26   12   92 1    
    27   13   14 ar   
    28   13   15 1    
    29   14   93 1    
    30   15   16 1    
    31   15   94 1    
    32   15   95 1    
    33   16   17 1    
    34   17   18 1    
    35   17   96 1    
    36   17   97 1    
    37   18   19 1    
    38   18   22 1    
    39   18   98 1    
    40   19   20 am   BACKBONE|DICT|INTERRES
    41   19   21 2    
    42   20   99 1    
    43   20  100 1    
    44   22   23 am   BACKBONE|DICT|INTERRES
    45   22  101 1    
    46   23   24 2    
    47   23   25 1    
    48   25   26 1    
    49   25   27 1    
    50   25  102 1    
    51   26  103 1    
    52   26  104 1    
    53   26  105 1    
    54   27   28 am   BACKBONE|DICT|INTERRES
    55   27  106 1    
    56   28   29 2    
    57   28   30 1    
    58   30   31 1    
    59   30   32 1    
    60   30  107 1    
    61   31  108 1    
    62   31  109 1    
    63   31  110 1    
    64   32   33 am   BACKBONE|DICT|INTERRES
    65   32  111 1    
    66   33   34 2    
    67   33   35 1    
    68   35   36 1    
    69   35   37 1    
    70   35  112 1    
    71   36  113 1    
    72   36  114 1    
    73   36  115 1    
    74   37   38 am   BACKBONE|DICT|INTERRES
    75   37  116 1    
    76   38   39 2    
    77   38   40 1    
    78   40   41 1    
    79   40   42 1    
    80   40  117 1    
    81   41  118 1    
    82   41  119 1    
    83   41  120 1    
    84   42   43 am   BACKBONE|DICT|INTERRES
    85   42  121 1    
    86   43   44 2    
    87   43   45 1    
    88   45   46 1    
    89   45   47 1    
    90   45  122 1    
    91   46  123 1    
    92   46  124 1    
    93   46  125 1    
    94   47   48 am   BACKBONE|DICT|INTERRES
    95   47  126 1    
    96   48   49 2    
    97   48   50 1    
    98   50   51 1    
    99   50   52 1    
   100   50  127 1    
   101   51  128 1    
   102   51  129 1    
   103   51  130 1    
   104   52   53 am   BACKBONE|DICT|INTERRES
   105   52  131 1    
   106   53   54 2    
   107   53   55 1    
   108   55   56 1    
   109   55   59 1    
   110   55  132 1    
   111   56   57 1    
   112   56  133 1    
   113   56  134 1    
   114   57   58 1    
   115   58  135 1    
   116   58  136 1    
   117   59   60 am   BACKBONE|DICT|INTERRES
   118   59  137 1    
   119   60   61 2    
   120   60   62 1    
   121   62   63 1    
   122   62   64 1    
   123   62  138 1    
   124   63  139 1    
   125   63  140 1    
   126   63  141 1    
   127   64   65 am   BACKBONE|DICT|INTERRES
   128   64  142 1    
   129   65   66 2    
   130   65   67 1    
   131   67   68 1    
   132   67   69 1    
   133   67  143 1    
   134   68  144 1    
   135   68  145 1    
   136   68  146 1    
   137   69   70 am   BACKBONE|DICT|INTERRES
   138   69  147 1    
   139   70   71 2    
   140   70   72 1    
   141   72   73 1    
   142   72   74 1    
   143   72  148 1    
   144   73  149 1    
   145   73  150 1    
   146   73  151 1    
   147   74   75 am   BACKBONE|DICT|INTERRES
   148   74  152 1    
   149   75   76 2    
   150   75   77 1    
   151   77   78 1    
   152   77   79 1    
   153   77  153 1    
   154   78  154 1    
   155   78  155 1    
   156   78  156 1    
   157   79   80 am   BACKBONE|DICT|INTERRES
   158   79  157 1    
   159   80   81 2    
@<TRIPOS>SUBSTRUCTURE
     1 UNK         1 GROUP             0       ****    0 ROOT    
