@<TRIPOS>MOLECULE
3R207
157   159    1
SMALL
USER_CHARGES


@<TRIPOS>ATOM
      1 CA        -50.3530  -32.3374    7.3458 C.3       0 UNK        -0.1975 
      2 C         -49.8114  -31.3902    6.2895 C.2       0 UNK         0.4852 
      3 O         -48.7541  -31.6552    5.7159 O.2       0 UNK        -0.5216 
      4 N         -50.5255  -30.2848    6.0315 N.am      1 UNK        -0.4461 
      5 CA        -50.1281  -29.2506    5.0638 C.3       1 UNK         0.0864 
      6 C6        -51.2840  -28.2874    4.6935 C.3       14 UNK        -0.0898 
      7 S7        -52.7911  -29.1738    4.1621 S.3       14 UNK        -0.2598 
      8 C8        -54.0160  -28.6576    5.4109 C.3       14 UNK         0.0286 
      9 C9        -53.5997  -29.0261    6.8289 C.ar      14 UNK        -0.0844 
     10 C10       -53.1441  -28.0365    7.7048 C.ar      14 UNK        -0.0881 
     11 C11       -52.7506  -28.3604    9.0062 C.ar      14 UNK        -0.0643 
     12 C12       -52.8297  -29.6895    9.4334 C.ar      14 UNK        -0.0930 
     13 C13       -53.3194  -30.6831    8.5801 C.ar      14 UNK        -0.0827 
     14 C14       -53.6928  -30.3475    7.2750 C.ar      14 UNK        -0.1249 
     15 C15       -53.4497  -32.1199    9.0653 C.3       14 UNK         0.0141 
     16 S16       -55.1393  -32.4954    9.6253 S.3       14 UNK        -0.2313 
     17 C17       -55.1835  -31.7398   11.2876 C.3       14 UNK        -0.0915 
     18 CA        -55.8701  -30.3471   11.3461 C.3       13 UNK         0.0968 
     19 C         -57.3572  -30.3734   10.9091 C.2       13 UNK         0.5732 
     20 N         -57.6471  -30.0659    9.6525 N.am      13 UNK        -0.7310 
     21 O         -58.2485  -30.6795   11.7006 O.2       13 UNK        -0.5035 
     22 N         -55.7869  -29.7753   12.6921 N.am      13 UNK        -0.4233 
     23 C         -54.7350  -29.1325   13.2028 C.2       13 UNK         0.4989 
     24 O         -53.6591  -28.9888   12.6201 O.2       13 UNK        -0.4996 
     25 CA        -54.9042  -28.5660   14.6216 C.3       12 UNK         0.0216 
     26 CB        -54.1692  -29.4456   15.6451 C.3       12 UNK        -0.1964 
     27 N         -54.3954  -27.1953   14.6970 N.am      12 UNK        -0.4276 
     28 C         -54.9774  -26.1452   14.0977 C.2       12 UNK         0.5020 
     29 O         -56.0572  -26.2212   13.5074 O.2       12 UNK        -0.5489 
     30 CA        -54.2346  -24.7940   14.1307 C.3       11 UNK         0.0294 
     31 CB        -55.1934  -23.5842   14.1436 C.3       11 UNK        -0.2019 
     32 N         -53.2294  -24.6821   15.1926 N.am      11 UNK        -0.4493 
     33 C         -53.4275  -24.6843   16.5191 C.2       11 UNK         0.4932 
     34 O         -54.5374  -24.7631   17.0480 O.2       11 UNK        -0.5029 
     35 CA        -52.1623  -24.5888   17.3963 C.3       10 UNK         0.0280 
     36 CB        -52.4063  -25.0386   18.8526 C.3       10 UNK        -0.1976 
     37 N         -51.0004  -25.2853   16.8274 N.am      10 UNK        -0.4242 
     38 C         -50.9006  -26.5925   16.5321 C.2       10 UNK         0.5072 
     39 O         -51.8257  -27.3899   16.6888 O.2       10 UNK        -0.5224 
     40 CA        -49.5749  -27.1129   15.9332 C.3       9 UNK         0.0343 
     41 CB        -49.8359  -27.8824   14.6260 C.3       9 UNK        -0.2003 
     42 N         -48.5859  -26.0617   15.6774 N.am      9 UNK        -0.4272 
     43 C         -47.8126  -25.4805   16.6057 C.2       9 UNK         0.4988 
     44 O         -47.7750  -25.8321   17.7846 O.2       9 UNK        -0.5108 
     45 CA        -46.9869  -24.2617   16.1539 C.3       8 UNK         0.0248 
     46 CB        -45.6011  -24.6928   15.6464 C.3       8 UNK        -0.2001 
     47 N         -47.6698  -23.4659   15.1270 N.am      8 UNK        -0.4140 
     48 C         -48.8038  -22.7769   15.3291 C.2       8 UNK         0.5028 
     49 O         -49.3674  -22.6940   16.4201 O.2       8 UNK        -0.5428 
     50 CA        -49.4553  -22.1321   14.0937 C.3       7 UNK         0.0264 
     51 CB        -48.7854  -20.7908   13.7573 C.3       7 UNK        -0.1988 
     52 N         -49.4219  -23.0163   12.9246 N.am      7 UNK        -0.4454 
     53 C         -50.0935  -24.1776   12.8467 C.2       7 UNK         0.5027 
     54 O         -50.8644  -24.5686   13.7219 O.2       7 UNK        -0.5083 
     55 CA        -49.8395  -25.0865   11.6247 C.3       6 UNK         0.0844 
     56 C56       -50.9617  -24.8969   10.5762 C.3       14 UNK        -0.0967 
     57 S57       -50.9818  -26.2127    9.3130 S.3       14 UNK        -0.2604 
     58 C58       -52.3158  -27.2664    9.9733 C.3       14 UNK         0.0134 
     59 N         -48.4800  -24.9142   11.0913 N.am      6 UNK        -0.4116 
     60 C         -47.3756  -25.2370   11.7891 C.2       5 UNK         0.5034 
     61 O         -47.4204  -25.8246   12.8704 O.2       5 UNK        -0.5045 
     62 CA        -46.0005  -24.7682   11.2749 C.3       5 UNK         0.0224 
     63 CB        -45.0541  -25.9371   10.9583 C.3       5 UNK        -0.1978 
     64 N         -46.0724  -23.8591   10.1302 N.am      5 UNK        -0.4737 
     65 C         -46.3842  -22.5590   10.2285 C.2       4 UNK         0.5027 
     66 O         -46.6224  -22.0001   11.2988 O.2       4 UNK        -0.5211 
     67 CA        -46.5025  -21.7611    8.9166 C.3       4 UNK         0.0297 
     68 CB        -45.1575  -21.1074    8.5634 C.3       4 UNK        -0.1993 
     69 N         -46.9694  -22.5636    7.7808 N.am      4 UNK        -0.4486 
     70 C         -48.1405  -23.2134    7.7373 C.2       3 UNK         0.4961 
     71 O         -48.9659  -23.1775    8.6482 O.2       3 UNK        -0.5105 
     72 CA        -48.4354  -24.0854    6.5047 C.3       3 UNK         0.0299 
     73 CB        -47.5120  -23.8081    5.2963 C.3       3 UNK        -0.1972 
     74 N         -48.4242  -25.5127    6.8448 N.am      3 UNK        -0.4305 
     75 C         -47.4090  -26.2161    7.3718 C.2       2 UNK         0.5006 
     76 O         -46.3299  -25.7180    7.6974 O.2       2 UNK        -0.5106 
     77 CA        -47.6104  -27.7333    7.5622 C.3       2 UNK         0.0296 
     78 CB        -47.6985  -28.1134    9.0505 C.3       2 UNK        -0.2002 
     79 N         -48.7783  -28.2873    6.8729 N.am      2 UNK        -0.4032 
     80 C         -48.8926  -28.4621    5.5470 C.2       1 UNK         0.5000 
     81 O         -48.0664  -28.0599    4.7263 O.2       1 UNK        -0.5238 
     82 H82       -51.1985  -32.8982    6.9498 H         1 UNK         0.0889 
     83 H83       -50.6711  -31.7874    8.2304 H         1 UNK         0.0889 
     84 H84       -49.5875  -33.0493    7.6539 H         1 UNK         0.0889 
     85 H85       -51.4123  -30.1344    6.4968 H         1 UNK         0.3028 
     86 H86       -49.8312  -29.7672    4.1480 H         1 UNK         0.0864 
     87 H87       -51.5171  -27.6189    5.5224 H         1 UNK         0.0720 
     88 H88       -50.9778  -27.6390    3.8703 H         1 UNK         0.0720 
     89 H89       -54.9724  -29.1302    5.1822 H         1 UNK         0.0814 
     90 H90       -54.1821  -27.5827    5.3233 H         1 UNK         0.0814 
     91 H91       -53.0980  -27.0066    7.3776 H         1 UNK         0.1469 
     92 H92       -52.5465  -29.9455   10.4452 H         1 UNK         0.1381 
     93 H93       -54.0657  -31.1133    6.6080 H         1 UNK         0.1206 
     94 H94       -53.2059  -32.8023    8.2508 H         1 UNK         0.0813 
     95 H95       -52.7343  -32.3311    9.8615 H         1 UNK         0.0813 
     96 H96       -54.1621  -31.6671   11.6635 H         1 UNK         0.0638 
     97 H97       -55.6939  -32.4351   11.9562 H         1 UNK         0.0638 
     98 H98       -55.3457  -29.6715   10.6681 H         1 UNK         0.0568 
     99 H99       -56.9170  -29.8448    8.9934 H         1 UNK         0.3450 
    100 H100      -58.6086  -30.0838    9.3516 H         1 UNK         0.3450 
    101 H101      -56.6478  -29.8348   13.2200 H         1 UNK         0.2987 
    102 H102      -55.9651  -28.5490   14.8808 H         1 UNK         0.0766 
    103 H103      -53.1022  -29.5108   15.4268 H         1 UNK         0.0798 
    104 H104      -54.2788  -29.0548   16.6570 H         1 UNK         0.0798 
    105 H105      -54.5651  -30.4619   15.6433 H         1 UNK         0.0798 
    106 H106      -53.5093  -27.0640   15.1696 H         1 UNK         0.3198 
    107 H107      -53.6741  -24.7510   13.1957 H         1 UNK         0.0843 
    108 H108      -55.8325  -23.5814   13.2598 H         1 UNK         0.0831 
    109 H109      -54.6446  -22.6425   14.1462 H         1 UNK         0.0831 
    110 H110      -55.8482  -23.5952   15.0152 H         1 UNK         0.0831 
    111 H111      -52.2686  -24.6318   14.8520 H         1 UNK         0.3133 
    112 H112      -51.8949  -23.5316   17.4205 H         1 UNK         0.0566 
    113 H113      -51.5023  -24.9424   19.4539 H         1 UNK         0.0814 
    114 H114      -53.1758  -24.4288   19.3276 H         1 UNK         0.0814 
    115 H115      -52.7361  -26.0767   18.9054 H         1 UNK         0.0814 
    116 H116      -50.2064  -24.6888   16.6262 H         1 UNK         0.3091 
    117 H117      -49.1499  -27.8126   16.6556 H         1 UNK         0.0702 
    118 H118      -48.9063  -28.1971   14.1510 H         1 UNK         0.0785 
    119 H119      -50.3950  -27.2805   13.9107 H         1 UNK         0.0785 
    120 H120      -50.4243  -28.7815   14.8142 H         1 UNK         0.0785 
    121 H121      -48.4961  -25.7503   14.7173 H         1 UNK         0.2998 
    122 H122      -46.8425  -23.6212   17.0267 H         1 UNK         0.0697 
    123 H123      -45.6686  -25.3510   14.7802 H         1 UNK         0.0825 
    124 H124      -45.0571  -25.2348   16.4212 H         1 UNK         0.0825 
    125 H125      -44.9931  -23.8317   15.3685 H         1 UNK         0.0825 
    126 H126      -47.2852  -23.4971   14.1946 H         1 UNK         0.3029 
    127 H127      -50.5025  -21.9368   14.3363 H         1 UNK         0.0897 
    128 H128      -49.2689  -20.3070   12.9085 H         1 UNK         0.0792 
    129 H129      -48.8491  -20.1027   14.6014 H         1 UNK         0.0792 
    130 H130      -47.7287  -20.9121   13.5165 H         1 UNK         0.0792 
    131 H131      -48.8007  -22.7533   12.1704 H         1 UNK         0.3086 
    132 H132      -49.9093  -26.1141   11.9850 H         1 UNK         0.0583 
    133 H133      -51.9394  -24.8753   11.0620 H         1 UNK         0.1020 
    134 H134      -50.8737  -23.9299   10.0812 H         1 UNK         0.1020 
    135 H135      -51.9798  -27.6954   10.9186 H         1 UNK         0.0694 
    136 H136      -53.1891  -26.6543   10.2024 H         1 UNK         0.0694 
    137 H137      -48.4002  -24.4128   10.2132 H         1 UNK         0.2989 
    138 H138      -45.5530  -24.2252   12.1108 H         1 UNK         0.1055 
    139 H139      -45.1122  -26.7193   11.7168 H         1 UNK         0.0806 
    140 H140      -44.0188  -25.5975   10.9286 H         1 UNK         0.0806 
    141 H141      -45.2693  -26.3912    9.9945 H         1 UNK         0.0806 
    142 H142      -45.9500  -24.2705    9.2098 H         1 UNK         0.3061 
    143 H143      -47.2356  -20.9689    9.0831 H         1 UNK         0.0734 
    144 H144      -44.7993  -20.4856    9.3853 H         1 UNK         0.0832 
    145 H145      -44.3871  -21.8521    8.3593 H         1 UNK         0.0832 
    146 H146      -45.2452  -20.4637    7.6880 H         1 UNK         0.0832 
    147 H147      -46.3340  -22.6731    7.0037 H         1 UNK         0.3156 
    148 H148      -49.4558  -23.8473    6.2009 H         1 UNK         0.0589 
    149 H149      -46.4725  -24.0715    5.4949 H         1 UNK         0.0808 
    150 H150      -47.8306  -24.3833    4.4268 H         1 UNK         0.0808 
    151 H151      -47.5420  -22.7561    5.0092 H         1 UNK         0.0808 
    152 H152      -49.2891  -26.0059    6.6796 H         1 UNK         0.3098 
    153 H153      -46.7278  -28.2231    7.1455 H         1 UNK         0.0720 
    154 H154      -47.9313  -29.1705    9.1806 H         1 UNK         0.0791 
    155 H155      -48.4565  -27.5370    9.5789 H         1 UNK         0.0791 
    156 H156      -46.7504  -27.9424    9.5544 H         1 UNK         0.0791 
    157 H157      -49.5190  -28.6422    7.4604 H         1 UNK         0.3028 
@<TRIPOS>BOND
     1    1    2 1    
     2    1   82 1    
     3    1   83 1    
     4    1   84 1    
     5    2    3 2    
     6    2    4 am   BACKBONE|DICT|INTERRES
     7    4    5 1    
     8    4   85 1    
     9    5    6 1    
    10    5   80 1    
    11    5   86 1    
    12    6    7 1    
    13    6   87 1    
    14    6   88 1    
    15    7    8 1    
    16    8    9 1    
    17    8   89 1    
    18    8   90 1    
    19    9   10 ar   
    20    9   14 ar   
    21   10   11 ar   
    22   10   91 1    
    23   11   12 ar   
    24   11   58 1    
    25   12   13 ar   
    26   12   92 1    
    27   13   14 ar   
    28   13   15 1    
    29   14   93 1    
    30   15   16 1    
    31   15   94 1    
    32   15   95 1    
    33   16   17 1    
    34   17   18 1    
    35   17   96 1    
    36   17   97 1    
    37   18   19 1    
    38   18   22 1    
    39   18   98 1    
    40   19   20 am   BACKBONE|DICT|INTERRES
    41   19   21 2    
    42   20   99 1    
    43   20  100 1    
    44   22   23 am   BACKBONE|DICT|INTERRES
    45   22  101 1    
    46   23   24 2    
    47   23   25 1    
    48   25   26 1    
    49   25   27 1    
    50   25  102 1    
    51   26  103 1    
    52   26  104 1    
    53   26  105 1    
    54   27   28 am   BACKBONE|DICT|INTERRES
    55   27  106 1    
    56   28   29 2    
    57   28   30 1    
    58   30   31 1    
    59   30   32 1    
    60   30  107 1    
    61   31  108 1    
    62   31  109 1    
    63   31  110 1    
    64   32   33 am   BACKBONE|DICT|INTERRES
    65   32  111 1    
    66   33   34 2    
    67   33   35 1    
    68   35   36 1    
    69   35   37 1    
    70   35  112 1    
    71   36  113 1    
    72   36  114 1    
    73   36  115 1    
    74   37   38 am   BACKBONE|DICT|INTERRES
    75   37  116 1    
    76   38   39 2    
    77   38   40 1    
    78   40   41 1    
    79   40   42 1    
    80   40  117 1    
    81   41  118 1    
    82   41  119 1    
    83   41  120 1    
    84   42   43 am   BACKBONE|DICT|INTERRES
    85   42  121 1    
    86   43   44 2    
    87   43   45 1    
    88   45   46 1    
    89   45   47 1    
    90   45  122 1    
    91   46  123 1    
    92   46  124 1    
    93   46  125 1    
    94   47   48 am   BACKBONE|DICT|INTERRES
    95   47  126 1    
    96   48   49 2    
    97   48   50 1    
    98   50   51 1    
    99   50   52 1    
   100   50  127 1    
   101   51  128 1    
   102   51  129 1    
   103   51  130 1    
   104   52   53 am   BACKBONE|DICT|INTERRES
   105   52  131 1    
   106   53   54 2    
   107   53   55 1    
   108   55   56 1    
   109   55   59 1    
   110   55  132 1    
   111   56   57 1    
   112   56  133 1    
   113   56  134 1    
   114   57   58 1    
   115   58  135 1    
   116   58  136 1    
   117   59   60 am   BACKBONE|DICT|INTERRES
   118   59  137 1    
   119   60   61 2    
   120   60   62 1    
   121   62   63 1    
   122   62   64 1    
   123   62  138 1    
   124   63  139 1    
   125   63  140 1    
   126   63  141 1    
   127   64   65 am   BACKBONE|DICT|INTERRES
   128   64  142 1    
   129   65   66 2    
   130   65   67 1    
   131   67   68 1    
   132   67   69 1    
   133   67  143 1    
   134   68  144 1    
   135   68  145 1    
   136   68  146 1    
   137   69   70 am   BACKBONE|DICT|INTERRES
   138   69  147 1    
   139   70   71 2    
   140   70   72 1    
   141   72   73 1    
   142   72   74 1    
   143   72  148 1    
   144   73  149 1    
   145   73  150 1    
   146   73  151 1    
   147   74   75 am   BACKBONE|DICT|INTERRES
   148   74  152 1    
   149   75   76 2    
   150   75   77 1    
   151   77   78 1    
   152   77   79 1    
   153   77  153 1    
   154   78  154 1    
   155   78  155 1    
   156   78  156 1    
   157   79   80 am   BACKBONE|DICT|INTERRES
   158   79  157 1    
   159   80   81 2    
@<TRIPOS>SUBSTRUCTURE
     1 UNK         1 GROUP             0       ****    0 ROOT    
