@<TRIPOS>MOLECULE
3R207
157   159    1
SMALL
USER_CHARGES


@<TRIPOS>ATOM
      1 CA        -50.7676  -28.9651    8.9630 C.3       0 UNK        -0.1975 
      2 C         -50.2710  -30.2671    8.3406 C.2       0 UNK         0.4852 
      3 O         -49.8969  -31.1749    9.0794 O.2       0 UNK        -0.5216 
      4 N         -50.2132  -30.4286    7.0077 N.am      1 UNK        -0.4461 
      5 CA        -50.5167  -29.4934    5.9079 C.3       1 UNK         0.0864 
      6 C6        -51.9400  -28.8756    5.9342 C.3       14 UNK        -0.0898 
      7 S7        -53.3004  -30.0869    5.9986 S.3       14 UNK        -0.2598 
      8 C8        -54.7289  -29.0080    5.6349 C.3       14 UNK         0.0286 
      9 C9        -55.0947  -28.1307    6.8256 C.ar      14 UNK        -0.0844 
     10 C10       -54.3874  -26.9509    7.0777 C.ar      14 UNK        -0.0881 
     11 C11       -54.6489  -26.1928    8.2210 C.ar      14 UNK        -0.0643 
     12 C12       -55.7017  -26.5654    9.0608 C.ar      14 UNK        -0.0930 
     13 C13       -56.4448  -27.7224    8.8021 C.ar      14 UNK        -0.0827 
     14 C14       -56.1276  -28.5077    7.6896 C.ar      14 UNK        -0.1249 
     15 C15       -57.5803  -28.1330    9.7305 C.3       14 UNK         0.0141 
     16 S16       -57.0225  -29.2779   11.0351 S.3       14 UNK        -0.2313 
     17 C17       -55.9632  -28.1862   12.0404 C.3       14 UNK        -0.0915 
     18 CA        -54.4538  -28.4084   11.7403 C.3       13 UNK         0.0968 
     19 C         -53.5746  -27.2096   12.2043 C.2       13 UNK         0.5732 
     20 N         -52.3866  -27.4259   12.7563 N.am      13 UNK        -0.7310 
     21 O         -53.9806  -26.0575   12.0767 O.2       13 UNK        -0.5035 
     22 N         -54.0027  -29.6805   12.3166 N.am      13 UNK        -0.4233 
     23 C         -53.3991  -30.6777   11.6610 C.2       13 UNK         0.4989 
     24 O         -53.2649  -30.7102   10.4382 O.2       13 UNK        -0.4996 
     25 CA        -52.8616  -31.8492   12.5161 C.3       12 UNK         0.0216 
     26 CB        -51.5889  -32.4797   11.9107 C.3       12 UNK        -0.1964 
     27 N         -52.6506  -31.5110   13.9340 N.am      12 UNK        -0.4276 
     28 C         -51.8354  -30.5646   14.4228 C.2       12 UNK         0.5020 
     29 O         -51.0896  -29.8665   13.7332 O.2       12 UNK        -0.5489 
     30 CA        -51.9225  -30.3022   15.9354 C.3       11 UNK         0.0294 
     31 CB        -50.5698  -30.5666   16.6170 C.3       11 UNK        -0.2019 
     32 N         -52.3418  -28.9253   16.2118 N.am      11 UNK        -0.4493 
     33 C         -53.5002  -28.3666   15.8273 C.2       11 UNK         0.4932 
     34 O         -54.3790  -28.9830   15.2218 O.2       11 UNK        -0.5029 
     35 CA        -53.7333  -26.8817   16.1760 C.3       10 UNK         0.0280 
     36 CB        -54.9047  -26.7395   17.1624 C.3       10 UNK        -0.1976 
     37 N         -52.5481  -26.2328   16.7482 N.am      10 UNK        -0.4242 
     38 C         -51.5532  -25.6862   16.0358 C.2       10 UNK         0.5072 
     39 O         -51.5689  -25.5648   14.8119 O.2       10 UNK        -0.5224 
     40 CA        -50.3272  -25.2384   16.8407 C.3       9 UNK         0.0343 
     41 CB        -49.6437  -26.4462   17.5204 C.3       9 UNK        -0.2003 
     42 N         -49.3563  -24.5515   15.9857 N.am      9 UNK        -0.4272 
     43 C         -48.4169  -23.7184   16.4526 C.2       9 UNK         0.4988 
     44 O         -48.3466  -23.3630   17.6308 O.2       9 UNK        -0.5108 
     45 CA        -47.3397  -23.2269   15.4738 C.3       8 UNK         0.0248 
     46 CB        -46.2740  -24.3161   15.2681 C.3       8 UNK        -0.2001 
     47 N         -47.8549  -22.7820   14.1786 N.am      8 UNK        -0.4140 
     48 C         -48.5711  -21.6646   13.9897 C.2       8 UNK         0.5028 
     49 O         -48.9240  -20.9131   14.9000 O.2       8 UNK        -0.5428 
     50 CA        -48.9338  -21.3018   12.5386 C.3       7 UNK         0.0264 
     51 CB        -47.7567  -20.5985   11.8435 C.3       7 UNK        -0.1988 
     52 N         -49.3470  -22.4619   11.7486 N.am      7 UNK        -0.4454 
     53 C         -50.5050  -23.1148   11.9237 C.2       7 UNK         0.5027 
     54 O         -51.3795  -22.7429   12.7072 O.2       7 UNK        -0.5083 
     55 CA        -50.7303  -24.3935   11.0877 C.3       6 UNK         0.0844 
     56 C56       -51.3663  -24.0390    9.7191 C.3       14 UNK        -0.0967 
     57 S57       -52.0459  -25.5067    8.8770 S.3       14 UNK        -0.2604 
     58 C58       -53.7720  -24.9964    8.5666 C.3       14 UNK         0.0134 
     59 N         -49.5080  -25.1988   10.9468 N.am      6 UNK        -0.4116 
     60 C         -48.7969  -25.7113   11.9649 C.2       5 UNK         0.5034 
     61 O         -49.1017  -25.6089   13.1518 O.2       5 UNK        -0.5045 
     62 CA        -47.4651  -26.3848   11.6063 C.3       5 UNK         0.0224 
     63 CB        -47.6776  -27.8107   11.0722 C.3       5 UNK        -0.1978 
     64 N         -46.6960  -25.5820   10.6521 N.am      5 UNK        -0.4737 
     65 C         -46.1190  -24.4108   10.9616 C.2       4 UNK         0.5027 
     66 O         -46.1444  -23.9171   12.0867 O.2       4 UNK        -0.5211 
     67 CA        -45.4323  -23.6360    9.8250 C.3       4 UNK         0.0297 
     68 CB        -43.9828  -24.1141    9.6469 C.3       4 UNK        -0.1993 
     69 N         -46.1444  -23.7427    8.5518 N.am      4 UNK        -0.4486 
     70 C         -47.3833  -23.2818    8.3274 C.2       3 UNK         0.4961 
     71 O         -48.0439  -22.6540    9.1541 O.2       3 UNK        -0.5105 
     72 CA        -48.0100  -23.6368    6.9681 C.3       3 UNK         0.0299 
     73 CB        -47.6665  -22.5681    5.9189 C.3       3 UNK        -0.1972 
     74 N         -47.6087  -24.9612    6.4777 N.am      3 UNK        -0.4305 
     75 C         -47.8654  -26.1108    7.1166 C.2       2 UNK         0.5006 
     76 O         -48.4583  -26.1776    8.1956 O.2       2 UNK        -0.5106 
     77 CA        -47.3160  -27.3974    6.4798 C.3       2 UNK         0.0296 
     78 CB        -46.0882  -27.8975    7.2589 C.3       2 UNK        -0.2002 
     79 N         -48.3369  -28.4453    6.4584 N.am      2 UNK        -0.4032 
     80 C         -49.4451  -28.3968    5.7049 C.2       1 UNK         0.5000 
     81 O         -49.6349  -27.5250    4.8536 O.2       1 UNK        -0.5238 
     82 H82       -51.8558  -28.9186    8.9268 H         1 UNK         0.0889 
     83 H83       -50.3600  -28.0870    8.4662 H         1 UNK         0.0889 
     84 H84       -50.4791  -28.9109   10.0126 H         1 UNK         0.0889 
     85 H85       -49.8876  -31.3284    6.6820 H         1 UNK         0.3028 
     86 H86       -50.4585  -30.1022    5.0043 H         1 UNK         0.0864 
     87 H87       -52.0346  -28.1892    6.7715 H         1 UNK         0.0720 
     88 H88       -52.0993  -28.2722    5.0384 H         1 UNK         0.0720 
     89 H89       -54.5176  -28.3895    4.7614 H         1 UNK         0.0814 
     90 H90       -55.5778  -29.6360    5.3600 H         1 UNK         0.0814 
     91 H91       -53.5929  -26.6425    6.4133 H         1 UNK         0.1469 
     92 H92       -55.9220  -25.9680    9.9344 H         1 UNK         0.1381 
     93 H93       -56.6807  -29.4181    7.5021 H         1 UNK         0.1206 
     94 H94       -58.0405  -27.2540   10.1845 H         1 UNK         0.0813 
     95 H95       -58.3679  -28.6192    9.1528 H         1 UNK         0.0813 
     96 H96       -56.1726  -28.3733   13.0950 H         1 UNK         0.0638 
     97 H97       -56.2701  -27.1551   11.8656 H         1 UNK         0.0638 
     98 H98       -54.3203  -28.4341   10.6580 H         1 UNK         0.0568 
     99 H99       -51.8882  -26.6353   13.1502 H         1 UNK         0.3450 
    100 H100      -52.0189  -28.3609   12.8968 H         1 UNK         0.3450 
    101 H101      -54.0636  -29.7233   13.3279 H         1 UNK         0.2987 
    102 H102      -53.6438  -32.6095   12.4997 H         1 UNK         0.0766 
    103 H103      -51.2305  -33.3135   12.5141 H         1 UNK         0.0798 
    104 H104      -50.7799  -31.7531   11.8253 H         1 UNK         0.0798 
    105 H105      -51.7793  -32.8647   10.9080 H         1 UNK         0.0798 
    106 H106      -53.2455  -32.0050   14.5861 H         1 UNK         0.3198 
    107 H107      -52.6653  -30.9709   16.3756 H         1 UNK         0.0843 
    108 H108      -49.7900  -29.9048   16.2370 H         1 UNK         0.0831 
    109 H109      -50.2395  -31.5913   16.4412 H         1 UNK         0.0831 
    110 H110      -50.6327  -30.4281   17.6965 H         1 UNK         0.0831 
    111 H111      -51.6638  -28.3341   16.6657 H         1 UNK         0.3133 
    112 H112      -54.0085  -26.3713   15.2504 H         1 UNK         0.0566 
    113 H113      -55.1166  -25.6922   17.3783 H         1 UNK         0.0814 
    114 H114      -55.8172  -27.1731   16.7505 H         1 UNK         0.0814 
    115 H115      -54.7025  -27.2446   18.1077 H         1 UNK         0.0814 
    116 H116      -52.4623  -26.2650   17.7545 H         1 UNK         0.3091 
    117 H117      -50.6813  -24.5433   17.6052 H         1 UNK         0.0702 
    118 H118      -50.3185  -26.9637   18.2027 H         1 UNK         0.0785 
    119 H119      -49.2960  -27.1729   16.7846 H         1 UNK         0.0785 
    120 H120      -48.7814  -26.1370   18.1113 H         1 UNK         0.0785 
    121 H121      -49.3956  -24.7922   14.9962 H         1 UNK         0.2998 
    122 H122      -46.8468  -22.3706   15.9394 H         1 UNK         0.0697 
    123 H123      -46.6776  -25.1787   14.7367 H         1 UNK         0.0825 
    124 H124      -45.8862  -24.6723   16.2235 H         1 UNK         0.0825 
    125 H125      -45.4256  -23.9375   14.6979 H         1 UNK         0.0825 
    126 H126      -47.5554  -23.3146   13.3673 H         1 UNK         0.3029 
    127 H127      -49.7709  -20.6009   12.5729 H         1 UNK         0.0897 
    128 H128      -48.0262  -20.2754   10.8377 H         1 UNK         0.0792 
    129 H129      -46.8865  -21.2504   11.7622 H         1 UNK         0.0792 
    130 H130      -47.4495  -19.7111   12.3985 H         1 UNK         0.0792 
    131 H131      -48.7199  -22.7636   11.0080 H         1 UNK         0.3086 
    132 H132      -51.4440  -24.9998   11.6470 H         1 UNK         0.0583 
    133 H133      -52.1666  -23.3074    9.8472 H         1 UNK         0.1020 
    134 H134      -50.6340  -23.5662    9.0633 H         1 UNK         0.1020 
    135 H135      -54.1609  -24.4906    9.4520 H         1 UNK         0.0694 
    136 H136      -53.7974  -24.2723    7.7513 H         1 UNK         0.0694 
    137 H137      -49.1837  -25.3663   10.0003 H         1 UNK         0.2989 
    138 H138      -46.8814  -26.4615   12.5266 H         1 UNK         0.1055 
    139 H139      -48.2347  -28.4137   11.7911 H         1 UNK         0.0806 
    140 H140      -46.7268  -28.3137   10.8966 H         1 UNK         0.0806 
    141 H141      -48.2403  -27.8218   10.1404 H         1 UNK         0.0806 
    142 H142      -46.7096  -25.8821    9.6874 H         1 UNK         0.3061 
    143 H143      -45.4126  -22.5814   10.1083 H         1 UNK         0.0734 
    144 H144      -43.4563  -23.5187    8.9009 H         1 UNK         0.0832 
    145 H145      -43.4269  -24.0238   10.5814 H         1 UNK         0.0832 
    146 H146      -43.9346  -25.1597    9.3399 H         1 UNK         0.0832 
    147 H147      -45.6795  -24.2400    7.8067 H         1 UNK         0.3156 
    148 H148      -49.0940  -23.6498    7.0990 H         1 UNK         0.0589 
    149 H149      -46.5952  -22.5241    5.7191 H         1 UNK         0.0808 
    150 H150      -48.1778  -22.7593    4.9752 H         1 UNK         0.0808 
    151 H151      -47.9756  -21.5779    6.2570 H         1 UNK         0.0808 
    152 H152      -47.1197  -24.9910    5.5941 H         1 UNK         0.3098 
    153 H153      -47.0139  -27.1904    5.4509 H         1 UNK         0.0720 
    154 H154      -45.6623  -28.7884    6.7968 H         1 UNK         0.0791 
    155 H155      -46.3355  -28.1431    8.2923 H         1 UNK         0.0791 
    156 H156      -45.3029  -27.1407    7.2821 H         1 UNK         0.0791 
    157 H157      -48.2453  -29.1897    7.1335 H         1 UNK         0.3028 
@<TRIPOS>BOND
     1    1    2 1    
     2    1   82 1    
     3    1   83 1    
     4    1   84 1    
     5    2    3 2    
     6    2    4 am   BACKBONE|DICT|INTERRES
     7    4    5 1    
     8    4   85 1    
     9    5    6 1    
    10    5   80 1    
    11    5   86 1    
    12    6    7 1    
    13    6   87 1    
    14    6   88 1    
    15    7    8 1    
    16    8    9 1    
    17    8   89 1    
    18    8   90 1    
    19    9   10 ar   
    20    9   14 ar   
    21   10   11 ar   
    22   10   91 1    
    23   11   12 ar   
    24   11   58 1    
    25   12   13 ar   
    26   12   92 1    
    27   13   14 ar   
    28   13   15 1    
    29   14   93 1    
    30   15   16 1    
    31   15   94 1    
    32   15   95 1    
    33   16   17 1    
    34   17   18 1    
    35   17   96 1    
    36   17   97 1    
    37   18   19 1    
    38   18   22 1    
    39   18   98 1    
    40   19   20 am   BACKBONE|DICT|INTERRES
    41   19   21 2    
    42   20   99 1    
    43   20  100 1    
    44   22   23 am   BACKBONE|DICT|INTERRES
    45   22  101 1    
    46   23   24 2    
    47   23   25 1    
    48   25   26 1    
    49   25   27 1    
    50   25  102 1    
    51   26  103 1    
    52   26  104 1    
    53   26  105 1    
    54   27   28 am   BACKBONE|DICT|INTERRES
    55   27  106 1    
    56   28   29 2    
    57   28   30 1    
    58   30   31 1    
    59   30   32 1    
    60   30  107 1    
    61   31  108 1    
    62   31  109 1    
    63   31  110 1    
    64   32   33 am   BACKBONE|DICT|INTERRES
    65   32  111 1    
    66   33   34 2    
    67   33   35 1    
    68   35   36 1    
    69   35   37 1    
    70   35  112 1    
    71   36  113 1    
    72   36  114 1    
    73   36  115 1    
    74   37   38 am   BACKBONE|DICT|INTERRES
    75   37  116 1    
    76   38   39 2    
    77   38   40 1    
    78   40   41 1    
    79   40   42 1    
    80   40  117 1    
    81   41  118 1    
    82   41  119 1    
    83   41  120 1    
    84   42   43 am   BACKBONE|DICT|INTERRES
    85   42  121 1    
    86   43   44 2    
    87   43   45 1    
    88   45   46 1    
    89   45   47 1    
    90   45  122 1    
    91   46  123 1    
    92   46  124 1    
    93   46  125 1    
    94   47   48 am   BACKBONE|DICT|INTERRES
    95   47  126 1    
    96   48   49 2    
    97   48   50 1    
    98   50   51 1    
    99   50   52 1    
   100   50  127 1    
   101   51  128 1    
   102   51  129 1    
   103   51  130 1    
   104   52   53 am   BACKBONE|DICT|INTERRES
   105   52  131 1    
   106   53   54 2    
   107   53   55 1    
   108   55   56 1    
   109   55   59 1    
   110   55  132 1    
   111   56   57 1    
   112   56  133 1    
   113   56  134 1    
   114   57   58 1    
   115   58  135 1    
   116   58  136 1    
   117   59   60 am   BACKBONE|DICT|INTERRES
   118   59  137 1    
   119   60   61 2    
   120   60   62 1    
   121   62   63 1    
   122   62   64 1    
   123   62  138 1    
   124   63  139 1    
   125   63  140 1    
   126   63  141 1    
   127   64   65 am   BACKBONE|DICT|INTERRES
   128   64  142 1    
   129   65   66 2    
   130   65   67 1    
   131   67   68 1    
   132   67   69 1    
   133   67  143 1    
   134   68  144 1    
   135   68  145 1    
   136   68  146 1    
   137   69   70 am   BACKBONE|DICT|INTERRES
   138   69  147 1    
   139   70   71 2    
   140   70   72 1    
   141   72   73 1    
   142   72   74 1    
   143   72  148 1    
   144   73  149 1    
   145   73  150 1    
   146   73  151 1    
   147   74   75 am   BACKBONE|DICT|INTERRES
   148   74  152 1    
   149   75   76 2    
   150   75   77 1    
   151   77   78 1    
   152   77   79 1    
   153   77  153 1    
   154   78  154 1    
   155   78  155 1    
   156   78  156 1    
   157   79   80 am   BACKBONE|DICT|INTERRES
   158   79  157 1    
   159   80   81 2    
@<TRIPOS>SUBSTRUCTURE
     1 UNK         1 GROUP             0       ****    0 ROOT    
