@<TRIPOS>MOLECULE
3R207
157   159    1
SMALL
USER_CHARGES


@<TRIPOS>ATOM
      1 CA        -47.6545  -23.8528   11.0507 C.3       0 UNK        -0.1975 
      2 C         -47.4280  -24.9298   10.0015 C.2       0 UNK         0.4852 
      3 O         -47.6620  -24.6843    8.8173 O.2       0 UNK        -0.5216 
      4 N         -46.9741  -26.1168   10.4294 N.am      1 UNK        -0.4461 
      5 CA        -46.7521  -27.3160    9.6061 C.3       1 UNK         0.0864 
      6 C6        -48.0698  -27.9071    9.0348 C.3       14 UNK        -0.0898 
      7 S7        -49.1631  -28.4444   10.3937 S.3       14 UNK        -0.2598 
      8 C8        -49.6358  -30.1271    9.8875 C.3       14 UNK         0.0286 
      9 C9        -50.9810  -30.1052    9.1840 C.ar      14 UNK        -0.0844 
     10 C10       -51.0578  -29.8001    7.8220 C.ar      14 UNK        -0.0881 
     11 C11       -52.3000  -29.7111    7.1878 C.ar      14 UNK        -0.0643 
     12 C12       -53.4634  -29.9842    7.9136 C.ar      14 UNK        -0.0930 
     13 C13       -53.3975  -30.3022    9.2726 C.ar      14 UNK        -0.0827 
     14 C14       -52.1531  -30.3566    9.9051 C.ar      14 UNK        -0.1249 
     15 C15       -54.6764  -30.5882   10.0449 C.3       14 UNK         0.0141 
     16 S16       -55.6220  -29.0670   10.3671 S.3       14 UNK        -0.2313 
     17 C17       -54.8760  -28.4813   11.9258 C.3       14 UNK        -0.0915 
     18 CA        -55.6653  -27.3011   12.5562 C.3       13 UNK         0.0968 
     19 C         -57.0927  -27.7163   13.0107 C.2       13 UNK         0.5732 
     20 N         -58.1321  -27.2219   12.3522 N.am      13 UNK        -0.7310 
     21 O         -57.2563  -28.5067   13.9377 O.2       13 UNK        -0.5035 
     22 N         -54.9236  -26.7156   13.6797 N.am      13 UNK        -0.4233 
     23 C         -55.1793  -25.5118   14.2135 C.2       13 UNK         0.4989 
     24 O         -55.9665  -24.6994   13.7258 O.2       13 UNK        -0.4996 
     25 CA        -54.4164  -25.1678   15.5082 C.3       12 UNK         0.0216 
     26 CB        -54.9680  -23.9253   16.2397 C.3       12 UNK        -0.1964 
     27 N         -54.3141  -26.3268   16.4036 N.am      12 UNK        -0.4276 
     28 C         -55.3116  -26.9825   17.0162 C.2       12 UNK         0.5020 
     29 O         -56.4791  -26.5915   17.0337 O.2       12 UNK        -0.5489 
     30 CA        -54.9747  -28.3160   17.7059 C.3       11 UNK         0.0294 
     31 CB        -55.4596  -29.4974   16.8469 C.3       11 UNK        -0.2019 
     32 N         -53.5453  -28.4957   17.9928 N.am      11 UNK        -0.4493 
     33 C         -53.0610  -28.9518   19.1579 C.2       11 UNK         0.4932 
     34 O         -53.7645  -29.2209   20.1327 O.2       11 UNK        -0.5029 
     35 CA        -51.5392  -29.1758   19.2676 C.3       10 UNK         0.0280 
     36 CB        -51.2018  -30.6564   19.0273 C.3       10 UNK        -0.1976 
     37 N         -50.7478  -28.3525   18.3519 N.am      10 UNK        -0.4242 
     38 C         -50.6160  -27.0221   18.4360 C.2       10 UNK         0.5072 
     39 O         -51.0913  -26.3452   19.3485 O.2       10 UNK        -0.5224 
     40 CA        -49.8390  -26.3148   17.3081 C.3       9 UNK         0.0343 
     41 CB        -48.4106  -25.9856   17.7726 C.3       9 UNK        -0.2003 
     42 N         -49.7704  -27.0196   16.0187 N.am      9 UNK        -0.4272 
     43 C         -50.8141  -27.4573   15.3021 C.2       9 UNK         0.4988 
     44 O         -51.9735  -27.4926   15.7178 O.2       9 UNK        -0.5108 
     45 CA        -50.5291  -27.9492   13.8771 C.3       8 UNK         0.0248 
     46 CB        -50.8755  -29.4421   13.7539 C.3       8 UNK        -0.2001 
     47 N         -51.3088  -27.1870   12.8980 N.am      8 UNK        -0.4140 
     48 C         -51.1914  -25.8697   12.6801 C.2       8 UNK         0.5028 
     49 O         -50.3383  -25.1567   13.2105 O.2       8 UNK        -0.5428 
     50 CA        -52.1659  -25.2663   11.6637 C.3       7 UNK         0.0264 
     51 CB        -52.2580  -23.7305   11.7501 C.3       7 UNK        -0.1988 
     52 N         -51.7406  -25.6596   10.3275 N.am      7 UNK        -0.4454 
     53 C         -52.5616  -25.9185    9.3027 C.2       7 UNK         0.5027 
     54 O         -53.7907  -25.8688    9.3761 O.2       7 UNK        -0.5083 
     55 CA        -51.8615  -26.2515    7.9705 C.3       6 UNK         0.0844 
     56 C56       -52.8336  -26.6712    6.8326 C.3       14 UNK        -0.0967 
     57 S57       -51.9251  -27.5221    5.4928 S.3       14 UNK        -0.2604 
     58 C58       -52.3960  -29.2720    5.7323 C.3       14 UNK         0.0134 
     59 N         -50.9495  -25.1711    7.5764 N.am      6 UNK        -0.4116 
     60 C         -51.2797  -23.9014    7.2891 C.2       5 UNK         0.5034 
     61 O         -52.4273  -23.4566    7.3198 O.2       5 UNK        -0.5045 
     62 CA        -50.1322  -22.9570    6.8970 C.3       5 UNK         0.0224 
     63 CB        -49.7646  -22.0367    8.0727 C.3       5 UNK        -0.1978 
     64 N         -48.9384  -23.6876    6.4686 N.am      5 UNK        -0.4737 
     65 C         -48.7385  -24.1608    5.2307 C.2       4 UNK         0.5027 
     66 O         -49.5289  -23.9883    4.3016 O.2       4 UNK        -0.5211 
     67 CA        -47.4445  -24.9678    5.0041 C.3       4 UNK         0.0297 
     68 CB        -47.0175  -25.0283    3.5221 C.3       4 UNK        -0.1993 
     69 N         -46.3407  -24.5198    5.8610 N.am      4 UNK        -0.4486 
     70 C         -45.7470  -23.3139    5.8651 C.2       3 UNK         0.4961 
     71 O         -45.9983  -22.4211    5.0550 O.2       3 UNK        -0.5105 
     72 CA        -44.7190  -23.0285    6.9775 C.3       3 UNK         0.0299 
     73 CB        -45.2809  -21.9938    7.9678 C.3       3 UNK        -0.1972 
     74 N         -44.3252  -24.2266    7.7206 N.am      3 UNK        -0.4305 
     75 C         -43.4642  -25.1543    7.2799 C.2       2 UNK         0.5006 
     76 O         -42.8290  -25.0565    6.2296 O.2       2 UNK        -0.5106 
     77 CA        -43.2982  -26.4173    8.1454 C.3       2 UNK         0.0296 
     78 CB        -42.0483  -26.2990    9.0329 C.3       2 UNK        -0.2002 
     79 N         -44.4627  -26.7222    8.9868 N.am      2 UNK        -0.4032 
     80 C         -45.6779  -27.0611    8.5290 C.2       1 UNK         0.5000 
     81 O         -45.9626  -27.1214    7.3311 O.2       1 UNK        -0.5238 
     82 H82       -47.1480  -22.9322   10.7632 H         1 UNK         0.0889 
     83 H83       -47.2832  -24.1535   12.0302 H         1 UNK         0.0889 
     84 H84       -48.7193  -23.6429   11.1455 H         1 UNK         0.0889 
     85 H85       -46.8068  -26.2436   11.4178 H         1 UNK         0.3028 
     86 H86       -46.3232  -28.0696   10.2692 H         1 UNK         0.0864 
     87 H87       -48.5984  -27.1797    8.4177 H         1 UNK         0.0720 
     88 H88       -47.8537  -28.7548    8.3830 H         1 UNK         0.0720 
     89 H89       -49.6879  -30.7605   10.7737 H         1 UNK         0.0814 
     90 H90       -48.8747  -30.5766    9.2487 H         1 UNK         0.0814 
     91 H91       -50.1562  -29.5820    7.2659 H         1 UNK         0.1469 
     92 H92       -54.4285  -29.9208    7.4294 H         1 UNK         0.1381 
     93 H93       -52.0981  -30.5901   10.9592 H         1 UNK         0.1206 
     94 H94       -55.2990  -31.2678    9.4611 H         1 UNK         0.0813 
     95 H95       -54.4642  -31.1041   10.9825 H         1 UNK         0.0813 
     96 H96       -53.8562  -28.1715   11.6969 H         1 UNK         0.0638 
     97 H97       -54.7991  -29.3142   12.6272 H         1 UNK         0.0638 
     98 H98       -55.7555  -26.5260   11.7916 H         1 UNK         0.0568 
     99 H99       -59.0620  -27.4930   12.6300 H         1 UNK         0.3450 
    100 H100      -58.0036  -26.5806   11.5854 H         1 UNK         0.3450 
    101 H101      -54.3033  -27.3362   14.1776 H         1 UNK         0.2987 
    102 H102      -53.3954  -24.9358   15.2008 H         1 UNK         0.0766 
    103 H103      -54.8983  -23.0393   15.6075 H         1 UNK         0.0798 
    104 H104      -54.4049  -23.7187   17.1497 H         1 UNK         0.0798 
    105 H105      -56.0167  -24.0442   16.5130 H         1 UNK         0.0798 
    106 H106      -53.3933  -26.7624   16.3944 H         1 UNK         0.3198 
    107 H107      -55.5444  -28.3182   18.6377 H         1 UNK         0.0843 
    108 H108      -54.9239  -29.5533   15.8985 H         1 UNK         0.0831 
    109 H109      -56.5215  -29.4036   16.6142 H         1 UNK         0.0831 
    110 H110      -55.3253  -30.4466   17.3656 H         1 UNK         0.0831 
    111 H111      -52.8920  -28.2997   17.2408 H         1 UNK         0.3133 
    112 H112      -51.2438  -28.9212   20.2877 H         1 UNK         0.0566 
    113 H113      -50.1407  -30.8532   19.1819 H         1 UNK         0.0814 
    114 H114      -51.4596  -30.9709   18.0151 H         1 UNK         0.0814 
    115 H115      -51.7514  -31.2988   19.7170 H         1 UNK         0.0814 
    116 H116      -50.3166  -28.8224   17.5695 H         1 UNK         0.3091 
    117 H117      -50.3575  -25.3723   17.1199 H         1 UNK         0.0702 
    118 H118      -47.8881  -25.3653   17.0440 H         1 UNK         0.0785 
    119 H119      -47.8206  -26.8891   17.9315 H         1 UNK         0.0785 
    120 H120      -48.4212  -25.4335   18.7137 H         1 UNK         0.0785 
    121 H121      -48.8583  -27.0485   15.5858 H         1 UNK         0.2998 
    122 H122      -49.4698  -27.8145   13.6484 H         1 UNK         0.0697 
    123 H123      -51.9343  -29.6317   13.9362 H         1 UNK         0.0825 
    124 H124      -50.3098  -30.0356   14.4733 H         1 UNK         0.0825 
    125 H125      -50.6329  -29.8238   12.7641 H         1 UNK         0.0825 
    126 H126      -51.9967  -27.7047   12.3737 H         1 UNK         0.3029 
    127 H127      -53.1547  -25.6768   11.8706 H         1 UNK         0.0897 
    128 H128      -51.3060  -23.2533   11.5144 H         1 UNK         0.0792 
    129 H129      -52.5464  -23.4128   12.7529 H         1 UNK         0.0792 
    130 H130      -53.0058  -23.3410   11.0589 H         1 UNK         0.0792 
    131 H131      -50.7432  -25.7589   10.1941 H         1 UNK         0.3086 
    132 H132      -51.2257  -27.1065    8.1985 H         1 UNK         0.0583 
    133 H133      -53.6245  -27.3231    7.2049 H         1 UNK         0.1020 
    134 H134      -53.3496  -25.8042    6.4184 H         1 UNK         0.1020 
    135 H135      -53.4089  -29.4158    5.3530 H         1 UNK         0.0694 
    136 H136      -51.7482  -29.9012    5.1206 H         1 UNK         0.0694 
    137 H137      -49.9711  -25.4133    7.5225 H         1 UNK         0.2989 
    138 H138      -50.4852  -22.3339    6.0720 H         1 UNK         0.1055 
    139 H139      -49.4467  -22.6041    8.9471 H         1 UNK         0.0806 
    140 H140      -50.6194  -21.4295    8.3735 H         1 UNK         0.0806 
    141 H141      -48.9588  -21.3530    7.8050 H         1 UNK         0.0806 
    142 H142      -48.2636  -23.9183    7.1959 H         1 UNK         0.3061 
    143 H143      -47.6710  -25.9873    5.3203 H         1 UNK         0.0734 
    144 H144      -46.8493  -24.0346    3.1064 H         1 UNK         0.0832 
    145 H145      -46.1016  -25.6055    3.3967 H         1 UNK         0.0832 
    146 H146      -47.7867  -25.5066    2.9145 H         1 UNK         0.0832 
    147 H147      -46.0670  -25.1907    6.5716 H         1 UNK         0.3156 
    148 H148      -43.8314  -22.6022    6.5052 H         1 UNK         0.0589 
    149 H149      -44.5608  -21.7585    8.7517 H         1 UNK         0.0808 
    150 H150      -45.5204  -21.0587    7.4596 H         1 UNK         0.0808 
    151 H151      -46.1969  -22.3451    8.4436 H         1 UNK         0.0808 
    152 H152      -44.8043  -24.3947    8.5928 H         1 UNK         0.3098 
    153 H153      -43.1545  -27.2583    7.4636 H         1 UNK         0.0720 
    154 H154      -41.1599  -26.1006    8.4314 H         1 UNK         0.0791 
    155 H155      -41.8630  -27.2213    9.5841 H         1 UNK         0.0791 
    156 H156      -42.1401  -25.4869    9.7553 H         1 UNK         0.0791 
    157 H157      -44.3214  -26.6760    9.9861 H         1 UNK         0.3028 
@<TRIPOS>BOND
     1    1    2 1    
     2    1   82 1    
     3    1   83 1    
     4    1   84 1    
     5    2    3 2    
     6    2    4 am   BACKBONE|DICT|INTERRES
     7    4    5 1    
     8    4   85 1    
     9    5    6 1    
    10    5   80 1    
    11    5   86 1    
    12    6    7 1    
    13    6   87 1    
    14    6   88 1    
    15    7    8 1    
    16    8    9 1    
    17    8   89 1    
    18    8   90 1    
    19    9   10 ar   
    20    9   14 ar   
    21   10   11 ar   
    22   10   91 1    
    23   11   12 ar   
    24   11   58 1    
    25   12   13 ar   
    26   12   92 1    
    27   13   14 ar   
    28   13   15 1    
    29   14   93 1    
    30   15   16 1    
    31   15   94 1    
    32   15   95 1    
    33   16   17 1    
    34   17   18 1    
    35   17   96 1    
    36   17   97 1    
    37   18   19 1    
    38   18   22 1    
    39   18   98 1    
    40   19   20 am   BACKBONE|DICT|INTERRES
    41   19   21 2    
    42   20   99 1    
    43   20  100 1    
    44   22   23 am   BACKBONE|DICT|INTERRES
    45   22  101 1    
    46   23   24 2    
    47   23   25 1    
    48   25   26 1    
    49   25   27 1    
    50   25  102 1    
    51   26  103 1    
    52   26  104 1    
    53   26  105 1    
    54   27   28 am   BACKBONE|DICT|INTERRES
    55   27  106 1    
    56   28   29 2    
    57   28   30 1    
    58   30   31 1    
    59   30   32 1    
    60   30  107 1    
    61   31  108 1    
    62   31  109 1    
    63   31  110 1    
    64   32   33 am   BACKBONE|DICT|INTERRES
    65   32  111 1    
    66   33   34 2    
    67   33   35 1    
    68   35   36 1    
    69   35   37 1    
    70   35  112 1    
    71   36  113 1    
    72   36  114 1    
    73   36  115 1    
    74   37   38 am   BACKBONE|DICT|INTERRES
    75   37  116 1    
    76   38   39 2    
    77   38   40 1    
    78   40   41 1    
    79   40   42 1    
    80   40  117 1    
    81   41  118 1    
    82   41  119 1    
    83   41  120 1    
    84   42   43 am   BACKBONE|DICT|INTERRES
    85   42  121 1    
    86   43   44 2    
    87   43   45 1    
    88   45   46 1    
    89   45   47 1    
    90   45  122 1    
    91   46  123 1    
    92   46  124 1    
    93   46  125 1    
    94   47   48 am   BACKBONE|DICT|INTERRES
    95   47  126 1    
    96   48   49 2    
    97   48   50 1    
    98   50   51 1    
    99   50   52 1    
   100   50  127 1    
   101   51  128 1    
   102   51  129 1    
   103   51  130 1    
   104   52   53 am   BACKBONE|DICT|INTERRES
   105   52  131 1    
   106   53   54 2    
   107   53   55 1    
   108   55   56 1    
   109   55   59 1    
   110   55  132 1    
   111   56   57 1    
   112   56  133 1    
   113   56  134 1    
   114   57   58 1    
   115   58  135 1    
   116   58  136 1    
   117   59   60 am   BACKBONE|DICT|INTERRES
   118   59  137 1    
   119   60   61 2    
   120   60   62 1    
   121   62   63 1    
   122   62   64 1    
   123   62  138 1    
   124   63  139 1    
   125   63  140 1    
   126   63  141 1    
   127   64   65 am   BACKBONE|DICT|INTERRES
   128   64  142 1    
   129   65   66 2    
   130   65   67 1    
   131   67   68 1    
   132   67   69 1    
   133   67  143 1    
   134   68  144 1    
   135   68  145 1    
   136   68  146 1    
   137   69   70 am   BACKBONE|DICT|INTERRES
   138   69  147 1    
   139   70   71 2    
   140   70   72 1    
   141   72   73 1    
   142   72   74 1    
   143   72  148 1    
   144   73  149 1    
   145   73  150 1    
   146   73  151 1    
   147   74   75 am   BACKBONE|DICT|INTERRES
   148   74  152 1    
   149   75   76 2    
   150   75   77 1    
   151   77   78 1    
   152   77   79 1    
   153   77  153 1    
   154   78  154 1    
   155   78  155 1    
   156   78  156 1    
   157   79   80 am   BACKBONE|DICT|INTERRES
   158   79  157 1    
   159   80   81 2    
@<TRIPOS>SUBSTRUCTURE
     1 UNK         1 GROUP             0       ****    0 ROOT    
