@<TRIPOS>MOLECULE
3R207
157   159    1
SMALL
USER_CHARGES


@<TRIPOS>ATOM
      1 CA        -46.9835  -28.4938    6.0508 C.3       0 UNK        -0.1975 
      2 C         -47.9589  -27.5060    5.4318 C.2       0 UNK         0.4852 
      3 O         -47.5246  -26.5078    4.8586 O.2       0 UNK        -0.5216 
      4 N         -49.2686  -27.7813    5.5238 N.am      1 UNK        -0.4461 
      5 CA        -50.3314  -26.9840    4.8926 C.3       1 UNK         0.0864 
      6 C6        -51.7134  -27.6954    4.8655 C.3       14 UNK        -0.0898 
      7 S7        -51.6204  -29.4848    4.4944 S.3       14 UNK        -0.2598 
      8 C8        -52.7650  -30.2154    5.7174 C.3       14 UNK         0.0286 
      9 C9        -52.4326  -29.8313    7.1549 C.ar      14 UNK        -0.0844 
     10 C10       -51.2705  -30.3111    7.7696 C.ar      14 UNK        -0.0881 
     11 C11       -50.9549  -29.9293    9.0775 C.ar      14 UNK        -0.0643 
     12 C12       -51.8182  -29.0806    9.7741 C.ar      14 UNK        -0.0930 
     13 C13       -52.9813  -28.5973    9.1733 C.ar      14 UNK        -0.0827 
     14 C14       -53.2884  -28.9817    7.8662 C.ar      14 UNK        -0.1249 
     15 C15       -53.8705  -27.6199    9.9268 C.3       14 UNK         0.0141 
     16 S16       -55.2292  -28.4408   10.8261 S.3       14 UNK        -0.2313 
     17 C17       -54.3150  -29.4954   11.9964 C.3       14 UNK        -0.0915 
     18 CA        -55.2048  -30.0596   13.1358 C.3       13 UNK         0.0968 
     19 C         -54.4773  -31.2363   13.8495 C.2       13 UNK         0.5732 
     20 N         -53.9832  -31.0706   15.0719 N.am      13 UNK        -0.7310 
     21 O         -54.3674  -32.3220   13.2851 O.2       13 UNK        -0.5035 
     22 N         -55.6589  -29.0131   14.0703 N.am      13 UNK        -0.4233 
     23 C         -56.7414  -29.1363   14.8516 C.2       13 UNK         0.4989 
     24 O         -57.5673  -30.0404   14.7140 O.2       13 UNK        -0.4996 
     25 CA        -56.9561  -28.1317   16.0003 C.3       12 UNK         0.0216 
     26 CB        -56.7362  -28.8160   17.3633 C.3       12 UNK        -0.1964 
     27 N         -56.1284  -26.9216   15.9280 N.am      12 UNK        -0.4276 
     28 C         -56.5184  -25.7155   16.3732 C.2       12 UNK         0.5020 
     29 O         -57.6229  -25.4992   16.8752 O.2       12 UNK        -0.5489 
     30 CA        -55.5233  -24.5404   16.2535 C.3       11 UNK         0.0294 
     31 CB        -54.7755  -24.3347   17.5807 C.3       11 UNK        -0.2019 
     32 N         -54.5454  -24.7114   15.1792 N.am      11 UNK        -0.4493 
     33 C         -54.8509  -24.7767   13.8773 C.2       11 UNK         0.4932 
     34 O         -55.9627  -24.4959   13.4287 O.2       11 UNK        -0.5029 
     35 CA        -53.7691  -25.2922   12.9097 C.3       10 UNK         0.0280 
     36 CB        -53.3552  -24.1920   11.9177 C.3       10 UNK        -0.1976 
     37 N         -52.5668  -25.8868   13.5161 N.am      10 UNK        -0.4242 
     38 C         -52.5262  -26.9143   14.3792 C.2       10 UNK         0.5072 
     39 O         -53.5329  -27.4662   14.8241 O.2       10 UNK        -0.5224 
     40 CA        -51.1481  -27.4110   14.8491 C.3       9 UNK         0.0343 
     41 CB        -50.7145  -28.6224   14.0112 C.3       9 UNK        -0.2003 
     42 N         -50.1022  -26.3839   14.8203 N.am      9 UNK        -0.4272 
     43 C         -50.0935  -25.2878   15.5958 C.2       9 UNK         0.4988 
     44 O         -50.9583  -25.0355   16.4356 O.2       9 UNK        -0.5108 
     45 CA        -48.9474  -24.2881   15.3681 C.3       8 UNK         0.0248 
     46 CB        -47.6684  -24.7330   16.0959 C.3       8 UNK        -0.2001 
     47 N         -48.6750  -24.1005   13.9417 N.am      8 UNK        -0.4140 
     48 C         -49.4861  -23.4327   13.1077 C.2       8 UNK         0.5028 
     49 O         -50.4782  -22.8049   13.4754 O.2       8 UNK        -0.5428 
     50 CA        -49.1586  -23.5029   11.6077 C.3       7 UNK         0.0264 
     51 CB        -48.2343  -22.3419   11.2092 C.3       7 UNK        -0.1988 
     52 N         -48.5647  -24.7916   11.2298 N.am      7 UNK        -0.4454 
     53 C         -49.2642  -25.9386   11.1816 C.2       7 UNK         0.5027 
     54 O         -50.4773  -25.9924   11.3766 O.2       7 UNK        -0.5083 
     55 CA        -48.5118  -27.2568   10.9076 C.3       6 UNK         0.0844 
     56 C56       -48.7066  -27.7191    9.4470 C.3       14 UNK        -0.0967 
     57 S57       -48.2076  -29.4568    9.1913 S.3       14 UNK        -0.2604 
     58 C58       -49.6693  -30.4009    9.7405 C.3       14 UNK         0.0134 
     59 N         -47.1051  -27.1941   11.3015 N.am      6 UNK        -0.4116 
     60 C         -46.6897  -27.1257   12.5738 C.2       5 UNK         0.5034 
     61 O         -47.4549  -27.1365   13.5393 O.2       5 UNK        -0.5045 
     62 CA        -45.1777  -26.9553   12.8081 C.3       5 UNK         0.0224 
     63 CB        -44.5052  -28.3257   12.9829 C.3       5 UNK        -0.1978 
     64 N         -44.4960  -26.2073   11.7433 N.am      5 UNK        -0.4737 
     65 C         -44.7823  -24.9445   11.3964 C.2       4 UNK         0.5027 
     66 O         -45.6466  -24.2746   11.9630 O.2       4 UNK        -0.5211 
     67 CA        -44.0235  -24.3283   10.2020 C.3       4 UNK         0.0297 
     68 CB        -43.0495  -25.3017    9.4982 C.3       4 UNK        -0.1993 
     69 N         -44.9481  -23.7318    9.2266 N.am      4 UNK        -0.4486 
     70 C         -45.9441  -24.3629    8.5893 C.2       3 UNK         0.4961 
     71 O         -46.1920  -25.5646    8.7174 O.2       3 UNK        -0.5105 
     72 CA        -46.8106  -23.5131    7.6516 C.3       3 UNK         0.0299 
     73 CB        -46.1895  -23.4442    6.2476 C.3       3 UNK        -0.1972 
     74 N         -48.1290  -24.1365    7.5707 N.am      3 UNK        -0.4305 
     75 C         -49.3069  -23.5110    7.6806 C.2       2 UNK         0.5006 
     76 O         -49.4279  -22.2865    7.7418 O.2       2 UNK        -0.5106 
     77 CA        -50.5532  -24.4161    7.7728 C.3       2 UNK         0.0296 
     78 CB        -51.8819  -23.6509    7.5950 C.3       2 UNK        -0.2002 
     79 N         -50.4873  -25.5836    6.8853 N.am      2 UNK        -0.4032 
     80 C         -50.4571  -25.5911    5.5424 C.2       1 UNK         0.5000 
     81 O         -50.5106  -24.5851    4.8332 O.2       1 UNK        -0.5238 
     82 H82       -47.4716  -29.4301    6.3194 H         1 UNK         0.0889 
     83 H83       -46.5319  -28.0664    6.9459 H         1 UNK         0.0889 
     84 H84       -46.1855  -28.7246    5.3457 H         1 UNK         0.0889 
     85 H85       -49.5741  -28.6341    5.9719 H         1 UNK         0.3028 
     86 H86       -50.0290  -26.8281    3.8544 H         1 UNK         0.0864 
     87 H87       -52.2386  -27.5516    5.8088 H         1 UNK         0.0720 
     88 H88       -52.3501  -27.2304    4.1108 H         1 UNK         0.0720 
     89 H89       -52.7365  -31.3017    5.6220 H         1 UNK         0.0814 
     90 H90       -53.7838  -29.9167    5.4652 H         1 UNK         0.0814 
     91 H91       -50.6020  -30.9630    7.2237 H         1 UNK         0.1469 
     92 H92       -51.5698  -28.7699   10.7788 H         1 UNK         0.1381 
     93 H93       -54.1858  -28.6019    7.3969 H         1 UNK         0.1206 
     94 H94       -54.2967  -26.8966    9.2302 H         1 UNK         0.0813 
     95 H95       -53.2589  -27.0432   10.6201 H         1 UNK         0.0813 
     96 H96       -53.4758  -28.9343   12.4080 H         1 UNK         0.0638 
     97 H97       -53.8826  -30.3090   11.4105 H         1 UNK         0.0638 
     98 H98       -56.0863  -30.4997   12.6656 H         1 UNK         0.0568 
     99 H99       -53.5213  -31.8434   15.5240 H         1 UNK         0.3450 
    100 H100      -54.0496  -30.1795   15.5359 H         1 UNK         0.3450 
    101 H101      -54.9705  -28.2925   14.2679 H         1 UNK         0.2987 
    102 H102      -58.0067  -27.8407   15.9324 H         1 UNK         0.0766 
    103 H103      -57.0179  -28.1598   18.1870 H         1 UNK         0.0798 
    104 H104      -55.6934  -29.1021   17.5047 H         1 UNK         0.0798 
    105 H105      -57.3393  -29.7206   17.4542 H         1 UNK         0.0798 
    106 H106      -55.1884  -27.0201   15.5518 H         1 UNK         0.3198 
    107 H107      -56.1031  -23.6397   16.0404 H         1 UNK         0.0843 
    108 H108      -54.1595  -25.1984   17.8351 H         1 UNK         0.0831 
    109 H109      -55.4754  -24.1792   18.4030 H         1 UNK         0.0831 
    110 H110      -54.1260  -23.4600   17.5398 H         1 UNK         0.0831 
    111 H111      -53.6018  -24.9462   15.4556 H         1 UNK         0.3133 
    112 H112      -54.2578  -26.0866   12.3491 H         1 UNK         0.0566 
    113 H113      -52.6909  -24.5757   11.1441 H         1 UNK         0.0814 
    114 H114      -54.2250  -23.7736   11.4094 H         1 UNK         0.0814 
    115 H115      -52.8481  -23.3693   12.4214 H         1 UNK         0.0814 
    116 H116      -51.6826  -25.5486   13.1565 H         1 UNK         0.3091 
    117 H117      -51.2556  -27.7380   15.8854 H         1 UNK         0.0702 
    118 H118      -49.7245  -28.9775   14.2985 H         1 UNK         0.0785 
    119 H119      -50.6956  -28.3851   12.9493 H         1 UNK         0.0785 
    120 H120      -51.4091  -29.4534   14.1428 H         1 UNK         0.0785 
    121 H121      -49.3112  -26.5497   14.2069 H         1 UNK         0.2998 
    122 H122      -49.2543  -23.3272   15.7870 H         1 UNK         0.0697 
    123 H123      -47.3081  -25.6987   15.7414 H         1 UNK         0.0825 
    124 H124      -47.8468  -24.8284   17.1678 H         1 UNK         0.0825 
    125 H125      -46.8653  -24.0075   15.9655 H         1 UNK         0.0825 
    126 H126      -47.8701  -24.5766   13.5582 H         1 UNK         0.3029 
    127 H127      -50.0963  -23.3873   11.0589 H         1 UNK         0.0897 
    128 H128      -47.9740  -22.3793   10.1541 H         1 UNK         0.0792 
    129 H129      -48.7254  -21.3837   11.3836 H         1 UNK         0.0792 
    130 H130      -47.3092  -22.3358   11.7849 H         1 UNK         0.0792 
    131 H131      -47.5570  -24.8144   11.1188 H         1 UNK         0.3086 
    132 H132      -48.9819  -28.0071   11.5434 H         1 UNK         0.0583 
    133 H133      -49.7377  -27.5864    9.1247 H         1 UNK         0.1020 
    134 H134      -48.1225  -27.1032    8.7673 H         1 UNK         0.1020 
    135 H135      -49.5106  -31.4570    9.5181 H         1 UNK         0.0694 
    136 H136      -49.7505  -30.3297   10.8263 H         1 UNK         0.0694 
    137 H137      -46.4256  -27.1356   10.5545 H         1 UNK         0.2989 
    138 H138      -45.0591  -26.3923   13.7367 H         1 UNK         0.1055 
    139 H139      -44.9799  -28.8934   13.7847 H         1 UNK         0.0806 
    140 H140      -43.4518  -28.2214   13.2435 H         1 UNK         0.0806 
    141 H141      -44.5701  -28.9275   12.0754 H         1 UNK         0.0806 
    142 H142      -43.7825  -26.6979   11.2233 H         1 UNK         0.3061 
    143 H143      -43.4334  -23.5075   10.6122 H         1 UNK         0.0734 
    144 H144      -42.5309  -24.8064    8.6772 H         1 UNK         0.0832 
    145 H145      -42.2806  -25.6604   10.1837 H         1 UNK         0.0832 
    146 H146      -43.5612  -26.1708    9.0825 H         1 UNK         0.0832 
    147 H147      -44.8408  -22.7375    9.0798 H         1 UNK         0.3156 
    148 H148      -46.8880  -22.5040    8.0605 H         1 UNK         0.0589 
    149 H149      -45.2161  -22.9528    6.2723 H         1 UNK         0.0808 
    150 H150      -46.0429  -24.4380    5.8227 H         1 UNK         0.0808 
    151 H151      -46.8223  -22.8794    5.5628 H         1 UNK         0.0808 
    152 H152      -48.1019  -25.1460    7.5505 H         1 UNK         0.3098 
    153 H153      -50.5557  -24.8129    8.7878 H         1 UNK         0.0720 
    154 H154      -51.9435  -23.1637    6.6215 H         1 UNK         0.0791 
    155 H155      -51.9889  -22.8744    8.3536 H         1 UNK         0.0791 
    156 H156      -52.7391  -24.3170    7.6935 H         1 UNK         0.0791 
    157 H157      -50.4610  -26.4828    7.3428 H         1 UNK         0.3028 
@<TRIPOS>BOND
     1    1    2 1    
     2    1   82 1    
     3    1   83 1    
     4    1   84 1    
     5    2    3 2    
     6    2    4 am   BACKBONE|DICT|INTERRES
     7    4    5 1    
     8    4   85 1    
     9    5    6 1    
    10    5   80 1    
    11    5   86 1    
    12    6    7 1    
    13    6   87 1    
    14    6   88 1    
    15    7    8 1    
    16    8    9 1    
    17    8   89 1    
    18    8   90 1    
    19    9   10 ar   
    20    9   14 ar   
    21   10   11 ar   
    22   10   91 1    
    23   11   12 ar   
    24   11   58 1    
    25   12   13 ar   
    26   12   92 1    
    27   13   14 ar   
    28   13   15 1    
    29   14   93 1    
    30   15   16 1    
    31   15   94 1    
    32   15   95 1    
    33   16   17 1    
    34   17   18 1    
    35   17   96 1    
    36   17   97 1    
    37   18   19 1    
    38   18   22 1    
    39   18   98 1    
    40   19   20 am   BACKBONE|DICT|INTERRES
    41   19   21 2    
    42   20   99 1    
    43   20  100 1    
    44   22   23 am   BACKBONE|DICT|INTERRES
    45   22  101 1    
    46   23   24 2    
    47   23   25 1    
    48   25   26 1    
    49   25   27 1    
    50   25  102 1    
    51   26  103 1    
    52   26  104 1    
    53   26  105 1    
    54   27   28 am   BACKBONE|DICT|INTERRES
    55   27  106 1    
    56   28   29 2    
    57   28   30 1    
    58   30   31 1    
    59   30   32 1    
    60   30  107 1    
    61   31  108 1    
    62   31  109 1    
    63   31  110 1    
    64   32   33 am   BACKBONE|DICT|INTERRES
    65   32  111 1    
    66   33   34 2    
    67   33   35 1    
    68   35   36 1    
    69   35   37 1    
    70   35  112 1    
    71   36  113 1    
    72   36  114 1    
    73   36  115 1    
    74   37   38 am   BACKBONE|DICT|INTERRES
    75   37  116 1    
    76   38   39 2    
    77   38   40 1    
    78   40   41 1    
    79   40   42 1    
    80   40  117 1    
    81   41  118 1    
    82   41  119 1    
    83   41  120 1    
    84   42   43 am   BACKBONE|DICT|INTERRES
    85   42  121 1    
    86   43   44 2    
    87   43   45 1    
    88   45   46 1    
    89   45   47 1    
    90   45  122 1    
    91   46  123 1    
    92   46  124 1    
    93   46  125 1    
    94   47   48 am   BACKBONE|DICT|INTERRES
    95   47  126 1    
    96   48   49 2    
    97   48   50 1    
    98   50   51 1    
    99   50   52 1    
   100   50  127 1    
   101   51  128 1    
   102   51  129 1    
   103   51  130 1    
   104   52   53 am   BACKBONE|DICT|INTERRES
   105   52  131 1    
   106   53   54 2    
   107   53   55 1    
   108   55   56 1    
   109   55   59 1    
   110   55  132 1    
   111   56   57 1    
   112   56  133 1    
   113   56  134 1    
   114   57   58 1    
   115   58  135 1    
   116   58  136 1    
   117   59   60 am   BACKBONE|DICT|INTERRES
   118   59  137 1    
   119   60   61 2    
   120   60   62 1    
   121   62   63 1    
   122   62   64 1    
   123   62  138 1    
   124   63  139 1    
   125   63  140 1    
   126   63  141 1    
   127   64   65 am   BACKBONE|DICT|INTERRES
   128   64  142 1    
   129   65   66 2    
   130   65   67 1    
   131   67   68 1    
   132   67   69 1    
   133   67  143 1    
   134   68  144 1    
   135   68  145 1    
   136   68  146 1    
   137   69   70 am   BACKBONE|DICT|INTERRES
   138   69  147 1    
   139   70   71 2    
   140   70   72 1    
   141   72   73 1    
   142   72   74 1    
   143   72  148 1    
   144   73  149 1    
   145   73  150 1    
   146   73  151 1    
   147   74   75 am   BACKBONE|DICT|INTERRES
   148   74  152 1    
   149   75   76 2    
   150   75   77 1    
   151   77   78 1    
   152   77   79 1    
   153   77  153 1    
   154   78  154 1    
   155   78  155 1    
   156   78  156 1    
   157   79   80 am   BACKBONE|DICT|INTERRES
   158   79  157 1    
   159   80   81 2    
@<TRIPOS>SUBSTRUCTURE
     1 UNK         1 GROUP             0       ****    0 ROOT    
