@<TRIPOS>MOLECULE
3R207
157   159    1
SMALL
USER_CHARGES


@<TRIPOS>ATOM
      1 CA        -53.1683  -23.7260   10.6935 C.3       0 UNK        -0.1975 
      2 C         -52.0852  -24.6189   10.1082 C.2       0 UNK         0.4852 
      3 O         -51.4186  -25.3304   10.8558 O.2       0 UNK        -0.5216 
      4 N         -51.9089  -24.5881    8.7797 N.am      1 UNK        -0.4461 
      5 CA        -50.9017  -25.3730    8.0579 C.3       1 UNK         0.0864 
      6 C6        -51.2514  -25.4834    6.5499 C.3       14 UNK        -0.0898 
      7 S7        -50.3400  -26.8110    5.6888 S.3       14 UNK        -0.2598 
      8 C8        -51.5318  -28.1910    5.7497 C.3       14 UNK         0.0286 
      9 C9        -51.8369  -28.5979    7.1833 C.ar      14 UNK        -0.0844 
     10 C10       -50.9017  -29.3305    7.9184 C.ar      14 UNK        -0.0881 
     11 C11       -51.1312  -29.6268    9.2650 C.ar      14 UNK        -0.0643 
     12 C12       -52.3242  -29.2128    9.8674 C.ar      14 UNK        -0.0930 
     13 C13       -53.2810  -28.5056    9.1325 C.ar      14 UNK        -0.0827 
     14 C14       -53.0316  -28.2017    7.7913 C.ar      14 UNK        -0.1249 
     15 C15       -54.5761  -28.0433    9.7841 C.3       14 UNK         0.0141 
     16 S16       -55.9683  -29.1294    9.3388 S.3       14 UNK        -0.2313 
     17 C17       -55.6892  -30.5627   10.4349 C.3       14 UNK        -0.0915 
     18 CA        -56.9285  -30.8943   11.3064 C.3       13 UNK         0.0968 
     19 C         -56.6684  -32.1627   12.1639 C.2       13 UNK         0.5732 
     20 N         -56.9697  -33.3409   11.6355 N.am      13 UNK        -0.7310 
     21 O         -56.1591  -32.0911   13.2814 O.2       13 UNK        -0.5035 
     22 N         -57.3369  -29.7409   12.1174 N.am      13 UNK        -0.4233 
     23 C         -58.4638  -29.6375   12.8273 C.2       13 UNK         0.4989 
     24 O         -59.3441  -30.5003   12.8472 O.2       13 UNK        -0.4996 
     25 CA        -58.6223  -28.3451   13.6556 C.3       12 UNK         0.0216 
     26 CB        -60.0004  -28.2424   14.3368 C.3       12 UNK        -0.1964 
     27 N         -57.5771  -28.2088   14.6758 N.am      12 UNK        -0.4276 
     28 C         -56.3009  -27.8774   14.4425 C.2       12 UNK         0.5020 
     29 O         -55.8510  -27.6457   13.3158 O.2       12 UNK        -0.5489 
     30 CA        -55.3701  -27.8558   15.6671 C.3       11 UNK         0.0294 
     31 CB        -54.9186  -29.2833   16.0184 C.3       11 UNK        -0.2019 
     32 N         -54.1828  -27.0354   15.4295 N.am      11 UNK        -0.4493 
     33 C         -54.1644  -25.7042   15.3146 C.2       11 UNK         0.4932 
     34 O         -55.1444  -24.9896   15.5363 O.2       11 UNK        -0.5029 
     35 CA        -52.8219  -25.0736   14.8861 C.3       10 UNK         0.0280 
     36 CB        -52.9697  -23.5749   14.5585 C.3       10 UNK        -0.1976 
     37 N         -51.7522  -25.2343   15.8775 N.am      10 UNK        -0.4242 
     38 C         -51.1488  -26.3796   16.2296 C.2       10 UNK         0.5072 
     39 O         -51.4508  -27.4879   15.7808 O.2       10 UNK        -0.5224 
     40 CA        -49.9681  -26.2371   17.2001 C.3       9 UNK         0.0343 
     41 CB        -49.4187  -27.5881   17.6969 C.3       9 UNK        -0.2003 
     42 N         -48.9157  -25.5054   16.5036 N.am      9 UNK        -0.4272 
     43 C         -48.1187  -24.5725   17.0405 C.2       9 UNK         0.4988 
     44 O         -48.1251  -24.2750   18.2356 O.2       9 UNK        -0.5108 
     45 CA        -47.1561  -23.8285   16.0899 C.3       8 UNK         0.0248 
     46 CB        -45.7475  -24.4394   16.1672 C.3       8 UNK        -0.2001 
     47 N         -47.5987  -23.8233   14.6920 N.am      8 UNK        -0.4140 
     48 C         -48.7171  -23.2356   14.2425 C.2       8 UNK         0.5028 
     49 O         -49.4236  -22.5022   14.9349 O.2       8 UNK        -0.5428 
     50 CA        -49.1553  -23.5443   12.7971 C.3       7 UNK         0.0264 
     51 CB        -48.9434  -22.3246   11.8874 C.3       7 UNK        -0.1988 
     52 N         -48.5412  -24.7261   12.1770 N.am      7 UNK        -0.4454 
     53 C         -48.6168  -25.9858   12.6377 C.2       7 UNK         0.5027 
     54 O         -49.1115  -26.2805   13.7245 O.2       7 UNK        -0.5083 
     55 CA        -48.0219  -27.1092   11.7664 C.3       6 UNK         0.0844 
     56 C56       -49.1556  -27.9253   11.1021 C.3       14 UNK        -0.0967 
     57 S57       -48.5404  -29.4182   10.2571 S.3       14 UNK        -0.2604 
     58 C58       -50.0793  -30.3776   10.0706 C.3       14 UNK         0.0134 
     59 N         -47.0553  -26.5985   10.7887 N.am      6 UNK        -0.4116 
     60 C         -45.8027  -26.2187   11.0791 C.2       5 UNK         0.5034 
     61 O         -45.3385  -26.2424   12.2204 O.2       5 UNK        -0.5045 
     62 CA        -44.9350  -25.6877    9.9185 C.3       5 UNK         0.0224 
     63 CB        -43.4327  -25.9839   10.1133 C.3       5 UNK        -0.1978 
     64 N         -45.3949  -26.1157    8.5907 N.am      5 UNK        -0.4737 
     65 C         -45.4422  -27.3627    8.0939 C.2       4 UNK         0.5027 
     66 O         -44.9991  -28.3495    8.6813 O.2       4 UNK        -0.5211 
     67 CA        -46.1210  -27.5533    6.7233 C.3       4 UNK         0.0297 
     68 CB        -47.2872  -28.5490    6.8325 C.3       4 UNK        -0.1993 
     69 N         -46.6426  -26.2948    6.1855 N.am      4 UNK        -0.4486 
     70 C         -46.0206  -25.5214    5.2860 C.2       3 UNK         0.4961 
     71 O         -44.9539  -25.8173    4.7472 O.2       3 UNK        -0.5105 
     72 CA        -46.6877  -24.1757    4.9388 C.3       3 UNK         0.0299 
     73 CB        -47.5675  -24.3234    3.6871 C.3       3 UNK        -0.1972 
     74 N         -47.4925  -23.6140    6.0290 N.am      3 UNK        -0.4305 
     75 C         -47.0143  -23.2237    7.2204 C.2       2 UNK         0.5006 
     76 O         -45.8223  -23.2563    7.5232 O.2       2 UNK        -0.5106 
     77 CA        -48.0421  -22.7874    8.2806 C.3       2 UNK         0.0296 
     78 CB        -48.2814  -21.2710    8.2074 C.3       2 UNK        -0.2002 
     79 N         -49.3260  -23.4934    8.1876 N.am      2 UNK        -0.4032 
     80 C         -49.4787  -24.8241    8.2765 C.2       1 UNK         0.5000 
     81 O         -48.5472  -25.6000    8.5020 O.2       1 UNK        -0.5238 
     82 H82       -52.7230  -22.9899   11.3622 H         1 UNK         0.0889 
     83 H83       -53.8753  -24.3251   11.2670 H         1 UNK         0.0889 
     84 H84       -53.7224  -23.1940    9.9207 H         1 UNK         0.0889 
     85 H85       -52.5020  -23.9964    8.2153 H         1 UNK         0.3028 
     86 H86       -50.9147  -26.3767    8.4857 H         1 UNK         0.0864 
     87 H87       -51.0641  -24.5412    6.0318 H         1 UNK         0.0720 
     88 H88       -52.3186  -25.6734    6.4264 H         1 UNK         0.0720 
     89 H89       -51.1171  -29.0428    5.2089 H         1 UNK         0.0814 
     90 H90       -52.4443  -27.9082    5.2225 H         1 UNK         0.0814 
     91 H91       -49.9749  -29.6371    7.4541 H         1 UNK         0.1469 
     92 H92       -52.5053  -29.4344   10.9100 H         1 UNK         0.1381 
     93 H93       -53.7617  -27.6369    7.2280 H         1 UNK         0.1206 
     94 H94       -54.4736  -27.9898   10.8693 H         1 UNK         0.0813 
     95 H95       -54.8027  -27.0285    9.4540 H         1 UNK         0.0813 
     96 H96       -54.8212  -30.3783   11.0700 H         1 UNK         0.0638 
     97 H97       -55.4274  -31.4129    9.8026 H         1 UNK         0.0638 
     98 H98       -57.7609  -31.1153   10.6353 H         1 UNK         0.0568 
     99 H99       -56.7935  -34.1763   12.1712 H         1 UNK         0.3450 
    100 H100      -57.3754  -33.4124   10.7153 H         1 UNK         0.3450 
    101 H101      -56.6506  -28.9995   12.2259 H         1 UNK         0.2987 
    102 H102      -58.5359  -27.5074   12.9599 H         1 UNK         0.0766 
    103 H103      -60.1156  -27.2924   14.8592 H         1 UNK         0.0798 
    104 H104      -60.1567  -29.0446   15.0593 H         1 UNK         0.0798 
    105 H105      -60.8047  -28.3039   13.6023 H         1 UNK         0.0798 
    106 H106      -57.8511  -28.4266   15.6236 H         1 UNK         0.3198 
    107 H107      -55.9143  -27.4333   16.5146 H         1 UNK         0.0843 
    108 H108      -54.3784  -29.7486   15.1923 H         1 UNK         0.0831 
    109 H109      -55.7716  -29.9232   16.2479 H         1 UNK         0.0831 
    110 H110      -54.2657  -29.2904   16.8915 H         1 UNK         0.0831 
    111 H111      -53.2997  -27.5210   15.2952 H         1 UNK         0.3133 
    112 H112      -52.5057  -25.5803   13.9712 H         1 UNK         0.0566 
    113 H113      -52.0426  -23.1522   14.1748 H         1 UNK         0.0814 
    114 H114      -53.7346  -23.4150   13.7976 H         1 UNK         0.0814 
    115 H115      -53.2594  -22.9966   15.4368 H         1 UNK         0.0814 
    116 H116      -51.4156  -24.3808   16.3003 H         1 UNK         0.3091 
    117 H117      -50.3213  -25.6658   18.0612 H         1 UNK         0.0702 
    118 H118      -48.6071  -27.4462   18.4106 H         1 UNK         0.0785 
    119 H119      -49.0385  -28.1945   16.8737 H         1 UNK         0.0785 
    120 H120      -50.1967  -28.1651   18.1984 H         1 UNK         0.0785 
    121 H121      -48.8684  -25.6838   15.5013 H         1 UNK         0.2998 
    122 H122      -47.1010  -22.7912   16.4265 H         1 UNK         0.0697 
    123 H123      -45.7360  -25.4732   15.8189 H         1 UNK         0.0825 
    124 H124      -45.3766  -24.4368   17.1932 H         1 UNK         0.0825 
    125 H125      -45.0351  -23.8742   15.5659 H         1 UNK         0.0825 
    126 H126      -47.0818  -24.4069   14.0499 H         1 UNK         0.3029 
    127 H127      -50.2269  -23.7454   12.8410 H         1 UNK         0.0897 
    128 H128      -47.8854  -22.1294   11.7093 H         1 UNK         0.0792 
    129 H129      -49.3715  -21.4241   12.3304 H         1 UNK         0.0792 
    130 H130      -49.4340  -22.4669   10.9254 H         1 UNK         0.0792 
    131 H131      -48.1220  -24.5921   11.2696 H         1 UNK         0.3086 
    132 H132      -47.4888  -27.7781   12.4457 H         1 UNK         0.0583 
    133 H133      -49.8900  -28.2355   11.8488 H         1 UNK         0.1020 
    134 H134      -49.6984  -27.3149   10.3792 H         1 UNK         0.1020 
    135 H135      -49.8500  -31.3191    9.5698 H         1 UNK         0.0694 
    136 H136      -50.4582  -30.6396   11.0596 H         1 UNK         0.0694 
    137 H137      -47.3901  -26.5085    9.8339 H         1 UNK         0.2989 
    138 H138      -45.0552  -24.6033    9.9373 H         1 UNK         0.1055 
    139 H139      -43.0567  -25.5180   11.0250 H         1 UNK         0.0806 
    140 H140      -42.8408  -25.5938    9.2853 H         1 UNK         0.0806 
    141 H141      -43.2359  -27.0533   10.1933 H         1 UNK         0.0806 
    142 H142      -45.7573  -25.3704    8.0079 H         1 UNK         0.3061 
    143 H143      -45.3749  -27.9737    6.0459 H         1 UNK         0.0734 
    144 H144      -47.7478  -28.7304    5.8614 H         1 UNK         0.0832 
    145 H145      -46.9525  -29.5128    7.2182 H         1 UNK         0.0832 
    146 H146      -48.0606  -28.1789    7.5064 H         1 UNK         0.0832 
    147 H147      -47.5065  -25.9675    6.6016 H         1 UNK         0.3156 
    148 H148      -45.8909  -23.4632    4.7149 H         1 UNK         0.0589 
    149 H149      -48.3991  -25.0090    3.8557 H         1 UNK         0.0808 
    150 H150      -47.9795  -23.3639    3.3739 H         1 UNK         0.0808 
    151 H151      -46.9895  -24.7142    2.8483 H         1 UNK         0.0808 
    152 H152      -48.4863  -23.5459    5.8674 H         1 UNK         0.3098 
    153 H153      -47.6109  -23.0191    9.2562 H         1 UNK         0.0720 
    154 H154      -48.9363  -20.9295    9.0089 H         1 UNK         0.0791 
    155 H155      -48.7315  -20.9775    7.2582 H         1 UNK         0.0791 
    156 H156      -47.3427  -20.7235    8.3054 H         1 UNK         0.0791 
    157 H157      -50.1444  -22.9268    8.0188 H         1 UNK         0.3028 
@<TRIPOS>BOND
     1    1    2 1    
     2    1   82 1    
     3    1   83 1    
     4    1   84 1    
     5    2    3 2    
     6    2    4 am   BACKBONE|DICT|INTERRES
     7    4    5 1    
     8    4   85 1    
     9    5    6 1    
    10    5   80 1    
    11    5   86 1    
    12    6    7 1    
    13    6   87 1    
    14    6   88 1    
    15    7    8 1    
    16    8    9 1    
    17    8   89 1    
    18    8   90 1    
    19    9   10 ar   
    20    9   14 ar   
    21   10   11 ar   
    22   10   91 1    
    23   11   12 ar   
    24   11   58 1    
    25   12   13 ar   
    26   12   92 1    
    27   13   14 ar   
    28   13   15 1    
    29   14   93 1    
    30   15   16 1    
    31   15   94 1    
    32   15   95 1    
    33   16   17 1    
    34   17   18 1    
    35   17   96 1    
    36   17   97 1    
    37   18   19 1    
    38   18   22 1    
    39   18   98 1    
    40   19   20 am   BACKBONE|DICT|INTERRES
    41   19   21 2    
    42   20   99 1    
    43   20  100 1    
    44   22   23 am   BACKBONE|DICT|INTERRES
    45   22  101 1    
    46   23   24 2    
    47   23   25 1    
    48   25   26 1    
    49   25   27 1    
    50   25  102 1    
    51   26  103 1    
    52   26  104 1    
    53   26  105 1    
    54   27   28 am   BACKBONE|DICT|INTERRES
    55   27  106 1    
    56   28   29 2    
    57   28   30 1    
    58   30   31 1    
    59   30   32 1    
    60   30  107 1    
    61   31  108 1    
    62   31  109 1    
    63   31  110 1    
    64   32   33 am   BACKBONE|DICT|INTERRES
    65   32  111 1    
    66   33   34 2    
    67   33   35 1    
    68   35   36 1    
    69   35   37 1    
    70   35  112 1    
    71   36  113 1    
    72   36  114 1    
    73   36  115 1    
    74   37   38 am   BACKBONE|DICT|INTERRES
    75   37  116 1    
    76   38   39 2    
    77   38   40 1    
    78   40   41 1    
    79   40   42 1    
    80   40  117 1    
    81   41  118 1    
    82   41  119 1    
    83   41  120 1    
    84   42   43 am   BACKBONE|DICT|INTERRES
    85   42  121 1    
    86   43   44 2    
    87   43   45 1    
    88   45   46 1    
    89   45   47 1    
    90   45  122 1    
    91   46  123 1    
    92   46  124 1    
    93   46  125 1    
    94   47   48 am   BACKBONE|DICT|INTERRES
    95   47  126 1    
    96   48   49 2    
    97   48   50 1    
    98   50   51 1    
    99   50   52 1    
   100   50  127 1    
   101   51  128 1    
   102   51  129 1    
   103   51  130 1    
   104   52   53 am   BACKBONE|DICT|INTERRES
   105   52  131 1    
   106   53   54 2    
   107   53   55 1    
   108   55   56 1    
   109   55   59 1    
   110   55  132 1    
   111   56   57 1    
   112   56  133 1    
   113   56  134 1    
   114   57   58 1    
   115   58  135 1    
   116   58  136 1    
   117   59   60 am   BACKBONE|DICT|INTERRES
   118   59  137 1    
   119   60   61 2    
   120   60   62 1    
   121   62   63 1    
   122   62   64 1    
   123   62  138 1    
   124   63  139 1    
   125   63  140 1    
   126   63  141 1    
   127   64   65 am   BACKBONE|DICT|INTERRES
   128   64  142 1    
   129   65   66 2    
   130   65   67 1    
   131   67   68 1    
   132   67   69 1    
   133   67  143 1    
   134   68  144 1    
   135   68  145 1    
   136   68  146 1    
   137   69   70 am   BACKBONE|DICT|INTERRES
   138   69  147 1    
   139   70   71 2    
   140   70   72 1    
   141   72   73 1    
   142   72   74 1    
   143   72  148 1    
   144   73  149 1    
   145   73  150 1    
   146   73  151 1    
   147   74   75 am   BACKBONE|DICT|INTERRES
   148   74  152 1    
   149   75   76 2    
   150   75   77 1    
   151   77   78 1    
   152   77   79 1    
   153   77  153 1    
   154   78  154 1    
   155   78  155 1    
   156   78  156 1    
   157   79   80 am   BACKBONE|DICT|INTERRES
   158   79  157 1    
   159   80   81 2    
@<TRIPOS>SUBSTRUCTURE
     1 UNK         1 GROUP             0       ****    0 ROOT    
