@<TRIPOS>MOLECULE
3R207
157   159    1
SMALL
USER_CHARGES


@<TRIPOS>ATOM
      1 CA        -45.4729  -29.7430    9.5277 C.3       0 UNK        -0.1975 
      2 C         -45.9830  -30.0317    8.1232 C.2       0 UNK         0.4852 
      3 O         -45.8202  -31.1480    7.6289 O.2       0 UNK        -0.5216 
      4 N         -46.5924  -29.0321    7.4807 N.am      1 UNK        -0.4461 
      5 CA        -47.1981  -29.1127    6.1510 C.3       1 UNK         0.0864 
      6 C6        -48.7128  -29.4593    6.2007 C.3       14 UNK        -0.0898 
      7 S7        -49.6918  -28.5214    7.4310 S.3       14 UNK        -0.2598 
      8 C8        -50.9990  -27.7892    6.3992 C.3       14 UNK         0.0286 
      9 C9        -52.2362  -27.4721    7.2274 C.ar      14 UNK        -0.0844 
     10 C10       -52.6104  -26.1502    7.4944 C.ar      14 UNK        -0.0881 
     11 C11       -53.7683  -25.8745    8.2325 C.ar      14 UNK        -0.0643 
     12 C12       -54.5483  -26.9343    8.7059 C.ar      14 UNK        -0.0930 
     13 C13       -54.1865  -28.2576    8.4401 C.ar      14 UNK        -0.0827 
     14 C14       -53.0316  -28.5194    7.7008 C.ar      14 UNK        -0.1249 
     15 C15       -55.0471  -29.4039    8.9442 C.3       14 UNK         0.0141 
     16 S16       -54.3977  -30.0369   10.5152 S.3       14 UNK        -0.2313 
     17 C17       -55.8138  -31.0040   11.1389 C.3       14 UNK        -0.0915 
     18 CA        -56.9763  -30.1514   11.7260 C.3       13 UNK         0.0968 
     19 C         -58.0311  -31.0744   12.4037 C.2       13 UNK         0.5732 
     20 N         -58.1998  -31.0397   13.7201 N.am      13 UNK        -0.7310 
     21 O         -58.7087  -31.8365   11.7180 O.2       13 UNK        -0.5035 
     22 N         -56.4849  -29.0304   12.5441 N.am      13 UNK        -0.4233 
     23 C         -57.2062  -27.9997   12.9983 C.2       13 UNK         0.4989 
     24 O         -58.4233  -27.8996   12.8351 O.2       13 UNK        -0.4996 
     25 CA        -56.4364  -26.8827   13.7409 C.3       12 UNK         0.0216 
     26 CB        -57.3724  -25.8878   14.4529 C.3       12 UNK        -0.1964 
     27 N         -55.4418  -27.3691   14.7069 N.am      12 UNK        -0.4276 
     28 C         -54.2631  -27.9216   14.3976 C.2       12 UNK         0.5020 
     29 O         -53.8946  -28.1290   13.2427 O.2       12 UNK        -0.5489 
     30 CA        -53.3284  -28.2538   15.5608 C.3       11 UNK         0.0294 
     31 CB        -52.4123  -29.4489   15.2388 C.3       11 UNK        -0.2019 
     32 N         -52.4964  -27.0837   15.8078 N.am      11 UNK        -0.4493 
     33 C         -52.6696  -26.2026   16.8009 C.2       11 UNK         0.4932 
     34 O         -53.6029  -26.2592   17.6034 O.2       11 UNK        -0.5029 
     35 CA        -51.6177  -25.0780   16.9177 C.3       10 UNK         0.0280 
     36 CB        -51.5054  -24.5046   18.3459 C.3       10 UNK        -0.1976 
     37 N         -50.3021  -25.4778   16.4012 N.am      10 UNK        -0.4242 
     38 C         -49.5195  -26.4789   16.8383 C.2       10 UNK         0.5072 
     39 O         -49.7407  -27.1325   17.8585 O.2       10 UNK        -0.5224 
     40 CA        -48.3021  -26.8471   15.9725 C.3       9 UNK         0.0343 
     41 CB        -48.4833  -28.2459   15.3554 C.3       9 UNK        -0.2003 
     42 N         -48.0821  -25.8828   14.8907 N.am      9 UNK        -0.4272 
     43 C         -47.1088  -24.9629   14.8834 C.2       9 UNK         0.4988 
     44 O         -46.2646  -24.8424   15.7719 O.2       9 UNK        -0.5108 
     45 CA        -47.0694  -24.0105   13.6800 C.3       8 UNK         0.0248 
     46 CB        -46.3985  -24.6878   12.4734 C.3       8 UNK        -0.2001 
     47 N         -48.3880  -23.5121   13.2840 N.am      8 UNK        -0.4140 
     48 C         -49.1400  -22.6618   13.9972 C.2       8 UNK         0.5028 
     49 O         -48.8494  -22.2735   15.1284 O.2       8 UNK        -0.5428 
     50 CA        -50.4292  -22.1507   13.3392 C.3       7 UNK         0.0264 
     51 CB        -50.1072  -21.0758   12.2874 C.3       7 UNK        -0.1988 
     52 N         -51.1676  -23.2389   12.6998 N.am      7 UNK        -0.4454 
     53 C         -52.3629  -23.6951   13.0996 C.2       7 UNK         0.5027 
     54 O         -52.9909  -23.2237   14.0484 O.2       7 UNK        -0.5083 
     55 CA        -52.9742  -24.8865   12.3273 C.3       6 UNK         0.0844 
     56 C56       -54.0492  -24.4182   11.3145 C.3       14 UNK        -0.0967 
     57 S57       -53.3434  -23.6140    9.8291 S.3       14 UNK        -0.2604 
     58 C58       -54.2185  -24.4361    8.4598 C.3       14 UNK         0.0134 
     59 N         -51.9874  -25.7578   11.6890 N.am      6 UNK        -0.4116 
     60 C         -50.9865  -26.4083   12.2921 C.2       5 UNK         0.5034 
     61 O         -50.7776  -26.3964   13.5071 O.2       5 UNK        -0.5045 
     62 CA        -49.9980  -27.1302   11.3627 C.3       5 UNK         0.0224 
     63 CB        -50.4749  -28.5669   11.1008 C.3       5 UNK        -0.1978 
     64 N         -49.7566  -26.4549   10.0776 N.am      5 UNK        -0.4737 
     65 C         -49.3699  -25.1814    9.9149 C.2       4 UNK         0.5027 
     66 O         -49.2587  -24.3735   10.8376 O.2       4 UNK        -0.5211 
     67 CA        -49.0539  -24.7186    8.4854 C.3       4 UNK         0.0297 
     68 CB        -49.8689  -23.4669    8.1206 C.3       4 UNK        -0.1993 
     69 N         -47.6327  -24.4131    8.3195 N.am      4 UNK        -0.4486 
     70 C         -46.6396  -25.3025    8.4199 C.2       3 UNK         0.4961 
     71 O         -46.7964  -26.4934    8.6985 O.2       3 UNK        -0.5105 
     72 CA        -45.2298  -24.8038    8.0769 C.3       3 UNK         0.0299 
     73 CB        -44.2494  -25.0418    9.2376 C.3       3 UNK        -0.1972 
     74 N         -44.7937  -25.5638    6.9112 N.am      3 UNK        -0.4305 
     75 C         -45.0837  -25.2385    5.6440 C.2       2 UNK         0.5006 
     76 O         -45.4816  -24.1295    5.2860 O.2       2 UNK        -0.5106 
     77 CA        -44.9760  -26.3797    4.6188 C.3       2 UNK         0.0296 
     78 CB        -43.5158  -26.6072    4.1944 C.3       2 UNK        -0.2002 
     79 N         -45.5434  -27.6245    5.1506 N.am      2 UNK        -0.4032 
     80 C         -46.8508  -27.8239    5.3870 C.2       1 UNK         0.5000 
     81 O         -47.7333  -27.0265    5.0634 O.2       1 UNK        -0.5238 
     82 H82       -45.7123  -28.7287    9.8475 H         1 UNK         0.0889 
     83 H83       -44.3911  -29.8654    9.5677 H         1 UNK         0.0889 
     84 H84       -45.9224  -30.4353   10.2389 H         1 UNK         0.0889 
     85 H85       -46.7084  -28.1308    7.9466 H         1 UNK         0.3028 
     86 H86       -46.7128  -29.9122    5.5866 H         1 UNK         0.0864 
     87 H87       -49.1565  -29.3633    5.2084 H         1 UNK         0.0720 
     88 H88       -48.8192  -30.5137    6.4594 H         1 UNK         0.0720 
     89 H89       -51.2812  -28.4846    5.6076 H         1 UNK         0.0814 
     90 H90       -50.6104  -26.8971    5.9053 H         1 UNK         0.0814 
     91 H91       -52.0165  -25.3357    7.1058 H         1 UNK         0.1469 
     92 H92       -55.4497  -26.7311    9.2673 H         1 UNK         0.1381 
     93 H93       -52.7475  -29.5427    7.4951 H         1 UNK         0.1206 
     94 H94       -56.0758  -29.0666    9.0747 H         1 UNK         0.0813 
     95 H95       -55.0753  -30.2105    8.2100 H         1 UNK         0.0813 
     96 H96       -55.4187  -31.6738   11.9050 H         1 UNK         0.0638 
     97 H97       -56.1786  -31.6463   10.3352 H         1 UNK         0.0638 
     98 H98       -57.4976  -29.6933   10.8843 H         1 UNK         0.0568 
     99 H99       -57.6541  -30.4117   14.2870 H         1 UNK         0.3450 
    100 H100      -58.8877  -31.6401   14.1463 H         1 UNK         0.3450 
    101 H101      -55.4771  -28.9868   12.6778 H         1 UNK         0.2987 
    102 H102      -55.9023  -26.3255   12.9691 H         1 UNK         0.0766 
    103 H103      -56.8114  -25.0735   14.9123 H         1 UNK         0.0798 
    104 H104      -57.9596  -26.3746   15.2324 H         1 UNK         0.0798 
    105 H105      -58.0734  -25.4343   13.7507 H         1 UNK         0.0798 
    106 H106      -55.6613  -27.2308   15.6839 H         1 UNK         0.3198 
    107 H107      -53.9247  -28.5070   16.4402 H         1 UNK         0.0843 
    108 H108      -52.9992  -30.3405   15.0152 H         1 UNK         0.0831 
    109 H109      -51.7639  -29.6871   16.0821 H         1 UNK         0.0831 
    110 H110      -51.7753  -29.2529   14.3752 H         1 UNK         0.0831 
    111 H111      -51.7651  -26.9080   15.1236 H         1 UNK         0.3133 
    112 H112      -51.9626  -24.2721   16.2703 H         1 UNK         0.0566 
    113 H113      -50.7554  -23.7153   18.3981 H         1 UNK         0.0814 
    114 H114      -52.4529  -24.0712   18.6681 H         1 UNK         0.0814 
    115 H115      -51.2373  -25.2722   19.0723 H         1 UNK         0.0814 
    116 H116      -50.0175  -25.0181   15.5489 H         1 UNK         0.3091 
    117 H117      -47.4361  -26.8829   16.6366 H         1 UNK         0.0702 
    118 H118      -47.6134  -28.5335   14.7649 H         1 UNK         0.0785 
    119 H119      -49.3589  -28.2967   14.7081 H         1 UNK         0.0785 
    120 H120      -48.6106  -29.0020   16.1314 H         1 UNK         0.0785 
    121 H121      -48.7443  -25.9104   14.1253 H         1 UNK         0.2998 
    122 H122      -46.4629  -23.1471   13.9619 H         1 UNK         0.0697 
    123 H123      -46.9546  -25.5627   12.1342 H         1 UNK         0.0825 
    124 H124      -45.3883  -25.0172   12.7198 H         1 UNK         0.0825 
    125 H125      -46.3215  -23.9993   11.6321 H         1 UNK         0.0825 
    126 H126      -48.7044  -23.7813   12.3516 H         1 UNK         0.3029 
    127 H127      -51.0324  -21.6849   14.1217 H         1 UNK         0.0897 
    128 H128      -51.0192  -20.6555   11.8631 H         1 UNK         0.0792 
    129 H129      -49.5449  -20.2519   12.7290 H         1 UNK         0.0792 
    130 H130      -49.5121  -21.4764   11.4654 H         1 UNK         0.0792 
    131 H131      -50.7074  -23.6971   11.9180 H         1 UNK         0.3086 
    132 H132      -53.4784  -25.4908   13.0806 H         1 UNK         0.0583 
    133 H133      -54.7557  -23.7315   11.7853 H         1 UNK         0.1020 
    134 H134      -54.6458  -25.2780   11.0113 H         1 UNK         0.1020 
    135 H135      -55.2934  -24.3926    8.6428 H         1 UNK         0.0694 
    136 H136      -54.0478  -23.8614    7.5483 H         1 UNK         0.0694 
    137 H137      -52.0503  -25.8215   10.6831 H         1 UNK         0.2989 
    138 H138      -49.0411  -27.1775   11.8857 H         1 UNK         0.1055 
    139 H139      -50.6684  -29.0938   12.0363 H         1 UNK         0.0806 
    140 H140      -49.7264  -29.1414   10.5549 H         1 UNK         0.0806 
    141 H141      -51.3999  -28.5847   10.5217 H         1 UNK         0.0806 
    142 H142      -49.7994  -27.0458    9.2555 H         1 UNK         0.3061 
    143 H143      -49.3130  -25.5149    7.7852 H         1 UNK         0.0734 
    144 H144      -50.9357  -23.6436    8.2416 H         1 UNK         0.0832 
    145 H145      -49.6123  -22.6169    8.7544 H         1 UNK         0.0832 
    146 H146      -49.7069  -23.1746    7.0830 H         1 UNK         0.0832 
    147 H147      -47.4041  -23.4578    8.0865 H         1 UNK         0.3156 
    148 H148      -45.2494  -23.7360    7.8481 H         1 UNK         0.0589 
    149 H149      -44.2332  -26.0857    9.5542 H         1 UNK         0.0808 
    150 H150      -43.2331  -24.7614    8.9601 H         1 UNK         0.0808 
    151 H151      -44.5221  -24.4415   10.1052 H         1 UNK         0.0808 
    152 H152      -44.4952  -26.5096    7.0963 H         1 UNK         0.3098 
    153 H153      -45.5489  -26.0925    3.7344 H         1 UNK         0.0720 
    154 H154      -43.4432  -27.3722    3.4209 H         1 UNK         0.0791 
    155 H155      -42.8895  -26.9165    5.0320 H         1 UNK         0.0791 
    156 H156      -43.0836  -25.6931    3.7848 H         1 UNK         0.0791 
    157 H157      -44.8900  -28.3395    5.4376 H         1 UNK         0.3028 
@<TRIPOS>BOND
     1    1    2 1    
     2    1   82 1    
     3    1   83 1    
     4    1   84 1    
     5    2    3 2    
     6    2    4 am   BACKBONE|DICT|INTERRES
     7    4    5 1    
     8    4   85 1    
     9    5    6 1    
    10    5   80 1    
    11    5   86 1    
    12    6    7 1    
    13    6   87 1    
    14    6   88 1    
    15    7    8 1    
    16    8    9 1    
    17    8   89 1    
    18    8   90 1    
    19    9   10 ar   
    20    9   14 ar   
    21   10   11 ar   
    22   10   91 1    
    23   11   12 ar   
    24   11   58 1    
    25   12   13 ar   
    26   12   92 1    
    27   13   14 ar   
    28   13   15 1    
    29   14   93 1    
    30   15   16 1    
    31   15   94 1    
    32   15   95 1    
    33   16   17 1    
    34   17   18 1    
    35   17   96 1    
    36   17   97 1    
    37   18   19 1    
    38   18   22 1    
    39   18   98 1    
    40   19   20 am   BACKBONE|DICT|INTERRES
    41   19   21 2    
    42   20   99 1    
    43   20  100 1    
    44   22   23 am   BACKBONE|DICT|INTERRES
    45   22  101 1    
    46   23   24 2    
    47   23   25 1    
    48   25   26 1    
    49   25   27 1    
    50   25  102 1    
    51   26  103 1    
    52   26  104 1    
    53   26  105 1    
    54   27   28 am   BACKBONE|DICT|INTERRES
    55   27  106 1    
    56   28   29 2    
    57   28   30 1    
    58   30   31 1    
    59   30   32 1    
    60   30  107 1    
    61   31  108 1    
    62   31  109 1    
    63   31  110 1    
    64   32   33 am   BACKBONE|DICT|INTERRES
    65   32  111 1    
    66   33   34 2    
    67   33   35 1    
    68   35   36 1    
    69   35   37 1    
    70   35  112 1    
    71   36  113 1    
    72   36  114 1    
    73   36  115 1    
    74   37   38 am   BACKBONE|DICT|INTERRES
    75   37  116 1    
    76   38   39 2    
    77   38   40 1    
    78   40   41 1    
    79   40   42 1    
    80   40  117 1    
    81   41  118 1    
    82   41  119 1    
    83   41  120 1    
    84   42   43 am   BACKBONE|DICT|INTERRES
    85   42  121 1    
    86   43   44 2    
    87   43   45 1    
    88   45   46 1    
    89   45   47 1    
    90   45  122 1    
    91   46  123 1    
    92   46  124 1    
    93   46  125 1    
    94   47   48 am   BACKBONE|DICT|INTERRES
    95   47  126 1    
    96   48   49 2    
    97   48   50 1    
    98   50   51 1    
    99   50   52 1    
   100   50  127 1    
   101   51  128 1    
   102   51  129 1    
   103   51  130 1    
   104   52   53 am   BACKBONE|DICT|INTERRES
   105   52  131 1    
   106   53   54 2    
   107   53   55 1    
   108   55   56 1    
   109   55   59 1    
   110   55  132 1    
   111   56   57 1    
   112   56  133 1    
   113   56  134 1    
   114   57   58 1    
   115   58  135 1    
   116   58  136 1    
   117   59   60 am   BACKBONE|DICT|INTERRES
   118   59  137 1    
   119   60   61 2    
   120   60   62 1    
   121   62   63 1    
   122   62   64 1    
   123   62  138 1    
   124   63  139 1    
   125   63  140 1    
   126   63  141 1    
   127   64   65 am   BACKBONE|DICT|INTERRES
   128   64  142 1    
   129   65   66 2    
   130   65   67 1    
   131   67   68 1    
   132   67   69 1    
   133   67  143 1    
   134   68  144 1    
   135   68  145 1    
   136   68  146 1    
   137   69   70 am   BACKBONE|DICT|INTERRES
   138   69  147 1    
   139   70   71 2    
   140   70   72 1    
   141   72   73 1    
   142   72   74 1    
   143   72  148 1    
   144   73  149 1    
   145   73  150 1    
   146   73  151 1    
   147   74   75 am   BACKBONE|DICT|INTERRES
   148   74  152 1    
   149   75   76 2    
   150   75   77 1    
   151   77   78 1    
   152   77   79 1    
   153   77  153 1    
   154   78  154 1    
   155   78  155 1    
   156   78  156 1    
   157   79   80 am   BACKBONE|DICT|INTERRES
   158   79  157 1    
   159   80   81 2    
@<TRIPOS>SUBSTRUCTURE
     1 UNK         1 GROUP             0       ****    0 ROOT    
