@<TRIPOS>MOLECULE
3R207
157   159    1
SMALL
USER_CHARGES


@<TRIPOS>ATOM
      1 CA        -47.2294  -29.1005    6.2724 C.3       0 UNK        -0.1975 
      2 C         -47.5718  -27.6193    6.3062 C.2       0 UNK         0.4852 
      3 O         -46.6738  -26.7756    6.2673 O.2       0 UNK        -0.5216 
      4 N         -48.8739  -27.3136    6.3708 N.am      1 UNK        -0.4461 
      5 CA        -49.4709  -25.9730    6.3396 C.3       1 UNK         0.0864 
      6 C6        -51.0013  -26.0276    6.5424 C.3       14 UNK        -0.0898 
      7 S7        -51.8435  -27.1270    5.3596 S.3       14 UNK        -0.2598 
      8 C8        -53.3992  -27.4625    6.2577 C.3       14 UNK         0.0286 
      9 C9        -53.2596  -28.2324    7.5744 C.ar      14 UNK        -0.0844 
     10 C10       -52.1593  -29.0513    7.8615 C.ar      14 UNK        -0.0881 
     11 C11       -52.0868  -29.7614    9.0641 C.ar      14 UNK        -0.0643 
     12 C12       -53.1390  -29.6693    9.9814 C.ar      14 UNK        -0.0930 
     13 C13       -54.2560  -28.8784    9.6973 C.ar      14 UNK        -0.0827 
     14 C14       -54.3004  -28.1528    8.5037 C.ar      14 UNK        -0.1249 
     15 C15       -55.4576  -28.8674   10.6292 C.3       14 UNK         0.0141 
     16 S16       -55.3939  -27.5148   11.8472 S.3       14 UNK        -0.2313 
     17 C17       -57.1553  -27.4365   12.3272 C.3       14 UNK        -0.0915 
     18 CA        -57.4772  -27.8595   13.7868 C.3       13 UNK         0.0968 
     19 C         -59.0116  -27.7273   14.0210 C.2       13 UNK         0.5732 
     20 N         -59.7820  -28.8075   13.9655 N.am      13 UNK        -0.7310 
     21 O         -59.5066  -26.6258   14.2478 O.2       13 UNK        -0.5035 
     22 N         -56.8810  -29.1600   14.1494 N.am      13 UNK        -0.4233 
     23 C         -56.9780  -29.7580   15.3472 C.2       13 UNK         0.4989 
     24 O         -57.6423  -29.3229   16.2883 O.2       13 UNK        -0.4996 
     25 CA        -56.1530  -31.0387   15.5618 C.3       12 UNK         0.0216 
     26 CB        -56.5335  -32.1704   14.5827 C.3       12 UNK        -0.1964 
     27 N         -54.7165  -30.7387   15.5774 N.am      12 UNK        -0.4276 
     28 C         -53.9497  -30.3650   14.5455 C.2       12 UNK         0.5020 
     29 O         -54.2961  -30.4324   13.3659 O.2       12 UNK        -0.5489 
     30 CA        -52.5988  -29.7233   14.9023 C.3       11 UNK         0.0294 
     31 CB        -51.4615  -30.3061   14.0521 C.3       11 UNK        -0.2019 
     32 N         -52.6575  -28.2745   14.6949 N.am      11 UNK        -0.4493 
     33 C         -53.4562  -27.4314   15.3651 C.2       11 UNK         0.4932 
     34 O         -54.1692  -27.7644   16.3136 O.2       11 UNK        -0.5029 
     35 CA        -53.4156  -25.9663   14.9043 C.3       10 UNK         0.0280 
     36 CB        -54.4684  -25.0744   15.5952 C.3       10 UNK        -0.1976 
     37 N         -52.0719  -25.4029   15.0425 N.am      10 UNK        -0.4242 
     38 C         -51.3484  -25.2386   16.1610 C.2       10 UNK         0.5072 
     39 O         -51.7449  -25.5112   17.2947 O.2       10 UNK        -0.5224 
     40 CA        -49.9249  -24.6767   15.9878 C.3       9 UNK         0.0343 
     41 CB        -48.8897  -25.8044   16.1319 C.3       9 UNK        -0.2003 
     42 N         -49.7315  -24.0095   14.6972 N.am      9 UNK        -0.4272 
     43 C         -50.2123  -22.7955   14.3904 C.2       9 UNK         0.4988 
     44 O         -50.7720  -22.0548   15.1992 O.2       9 UNK        -0.5108 
     45 CA        -50.0851  -22.3516   12.9236 C.3       8 UNK         0.0248 
     46 CB        -48.6636  -21.8557   12.6155 C.3       8 UNK        -0.2001 
     47 N         -50.4636  -23.4137   11.9855 N.am      8 UNK        -0.4140 
     48 C         -51.7169  -23.8608   11.8118 C.2       8 UNK         0.5028 
     49 O         -52.6907  -23.4149   12.4170 O.2       8 UNK        -0.5428 
     50 CA        -51.9272  -25.0008   10.8021 C.3       7 UNK         0.0264 
     51 CB        -52.3399  -24.4380    9.4334 C.3       7 UNK        -0.1988 
     52 N         -50.7468  -25.8590   10.6616 N.am      7 UNK        -0.4454 
     53 C         -50.4136  -26.8081   11.5490 C.2       7 UNK         0.5027 
     54 O         -51.0772  -27.0707   12.5549 O.2       7 UNK        -0.5083 
     55 CA        -49.0741  -27.5317   11.3026 C.3       6 UNK         0.0844 
     56 C56       -49.1685  -28.5800   10.1638 C.3       14 UNK        -0.0967 
     57 S57       -49.8840  -30.1508   10.7453 S.3       14 UNK        -0.2604 
     58 C58       -50.9021  -30.6812    9.3330 C.3       14 UNK         0.0134 
     59 N         -47.9811  -26.5882   11.0609 N.am      6 UNK        -0.4116 
     60 C         -47.5090  -25.6854   11.9294 C.2       5 UNK         0.5034 
     61 O         -47.9923  -25.5015   13.0453 O.2       5 UNK        -0.5045 
     62 CA        -46.3292  -24.8084   11.4641 C.3       5 UNK         0.0224 
     63 CB        -45.4064  -24.3928   12.6303 C.3       5 UNK        -0.1978 
     64 N         -45.5530  -25.3894   10.3611 N.am      5 UNK        -0.4737 
     65 C         -44.8232  -26.5160   10.3644 C.2       4 UNK         0.5027 
     66 O         -44.6795  -27.2366   11.3517 O.2       4 UNK        -0.5211 
     67 CA        -44.1729  -26.9367    9.0321 C.3       4 UNK         0.0297 
     68 CB        -44.6349  -28.3471    8.6330 C.3       4 UNK        -0.1993 
     69 N         -44.4754  -26.0043    7.9396 N.am      4 UNK        -0.4486 
     70 C         -43.7575  -24.9081    7.6611 C.2       3 UNK         0.4961 
     71 O         -42.7106  -24.6062    8.2342 O.2       3 UNK        -0.5105 
     72 CA        -44.3325  -23.9657    6.5925 C.3       3 UNK         0.0299 
     73 CB        -44.0729  -24.5143    5.1800 C.3       3 UNK        -0.1972 
     74 N         -45.7658  -23.7099    6.7701 N.am      3 UNK        -0.4305 
     75 C         -46.3065  -23.0313    7.7954 C.2       2 UNK         0.5006 
     76 O         -45.6516  -22.5829    8.7351 O.2       2 UNK        -0.5106 
     77 CA        -47.8308  -22.8142    7.7900 C.3       2 UNK         0.0296 
     78 CB        -48.1705  -21.3996    7.2939 C.3       2 UNK        -0.2002 
     79 N         -48.5367  -23.7971    6.9670 N.am      2 UNK        -0.4032 
     80 C         -48.8559  -25.0266    7.3872 C.2       1 UNK         0.5000 
     81 O         -48.7082  -25.4180    8.5484 O.2       1 UNK        -0.5238 
     82 H82       -46.1833  -29.2472    6.0045 H         1 UNK         0.0889 
     83 H83       -47.8397  -29.6215    5.5350 H         1 UNK         0.0889 
     84 H84       -47.4019  -29.5565    7.2467 H         1 UNK         0.0889 
     85 H85       -49.5461  -28.0653    6.3773 H         1 UNK         0.3028 
     86 H86       -49.2686  -25.5673    5.3463 H         1 UNK         0.0864 
     87 H87       -51.4430  -25.0334    6.4502 H         1 UNK         0.0720 
     88 H88       -51.2197  -26.3752    7.5526 H         1 UNK         0.0720 
     89 H89       -54.0582  -28.0298    5.5993 H         1 UNK         0.0814 
     90 H90       -53.8963  -26.5086    6.4418 H         1 UNK         0.0814 
     91 H91       -51.3620  -29.1575    7.1418 H         1 UNK         0.1469 
     92 H92       -53.1024  -30.2358   10.9025 H         1 UNK         0.1381 
     93 H93       -55.1688  -27.5467    8.2834 H         1 UNK         0.1206 
     94 H94       -55.5422  -29.8219   11.1495 H         1 UNK         0.0813 
     95 H95       -56.3610  -28.7762   10.0247 H         1 UNK         0.0813 
     96 H96       -57.7462  -28.0361   11.6329 H         1 UNK         0.0638 
     97 H97       -57.4755  -26.4055   12.1646 H         1 UNK         0.0638 
     98 H98       -57.0065  -27.1300   14.4475 H         1 UNK         0.0568 
     99 H99       -60.7736  -28.7153   14.1189 H         1 UNK         0.3450 
    100 H100      -59.3804  -29.7126   13.7821 H         1 UNK         0.3450 
    101 H101      -56.2292  -29.5565   13.4817 H         1 UNK         0.2987 
    102 H102      -56.3858  -31.3982   16.5655 H         1 UNK         0.0766 
    103 H103      -55.9416  -33.0666   14.7682 H         1 UNK         0.0798 
    104 H104      -56.3951  -31.8910   13.5384 H         1 UNK         0.0798 
    105 H105      -57.5821  -32.4448   14.7028 H         1 UNK         0.0798 
    106 H106      -54.3368  -30.5846   16.5021 H         1 UNK         0.3198 
    107 H107      -52.3720  -29.9105   15.9539 H         1 UNK         0.0843 
    108 H108      -51.6402  -30.1332   12.9913 H         1 UNK         0.0831 
    109 H109      -51.3740  -31.3833   14.1976 H         1 UNK         0.0831 
    110 H110      -50.5000  -29.8598   14.3063 H         1 UNK         0.0831 
    111 H111      -52.1141  -27.9047   13.9169 H         1 UNK         0.3133 
    112 H112      -53.6378  -25.9665   13.8363 H         1 UNK         0.0566 
    113 H113      -54.4318  -24.0545   15.2122 H         1 UNK         0.0814 
    114 H114      -55.4749  -25.4529   15.4159 H         1 UNK         0.0814 
    115 H115      -54.3253  -25.0336   16.6753 H         1 UNK         0.0814 
    116 H116      -51.6158  -25.1758   14.1706 H         1 UNK         0.3091 
    117 H117      -49.7542  -23.9499   16.7848 H         1 UNK         0.0702 
    118 H118      -47.8723  -25.4246   16.0358 H         1 UNK         0.0785 
    119 H119      -49.0307  -26.5781   15.3755 H         1 UNK         0.0785 
    120 H120      -48.9674  -26.2843   17.1083 H         1 UNK         0.0785 
    121 H121      -49.2162  -24.5381   13.9948 H         1 UNK         0.2998 
    122 H122      -50.7703  -21.5149   12.7699 H         1 UNK         0.0697 
    123 H123      -47.9169  -22.6249   12.8036 H         1 UNK         0.0825 
    124 H124      -48.4091  -21.0014   13.2443 H         1 UNK         0.0825 
    125 H125      -48.5666  -21.5333   11.5786 H         1 UNK         0.0825 
    126 H126      -49.7252  -23.8446   11.4517 H         1 UNK         0.3029 
    127 H127      -52.7572  -25.6080   11.1729 H         1 UNK         0.0897 
    128 H128      -53.1341  -23.6972    9.5374 H         1 UNK         0.0792 
    129 H129      -52.7340  -25.2259    8.7929 H         1 UNK         0.0792 
    130 H130      -51.5077  -23.9544    8.9211 H         1 UNK         0.0792 
    131 H131      -50.1227  -25.6877    9.8775 H         1 UNK         0.3086 
    132 H132      -48.8158  -28.0516   12.2281 H         1 UNK         0.0583 
    133 H133      -49.7205  -28.1913    9.3060 H         1 UNK         0.1020 
    134 H134      -48.1722  -28.8186    9.7884 H         1 UNK         0.1020 
    135 H135      -50.2641  -30.7681    8.4521 H         1 UNK         0.0694 
    136 H136      -51.2779  -31.6851    9.5351 H         1 UNK         0.0694 
    137 H137      -47.6043  -26.5712   10.1232 H         1 UNK         0.2989 
    138 H138      -46.7775  -23.8993   11.0613 H         1 UNK         0.1055 
    139 H139      -45.9540  -23.8431   13.3962 H         1 UNK         0.0806 
    140 H140      -44.6003  -23.7455   12.2850 H         1 UNK         0.0806 
    141 H141      -44.9569  -25.2572   13.1197 H         1 UNK         0.0806 
    142 H142      -45.5717  -24.8632    9.4979 H         1 UNK         0.3061 
    143 H143      -43.0930  -26.9692    9.1910 H         1 UNK         0.0734 
    144 H144      -44.2445  -28.6366    7.6573 H         1 UNK         0.0832 
    145 H145      -44.2874  -29.0886    9.3535 H         1 UNK         0.0832 
    146 H146      -45.7214  -28.4155    8.6013 H         1 UNK         0.0832 
    147 H147      -45.3068  -26.1990    7.3816 H         1 UNK         0.3156 
    148 H148      -43.8124  -23.0093    6.6813 H         1 UNK         0.0589 
    149 H149      -44.5934  -25.4571    5.0070 H         1 UNK         0.0808 
    150 H150      -44.3950  -23.8082    4.4146 H         1 UNK         0.0808 
    151 H151      -43.0089  -24.6969    5.0227 H         1 UNK         0.0808 
    152 H152      -46.3793  -24.0945    6.0667 H         1 UNK         0.3098 
    153 H153      -48.1780  -22.8985    8.8224 H         1 UNK         0.0720 
    154 H154      -49.2428  -21.2091    7.3436 H         1 UNK         0.0791 
    155 H155      -47.8478  -21.2418    6.2639 H         1 UNK         0.0791 
    156 H156      -47.6804  -20.6428    7.9083 H         1 UNK         0.0791 
    157 H157      -48.7295  -23.5346    6.0105 H         1 UNK         0.3028 
@<TRIPOS>BOND
     1    1    2 1    
     2    1   82 1    
     3    1   83 1    
     4    1   84 1    
     5    2    3 2    
     6    2    4 am   BACKBONE|DICT|INTERRES
     7    4    5 1    
     8    4   85 1    
     9    5    6 1    
    10    5   80 1    
    11    5   86 1    
    12    6    7 1    
    13    6   87 1    
    14    6   88 1    
    15    7    8 1    
    16    8    9 1    
    17    8   89 1    
    18    8   90 1    
    19    9   10 ar   
    20    9   14 ar   
    21   10   11 ar   
    22   10   91 1    
    23   11   12 ar   
    24   11   58 1    
    25   12   13 ar   
    26   12   92 1    
    27   13   14 ar   
    28   13   15 1    
    29   14   93 1    
    30   15   16 1    
    31   15   94 1    
    32   15   95 1    
    33   16   17 1    
    34   17   18 1    
    35   17   96 1    
    36   17   97 1    
    37   18   19 1    
    38   18   22 1    
    39   18   98 1    
    40   19   20 am   BACKBONE|DICT|INTERRES
    41   19   21 2    
    42   20   99 1    
    43   20  100 1    
    44   22   23 am   BACKBONE|DICT|INTERRES
    45   22  101 1    
    46   23   24 2    
    47   23   25 1    
    48   25   26 1    
    49   25   27 1    
    50   25  102 1    
    51   26  103 1    
    52   26  104 1    
    53   26  105 1    
    54   27   28 am   BACKBONE|DICT|INTERRES
    55   27  106 1    
    56   28   29 2    
    57   28   30 1    
    58   30   31 1    
    59   30   32 1    
    60   30  107 1    
    61   31  108 1    
    62   31  109 1    
    63   31  110 1    
    64   32   33 am   BACKBONE|DICT|INTERRES
    65   32  111 1    
    66   33   34 2    
    67   33   35 1    
    68   35   36 1    
    69   35   37 1    
    70   35  112 1    
    71   36  113 1    
    72   36  114 1    
    73   36  115 1    
    74   37   38 am   BACKBONE|DICT|INTERRES
    75   37  116 1    
    76   38   39 2    
    77   38   40 1    
    78   40   41 1    
    79   40   42 1    
    80   40  117 1    
    81   41  118 1    
    82   41  119 1    
    83   41  120 1    
    84   42   43 am   BACKBONE|DICT|INTERRES
    85   42  121 1    
    86   43   44 2    
    87   43   45 1    
    88   45   46 1    
    89   45   47 1    
    90   45  122 1    
    91   46  123 1    
    92   46  124 1    
    93   46  125 1    
    94   47   48 am   BACKBONE|DICT|INTERRES
    95   47  126 1    
    96   48   49 2    
    97   48   50 1    
    98   50   51 1    
    99   50   52 1    
   100   50  127 1    
   101   51  128 1    
   102   51  129 1    
   103   51  130 1    
   104   52   53 am   BACKBONE|DICT|INTERRES
   105   52  131 1    
   106   53   54 2    
   107   53   55 1    
   108   55   56 1    
   109   55   59 1    
   110   55  132 1    
   111   56   57 1    
   112   56  133 1    
   113   56  134 1    
   114   57   58 1    
   115   58  135 1    
   116   58  136 1    
   117   59   60 am   BACKBONE|DICT|INTERRES
   118   59  137 1    
   119   60   61 2    
   120   60   62 1    
   121   62   63 1    
   122   62   64 1    
   123   62  138 1    
   124   63  139 1    
   125   63  140 1    
   126   63  141 1    
   127   64   65 am   BACKBONE|DICT|INTERRES
   128   64  142 1    
   129   65   66 2    
   130   65   67 1    
   131   67   68 1    
   132   67   69 1    
   133   67  143 1    
   134   68  144 1    
   135   68  145 1    
   136   68  146 1    
   137   69   70 am   BACKBONE|DICT|INTERRES
   138   69  147 1    
   139   70   71 2    
   140   70   72 1    
   141   72   73 1    
   142   72   74 1    
   143   72  148 1    
   144   73  149 1    
   145   73  150 1    
   146   73  151 1    
   147   74   75 am   BACKBONE|DICT|INTERRES
   148   74  152 1    
   149   75   76 2    
   150   75   77 1    
   151   77   78 1    
   152   77   79 1    
   153   77  153 1    
   154   78  154 1    
   155   78  155 1    
   156   78  156 1    
   157   79   80 am   BACKBONE|DICT|INTERRES
   158   79  157 1    
   159   80   81 2    
@<TRIPOS>SUBSTRUCTURE
     1 UNK         1 GROUP             0       ****    0 ROOT    
