@<TRIPOS>MOLECULE
3R207
157   159    1
SMALL
USER_CHARGES


@<TRIPOS>ATOM
      1 CA        -50.8444  -27.1841    0.3312 C.3       0 UNK        -0.1975 
      2 C         -50.2665  -27.2291    1.7377 C.2       0 UNK         0.4852 
      3 O         -49.2319  -27.8635    1.9517 O.2       0 UNK        -0.5216 
      4 N         -50.9213  -26.5540    2.6942 N.am      1 UNK        -0.4461 
      5 CA        -50.5700  -26.4422    4.1178 C.3       1 UNK         0.0864 
      6 C6        -50.4853  -27.8165    4.8382 C.3       14 UNK        -0.0898 
      7 S7        -50.5592  -27.6744    6.6533 S.3       14 UNK        -0.2598 
      8 C8        -51.0892  -29.3559    7.0965 C.3       14 UNK         0.0286 
      9 C9        -51.1640  -29.5177    8.6056 C.ar      14 UNK        -0.0844 
     10 C10       -50.0484  -29.9583    9.3215 C.ar      14 UNK        -0.0881 
     11 C11       -50.0968  -30.0804   10.7133 C.ar      14 UNK        -0.0643 
     12 C12       -51.2840  -29.7714   11.3878 C.ar      14 UNK        -0.0930 
     13 C13       -52.4129  -29.3402   10.6800 C.ar      14 UNK        -0.0827 
     14 C14       -52.3449  -29.2173    9.2888 C.ar      14 UNK        -0.1249 
     15 C15       -53.6951  -28.9630   11.4101 C.3       14 UNK         0.0141 
     16 S16       -54.5087  -30.4059   12.1676 S.3       14 UNK        -0.2313 
     17 C17       -56.2769  -30.0164   11.9106 C.3       14 UNK        -0.0915 
     18 CA        -56.9337  -29.1821   13.0499 C.3       13 UNK         0.0968 
     19 C         -57.1598  -30.0012   14.3510 C.2       13 UNK         0.5732 
     20 N         -56.7242  -29.5659   15.5240 N.am      13 UNK        -0.7310 
     21 O         -57.7877  -31.0568   14.3025 O.2       13 UNK        -0.5035 
     22 N         -56.3082  -27.8542   13.2045 N.am      13 UNK        -0.4233 
     23 C         -56.5341  -26.8428   12.3509 C.2       13 UNK         0.4989 
     24 O         -57.3824  -26.8952   11.4577 O.2       13 UNK        -0.4996 
     25 CA        -55.6364  -25.5905   12.4385 C.3       12 UNK         0.0216 
     26 CB        -56.3016  -24.3288   11.8461 C.3       12 UNK        -0.1964 
     27 N         -55.0847  -25.3141   13.7655 N.am      12 UNK        -0.4276 
     28 C         -55.7509  -24.9906   14.8818 C.2       12 UNK         0.5020 
     29 O         -56.9781  -24.8944   14.9487 O.2       12 UNK        -0.5489 
     30 CA        -54.8838  -24.7469   16.1360 C.3       11 UNK         0.0294 
     31 CB        -55.7075  -24.7444   17.4411 C.3       11 UNK        -0.2019 
     32 N         -53.7496  -25.6752   16.2498 N.am      11 UNK        -0.4493 
     33 C         -53.8124  -27.0160   16.2647 C.2       11 UNK         0.4932 
     34 O         -54.8694  -27.6355   16.1549 O.2       11 UNK        -0.5029 
     35 CA        -52.5040  -27.8215   16.3782 C.3       10 UNK         0.0280 
     36 CB        -52.4002  -28.8428   15.2318 C.3       10 UNK        -0.1976 
     37 N         -51.2986  -26.9918   16.3801 N.am      10 UNK        -0.4242 
     38 C         -50.8028  -26.3380   17.4385 C.2       10 UNK         0.5072 
     39 O         -51.2821  -26.4005   18.5711 O.2       10 UNK        -0.5224 
     40 CA        -49.5903  -25.4242   17.1782 C.3       9 UNK         0.0343 
     41 CB        -48.2838  -26.2314   17.2236 C.3       9 UNK        -0.2003 
     42 N         -49.6775  -24.6892   15.9098 N.am      9 UNK        -0.4272 
     43 C         -50.6440  -23.8060   15.6118 C.2       9 UNK         0.4988 
     44 O         -51.5597  -23.5076   16.3790 O.2       9 UNK        -0.5108 
     45 CA        -50.6155  -23.1816   14.2079 C.3       8 UNK         0.0248 
     46 CB        -49.5429  -22.0845   14.1182 C.3       8 UNK        -0.2001 
     47 N         -50.4045  -24.1775   13.1561 N.am      8 UNK        -0.4140 
     48 C         -51.2540  -25.1777   12.8796 C.2       8 UNK         0.5028 
     49 O         -52.3429  -25.3275   13.4340 O.2       8 UNK        -0.5428 
     50 CA        -50.7912  -26.2271   11.8592 C.3       7 UNK         0.0264 
     51 CB        -50.9935  -25.7414   10.4177 C.3       7 UNK        -0.1988 
     52 N         -49.4050  -26.6486   12.0695 N.am      7 UNK        -0.4454 
     53 C         -48.9740  -27.2588   13.1860 C.2       7 UNK         0.5027 
     54 O         -49.7114  -27.5690   14.1197 O.2       7 UNK        -0.5083 
     55 CA        -47.4632  -27.5158   13.3304 C.3       6 UNK         0.0844 
     56 C56       -47.0418  -28.9572   12.9547 C.3       14 UNK        -0.0967 
     57 S57       -47.4292  -29.4718   11.2476 S.3       14 UNK        -0.2604 
     58 C58       -48.8718  -30.5708   11.4751 C.3       14 UNK         0.0134 
     59 N         -46.6705  -26.4676   12.6833 N.am      6 UNK        -0.4116 
     60 C         -46.5503  -25.2323   13.1953 C.2       5 UNK         0.5034 
     61 O         -47.0759  -24.8735   14.2513 O.2       5 UNK        -0.5045 
     62 CA        -45.7396  -24.2145   12.3788 C.3       5 UNK         0.0224 
     63 CB        -44.2374  -24.5397   12.4223 C.3       5 UNK        -0.1978 
     64 N         -46.1857  -24.1134   10.9880 N.am      5 UNK        -0.4737 
     65 C         -47.4062  -23.7119   10.6056 C.2       4 UNK         0.5027 
     66 O         -48.2967  -23.3858   11.3882 O.2       4 UNK        -0.5211 
     67 CA        -47.6916  -23.6837    9.0956 C.3       4 UNK         0.0297 
     68 CB        -47.3499  -22.3050    8.5102 C.3       4 UNK        -0.1993 
     69 N         -46.9943  -24.7200    8.3317 N.am      4 UNK        -0.4486 
     70 C         -47.1130  -26.0419    8.5098 C.2       3 UNK         0.4961 
     71 O         -47.7660  -26.5479    9.4242 O.2       3 UNK        -0.5105 
     72 CA        -46.3728  -26.9287    7.4856 C.3       3 UNK         0.0299 
     73 CB        -46.6185  -28.4299    7.7119 C.3       3 UNK        -0.1972 
     74 N         -46.7407  -26.6015    6.1049 N.am      3 UNK        -0.4305 
     75 C         -46.3001  -25.5521    5.3955 C.2       2 UNK         0.5006 
     76 O         -45.4983  -24.7263    5.8347 O.2       2 UNK        -0.5106 
     77 CA        -46.8611  -25.3733    3.9724 C.3       2 UNK         0.0296 
     78 CB        -45.8836  -25.9445    2.9330 C.3       2 UNK        -0.2002 
     79 N         -48.1765  -25.9912    3.7865 N.am      2 UNK        -0.4032 
     80 C         -49.3152  -25.5742    4.3560 C.2       1 UNK         0.5000 
     81 O         -49.4003  -24.5551    5.0434 O.2       1 UNK        -0.5238 
     82 H82       -51.7578  -26.5916    0.2831 H         1 UNK         0.0889 
     83 H83       -51.0762  -28.1926   -0.0104 H         1 UNK         0.0889 
     84 H84       -50.1207  -26.7489   -0.3573 H         1 UNK         0.0889 
     85 H85       -51.7476  -26.0347    2.4294 H         1 UNK         0.3028 
     86 H86       -51.4048  -25.8977    4.5631 H         1 UNK         0.0864 
     87 H87       -51.3206  -28.4411    4.5176 H         1 UNK         0.0720 
     88 H88       -49.5810  -28.3624    4.5643 H         1 UNK         0.0720 
     89 H89       -50.3915  -30.0808    6.6741 H         1 UNK         0.0814 
     90 H90       -52.0622  -29.5631    6.6483 H         1 UNK         0.0814 
     91 H91       -49.1320  -30.1938    8.7989 H         1 UNK         0.1469 
     92 H92       -51.3312  -29.8596   12.4645 H         1 UNK         0.1381 
     93 H93       -53.2065  -28.8709    8.7345 H         1 UNK         0.1206 
     94 H94       -54.3799  -28.4682   10.7206 H         1 UNK         0.0813 
     95 H95       -53.4770  -28.2317   12.1877 H         1 UNK         0.0813 
     96 H96       -56.8074  -30.9615   11.7829 H         1 UNK         0.0638 
     97 H97       -56.3961  -29.5041   10.9553 H         1 UNK         0.0638 
     98 H98       -57.9609  -28.9956   12.7305 H         1 UNK         0.0568 
     99 H99       -56.9154  -30.1278   16.3372 H         1 UNK         0.3450 
    100 H100      -56.1543  -28.7305   15.6325 H         1 UNK         0.3450 
    101 H101      -55.6367  -27.7496   13.9529 H         1 UNK         0.2987 
    102 H102      -54.7713  -25.8159   11.8132 H         1 UNK         0.0766 
    103 H103      -55.6331  -23.4691   11.8933 H         1 UNK         0.0798 
    104 H104      -57.2199  -24.0700   12.3741 H         1 UNK         0.0798 
    105 H105      -56.5608  -24.4755   10.7969 H         1 UNK         0.0798 
    106 H106      -54.0634  -25.3539   13.8149 H         1 UNK         0.3198 
    107 H107      -54.4511  -23.7526   16.0150 H         1 UNK         0.0843 
    108 H108      -56.2094  -25.6989   17.6033 H         1 UNK         0.0831 
    109 H109      -56.4772  -23.9721   17.4170 H         1 UNK         0.0831 
    110 H110      -55.0769  -24.5448   18.3074 H         1 UNK         0.0831 
    111 H111      -52.8369  -25.2363   16.2984 H         1 UNK         0.3133 
    112 H112      -52.5494  -28.3742   17.3184 H         1 UNK         0.0566 
    113 H113      -52.3588  -28.3457   14.2629 H         1 UNK         0.0814 
    114 H114      -51.5056  -29.4580   15.3284 H         1 UNK         0.0814 
    115 H115      -53.2561  -29.5192   15.2177 H         1 UNK         0.0814 
    116 H116      -50.7928  -26.9418   15.4976 H         1 UNK         0.3091 
    117 H117      -49.5580  -24.6833   17.9798 H         1 UNK         0.0702 
    118 H118      -47.4145  -25.5940   17.0598 H         1 UNK         0.0785 
    119 H119      -48.2711  -27.0186   16.4704 H         1 UNK         0.0785 
    120 H120      -48.1573  -26.7106   18.1952 H         1 UNK         0.0785 
    121 H121      -48.9413  -24.8552   15.2314 H         1 UNK         0.2998 
    122 H122      -51.5886  -22.7183   14.0319 H         1 UNK         0.0697 
    123 H123      -48.5371  -22.4903   14.2333 H         1 UNK         0.0825 
    124 H124      -49.6849  -21.3328   14.8958 H         1 UNK         0.0825 
    125 H125      -49.5846  -21.5698   13.1581 H         1 UNK         0.0825 
    126 H126      -49.5515  -24.0874   12.6076 H         1 UNK         0.3029 
    127 H127      -51.4168  -27.1046   12.0080 H         1 UNK         0.0897 
    128 H128      -52.0440  -25.5193   10.2265 H         1 UNK         0.0792 
    129 H129      -50.6861  -26.5014    9.6980 H         1 UNK         0.0792 
    130 H130      -50.4252  -24.8352   10.2148 H         1 UNK         0.0792 
    131 H131      -48.7515  -26.4869   11.3095 H         1 UNK         0.3086 
    132 H132      -47.2531  -27.4354   14.3988 H         1 UNK         0.0583 
    133 H133      -45.9646  -29.0619   13.0930 H         1 UNK         0.1020 
    134 H134      -47.4804  -29.6628   13.6618 H         1 UNK         0.1020 
    135 H135      -48.6096  -31.5662   11.1144 H         1 UNK         0.0694 
    136 H136      -49.1078  -30.6866   12.5333 H         1 UNK         0.0694 
    137 H137      -46.2700  -26.6822   11.7813 H         1 UNK         0.2989 
    138 H138      -45.8884  -23.2371   12.8437 H         1 UNK         0.1055 
    139 H139      -43.8853  -24.6172   13.4521 H         1 UNK         0.0806 
    140 H140      -43.6494  -23.7583   11.9404 H         1 UNK         0.0806 
    141 H141      -44.0085  -25.4843   11.9276 H         1 UNK         0.0806 
    142 H142      -45.5234  -24.3670   10.2693 H         1 UNK         0.3061 
    143 H143      -48.7609  -23.8507    8.9593 H         1 UNK         0.0734 
    144 H144      -47.8766  -21.5130    9.0446 H         1 UNK         0.0832 
    145 H145      -47.6420  -22.2359    7.4620 H         1 UNK         0.0832 
    146 H146      -46.2826  -22.0903    8.5772 H         1 UNK         0.0832 
    147 H147      -46.4296  -24.4134    7.5448 H         1 UNK         0.3156 
    148 H148      -45.3040  -26.7452    7.6126 H         1 UNK         0.0589 
    149 H149      -47.6797  -28.6749    7.6590 H         1 UNK         0.0808 
    150 H150      -46.0938  -29.0378    6.9749 H         1 UNK         0.0808 
    151 H151      -46.2580  -28.7359    8.6934 H         1 UNK         0.0808 
    152 H152      -47.4320  -27.1998    5.6778 H         1 UNK         0.3098 
    153 H153      -46.9641  -24.3009    3.7937 H         1 UNK         0.0720 
    154 H154      -44.8992  -25.4839    3.0277 H         1 UNK         0.0791 
    155 H155      -46.2314  -25.7571    1.9168 H         1 UNK         0.0791 
    156 H156      -45.7535  -27.0213    3.0497 H         1 UNK         0.0791 
    157 H157      -48.2357  -26.8029    3.1756 H         1 UNK         0.3028 
@<TRIPOS>BOND
     1    1    2 1    
     2    1   82 1    
     3    1   83 1    
     4    1   84 1    
     5    2    3 2    
     6    2    4 am   BACKBONE|DICT|INTERRES
     7    4    5 1    
     8    4   85 1    
     9    5    6 1    
    10    5   80 1    
    11    5   86 1    
    12    6    7 1    
    13    6   87 1    
    14    6   88 1    
    15    7    8 1    
    16    8    9 1    
    17    8   89 1    
    18    8   90 1    
    19    9   10 ar   
    20    9   14 ar   
    21   10   11 ar   
    22   10   91 1    
    23   11   12 ar   
    24   11   58 1    
    25   12   13 ar   
    26   12   92 1    
    27   13   14 ar   
    28   13   15 1    
    29   14   93 1    
    30   15   16 1    
    31   15   94 1    
    32   15   95 1    
    33   16   17 1    
    34   17   18 1    
    35   17   96 1    
    36   17   97 1    
    37   18   19 1    
    38   18   22 1    
    39   18   98 1    
    40   19   20 am   BACKBONE|DICT|INTERRES
    41   19   21 2    
    42   20   99 1    
    43   20  100 1    
    44   22   23 am   BACKBONE|DICT|INTERRES
    45   22  101 1    
    46   23   24 2    
    47   23   25 1    
    48   25   26 1    
    49   25   27 1    
    50   25  102 1    
    51   26  103 1    
    52   26  104 1    
    53   26  105 1    
    54   27   28 am   BACKBONE|DICT|INTERRES
    55   27  106 1    
    56   28   29 2    
    57   28   30 1    
    58   30   31 1    
    59   30   32 1    
    60   30  107 1    
    61   31  108 1    
    62   31  109 1    
    63   31  110 1    
    64   32   33 am   BACKBONE|DICT|INTERRES
    65   32  111 1    
    66   33   34 2    
    67   33   35 1    
    68   35   36 1    
    69   35   37 1    
    70   35  112 1    
    71   36  113 1    
    72   36  114 1    
    73   36  115 1    
    74   37   38 am   BACKBONE|DICT|INTERRES
    75   37  116 1    
    76   38   39 2    
    77   38   40 1    
    78   40   41 1    
    79   40   42 1    
    80   40  117 1    
    81   41  118 1    
    82   41  119 1    
    83   41  120 1    
    84   42   43 am   BACKBONE|DICT|INTERRES
    85   42  121 1    
    86   43   44 2    
    87   43   45 1    
    88   45   46 1    
    89   45   47 1    
    90   45  122 1    
    91   46  123 1    
    92   46  124 1    
    93   46  125 1    
    94   47   48 am   BACKBONE|DICT|INTERRES
    95   47  126 1    
    96   48   49 2    
    97   48   50 1    
    98   50   51 1    
    99   50   52 1    
   100   50  127 1    
   101   51  128 1    
   102   51  129 1    
   103   51  130 1    
   104   52   53 am   BACKBONE|DICT|INTERRES
   105   52  131 1    
   106   53   54 2    
   107   53   55 1    
   108   55   56 1    
   109   55   59 1    
   110   55  132 1    
   111   56   57 1    
   112   56  133 1    
   113   56  134 1    
   114   57   58 1    
   115   58  135 1    
   116   58  136 1    
   117   59   60 am   BACKBONE|DICT|INTERRES
   118   59  137 1    
   119   60   61 2    
   120   60   62 1    
   121   62   63 1    
   122   62   64 1    
   123   62  138 1    
   124   63  139 1    
   125   63  140 1    
   126   63  141 1    
   127   64   65 am   BACKBONE|DICT|INTERRES
   128   64  142 1    
   129   65   66 2    
   130   65   67 1    
   131   67   68 1    
   132   67   69 1    
   133   67  143 1    
   134   68  144 1    
   135   68  145 1    
   136   68  146 1    
   137   69   70 am   BACKBONE|DICT|INTERRES
   138   69  147 1    
   139   70   71 2    
   140   70   72 1    
   141   72   73 1    
   142   72   74 1    
   143   72  148 1    
   144   73  149 1    
   145   73  150 1    
   146   73  151 1    
   147   74   75 am   BACKBONE|DICT|INTERRES
   148   74  152 1    
   149   75   76 2    
   150   75   77 1    
   151   77   78 1    
   152   77   79 1    
   153   77  153 1    
   154   78  154 1    
   155   78  155 1    
   156   78  156 1    
   157   79   80 am   BACKBONE|DICT|INTERRES
   158   79  157 1    
   159   80   81 2    
@<TRIPOS>SUBSTRUCTURE
     1 UNK         1 GROUP             0       ****    0 ROOT    
