@<TRIPOS>MOLECULE
3R207
157   159    1
SMALL
USER_CHARGES


@<TRIPOS>ATOM
      1 CA        -49.7081  -25.1186    6.2968 C.3       0 UNK        -0.1975 
      2 C         -48.8967  -26.1770    7.0282 C.2       0 UNK         0.4852 
      3 O         -48.7246  -27.2794    6.5057 O.2       0 UNK        -0.5216 
      4 N         -48.4064  -25.8550    8.2327 N.am      1 UNK        -0.4461 
      5 CA        -47.6884  -26.7119    9.1889 C.3       1 UNK         0.0864 
      6 C6        -48.4862  -27.9553    9.6690 C.3       14 UNK        -0.0898 
      7 S7        -50.1364  -27.5242   10.3158 S.3       14 UNK        -0.2598 
      8 C8        -51.2108  -28.3219    9.0849 C.3       14 UNK         0.0286 
      9 C9        -52.6084  -27.7305    9.1257 C.ar      14 UNK        -0.0844 
     10 C10       -52.8825  -26.5515    8.4299 C.ar      14 UNK        -0.0881 
     11 C11       -54.1564  -25.9782    8.4739 C.ar      14 UNK        -0.0643 
     12 C12       -55.1608  -26.6127    9.2115 C.ar      14 UNK        -0.0930 
     13 C13       -54.9116  -27.8037    9.9027 C.ar      14 UNK        -0.0827 
     14 C14       -53.6237  -28.3560    9.8532 C.ar      14 UNK        -0.1249 
     15 C15       -56.0707  -28.4342   10.6798 C.3       14 UNK         0.0141 
     16 S16       -55.7239  -30.0298   11.5004 S.3       14 UNK        -0.2313 
     17 C17       -57.3782  -30.4335   12.1589 C.3       14 UNK        -0.0915 
     18 CA        -57.6803  -29.7378   13.5203 C.3       13 UNK         0.0968 
     19 C         -59.1369  -29.9379   14.0435 C.2       13 UNK         0.5732 
     20 N         -60.1078  -30.1965   13.1766 N.am      13 UNK        -0.7310 
     21 O         -59.4126  -29.7987   15.2343 O.2       13 UNK        -0.5035 
     22 N         -56.6510  -30.0123   14.5343 N.am      13 UNK        -0.4233 
     23 C         -56.4432  -31.1719   15.1763 C.2       13 UNK         0.4989 
     24 O         -57.1091  -32.1902   14.9813 O.2       13 UNK        -0.4996 
     25 CA        -55.2897  -31.2314   16.2003 C.3       12 UNK         0.0216 
     26 CB        -54.2728  -32.3197   15.8142 C.3       12 UNK        -0.1964 
     27 N         -54.5876  -29.9532   16.3505 N.am      12 UNK        -0.4276 
     28 C         -55.0084  -28.9399   17.1241 C.2       12 UNK         0.5020 
     29 O         -55.9744  -29.0217   17.8832 O.2       12 UNK        -0.5489 
     30 CA        -54.2579  -27.5965   17.0183 C.3       11 UNK         0.0294 
     31 CB        -53.3165  -27.4131   18.2187 C.3       11 UNK        -0.2019 
     32 N         -53.5005  -27.4417   15.7712 N.am      11 UNK        -0.4493 
     33 C         -54.0556  -27.3839   14.5489 C.2       11 UNK         0.4932 
     34 O         -55.2725  -27.3532   14.3659 O.2       11 UNK        -0.5029 
     35 CA        -53.1230  -27.4260   13.3226 C.3       10 UNK         0.0280 
     36 CB        -53.0348  -26.0418   12.6659 C.3       10 UNK        -0.1976 
     37 N         -51.7742  -27.9360   13.5945 N.am      10 UNK        -0.4242 
     38 C         -51.5009  -29.1615   14.0705 C.2       10 UNK         0.5072 
     39 O         -52.3628  -30.0117   14.2955 O.2       10 UNK        -0.5224 
     40 CA        -50.0376  -29.4723   14.4372 C.3       9 UNK         0.0343 
     41 CB        -49.3314  -30.1890   13.2760 C.3       9 UNK        -0.2003 
     42 N         -49.2578  -28.2934   14.8281 N.am      9 UNK        -0.4272 
     43 C         -49.5613  -27.4491   15.8251 C.2       9 UNK         0.4988 
     44 O         -50.5316  -27.5891   16.5695 O.2       9 UNK        -0.5108 
     45 CA        -48.6737  -26.2020   15.9854 C.3       8 UNK         0.0248 
     46 CB        -47.2143  -26.4167   15.5227 C.3       8 UNK        -0.2001 
     47 N         -49.2650  -25.0283   15.3278 N.am      8 UNK        -0.4140 
     48 C         -49.5861  -24.9117   14.0307 C.2       8 UNK         0.5028 
     49 O         -49.4346  -25.8119   13.2006 O.2       8 UNK        -0.5428 
     50 CA        -50.1780  -23.5685   13.5832 C.3       7 UNK         0.0264 
     51 CB        -49.1791  -22.4108   13.7774 C.3       7 UNK        -0.1988 
     52 N         -50.5245  -23.6730   12.1700 N.am      7 UNK        -0.4454 
     53 C         -51.4583  -22.9699   11.5256 C.2       7 UNK         0.5027 
     54 O         -52.1769  -22.1266   12.0656 O.2       7 UNK        -0.5083 
     55 CA        -51.5612  -23.2106   10.0058 C.3       6 UNK         0.0844 
     56 C56       -53.0140  -23.0477    9.4921 C.3       14 UNK        -0.0967 
     57 S57       -53.1509  -23.4476    7.7162 S.3       14 UNK        -0.2604 
     58 C58       -54.4810  -24.6986    7.7053 C.3       14 UNK         0.0134 
     59 N         -50.6390  -22.2955    9.3271 N.am      6 UNK        -0.4116 
     60 C         -49.3077  -22.4265    9.3009 C.2       5 UNK         0.5034 
     61 O         -48.7123  -23.4119    9.7445 O.2       5 UNK        -0.5045 
     62 CA        -48.5208  -21.2458    8.6979 C.3       5 UNK         0.0224 
     63 CB        -48.6122  -20.0128    9.6149 C.3       5 UNK        -0.1978 
     64 N         -47.1043  -21.5606    8.4877 N.am      5 UNK        -0.4737 
     65 C         -46.6435  -22.4375    7.5895 C.2       4 UNK         0.5027 
     66 O         -47.3593  -23.0121    6.7647 O.2       4 UNK        -0.5211 
     67 CA        -45.1373  -22.7310    7.6284 C.3       4 UNK         0.0297 
     68 CB        -44.6916  -23.2543    9.0089 C.3       4 UNK        -0.1993 
     69 N         -44.8550  -23.7299    6.6057 N.am      4 UNK        -0.4486 
     70 C         -43.6795  -23.9714    6.0199 C.2       3 UNK         0.4961 
     71 O         -42.6412  -23.3601    6.2795 O.2       3 UNK        -0.5105 
     72 CA        -43.6886  -25.1001    4.9704 C.3       3 UNK         0.0299 
     73 CB        -42.2858  -25.4327    4.4167 C.3       3 UNK        -0.1972 
     74 N         -44.3708  -26.3048    5.4669 N.am      3 UNK        -0.4305 
     75 C         -44.0025  -27.0745    6.5036 C.2       2 UNK         0.5006 
     76 O         -42.9769  -26.9075    7.1664 O.2       2 UNK        -0.5106 
     77 CA        -44.9724  -28.2168    6.8532 C.3       2 UNK         0.0296 
     78 CB        -44.3049  -29.3477    7.6658 C.3       2 UNK        -0.2002 
     79 N         -46.1753  -27.7176    7.5300 N.am      2 UNK        -0.4032 
     80 C         -46.2721  -27.1105    8.7232 C.2       1 UNK         0.5000 
     81 O         -45.3152  -26.8724    9.4608 O.2       1 UNK        -0.5238 
     82 H82       -49.1425  -24.7331    5.4491 H         1 UNK         0.0889 
     83 H83       -49.9608  -24.2811    6.9464 H         1 UNK         0.0889 
     84 H84       -50.6372  -25.5457    5.9209 H         1 UNK         0.0889 
     85 H85       -48.5581  -24.9133    8.5865 H         1 UNK         0.3028 
     86 H86       -47.5464  -26.0754   10.0646 H         1 UNK         0.0864 
     87 H87       -47.9440  -28.4588   10.4713 H         1 UNK         0.0720 
     88 H88       -48.5846  -28.6908    8.8689 H         1 UNK         0.0720 
     89 H89       -51.2393  -29.3959    9.2743 H         1 UNK         0.0814 
     90 H90       -50.7962  -28.1973    8.0844 H         1 UNK         0.0814 
     91 H91       -52.0964  -26.0762    7.8614 H         1 UNK         0.1469 
     92 H92       -56.1516  -26.1797    9.2422 H         1 UNK         0.1381 
     93 H93       -53.3921  -29.2673   10.3849 H         1 UNK         0.1206 
     94 H94       -56.3997  -27.7236   11.4395 H         1 UNK         0.0813 
     95 H95       -56.9089  -28.5736    9.9954 H         1 UNK         0.0813 
     96 H96       -57.4457  -31.5173   12.2653 H         1 UNK         0.0638 
     97 H97       -58.1135  -30.1566   11.4025 H         1 UNK         0.0638 
     98 H98       -57.6150  -28.6632   13.3506 H         1 UNK         0.0568 
     99 H99       -59.9174  -30.2967   12.1926 H         1 UNK         0.3450 
    100 H100      -61.0505  -30.3018   13.5178 H         1 UNK         0.3450 
    101 H101      -56.0628  -29.2186   14.7561 H         1 UNK         0.2987 
    102 H102      -55.7271  -31.5083   17.1619 H         1 UNK         0.0766 
    103 H103      -53.8588  -32.1497   14.8197 H         1 UNK         0.0798 
    104 H104      -54.7397  -33.3054   15.8055 H         1 UNK         0.0798 
    105 H105      -53.4441  -32.3612   16.5212 H         1 UNK         0.0798 
    106 H106      -53.7886  -29.8104   15.7381 H         1 UNK         0.3198 
    107 H107      -55.0078  -26.8031   17.0492 H         1 UNK         0.0843 
    108 H108      -52.5605  -28.1981   18.2610 H         1 UNK         0.0831 
    109 H109      -53.8712  -27.4458   19.1574 H         1 UNK         0.0831 
    110 H110      -52.8018  -26.4529   18.1796 H         1 UNK         0.0831 
    111 H111      -52.4890  -27.4739   15.8533 H         1 UNK         0.3133 
    112 H112      -53.5798  -28.1116   12.6092 H         1 UNK         0.0566 
    113 H113      -52.6282  -25.2991   13.3514 H         1 UNK         0.0814 
    114 H114      -54.0218  -25.6956   12.3561 H         1 UNK         0.0814 
    115 H115      -52.4102  -26.0645   11.7729 H         1 UNK         0.0814 
    116 H116      -50.9976  -27.3064   13.4182 H         1 UNK         0.3091 
    117 H117      -50.0568  -30.1470   15.2953 H         1 UNK         0.0702 
    118 H118      -48.3271  -30.5069   13.5562 H         1 UNK         0.0785 
    119 H119      -49.2493  -29.5476   12.3984 H         1 UNK         0.0785 
    120 H120      -49.8817  -31.0820   12.9762 H         1 UNK         0.0785 
    121 H121      -48.4881  -28.0417   14.2244 H         1 UNK         0.2998 
    122 H122      -48.6479  -25.9812   17.0537 H         1 UNK         0.0697 
    123 H123      -47.1298  -26.5504   14.4438 H         1 UNK         0.0825 
    124 H124      -46.7762  -27.2945   15.9999 H         1 UNK         0.0825 
    125 H125      -46.5925  -25.5633   15.7931 H         1 UNK         0.0825 
    126 H126      -49.4603  -24.2468   15.9380 H         1 UNK         0.3029 
    127 H127      -51.0813  -23.3829   14.1682 H         1 UNK         0.0897 
    128 H128      -48.2559  -22.5827   13.2220 H         1 UNK         0.0792 
    129 H129      -48.9126  -22.2823   14.8268 H         1 UNK         0.0792 
    130 H130      -49.5989  -21.4639   13.4371 H         1 UNK         0.0792 
    131 H131      -49.9857  -24.3722   11.6689 H         1 UNK         0.3086 
    132 H132      -51.2497  -24.2388    9.8041 H         1 UNK         0.0583 
    133 H133      -53.6883  -23.6893   10.0627 H         1 UNK         0.1020 
    134 H134      -53.3713  -22.0272    9.6433 H         1 UNK         0.1020 
    135 H135      -55.3876  -24.2360    8.0991 H         1 UNK         0.0694 
    136 H136      -54.6964  -24.9653    6.6700 H         1 UNK         0.0694 
    137 H137      -51.0560  -21.4594    8.9455 H         1 UNK         0.2989 
    138 H138      -48.9639  -21.0051    7.7287 H         1 UNK         0.1055 
    139 H139      -48.2035  -20.2168   10.6059 H         1 UNK         0.0806 
    140 H140      -49.6455  -19.6911    9.7508 H         1 UNK         0.0806 
    141 H141      -48.0688  -19.1654    9.1962 H         1 UNK         0.0806 
    142 H142      -46.4529  -21.1555    9.1439 H         1 UNK         0.3061 
    143 H143      -44.6027  -21.8096    7.3886 H         1 UNK         0.0734 
    144 H144      -45.2812  -24.1180    9.3181 H         1 UNK         0.0832 
    145 H145      -43.6432  -23.5530    9.0050 H         1 UNK         0.0832 
    146 H146      -44.8023  -22.4915    9.7799 H         1 UNK         0.0832 
    147 H147      -45.6847  -24.2120    6.2809 H         1 UNK         0.3156 
    148 H148      -44.2867  -24.7326    4.1351 H         1 UNK         0.0589 
    149 H149      -42.3315  -26.2232    3.6677 H         1 UNK         0.0808 
    150 H150      -41.8401  -24.5595    3.9387 H         1 UNK         0.0808 
    151 H151      -41.6013  -25.7538    5.2024 H         1 UNK         0.0808 
    152 H152      -45.2352  -26.5360    4.9963 H         1 UNK         0.3098 
    153 H153      -45.3070  -28.6541    5.9110 H         1 UNK         0.0720 
    154 H154      -43.9315  -28.9980    8.6287 H         1 UNK         0.0791 
    155 H155      -43.4556  -29.7643    7.1231 H         1 UNK         0.0791 
    156 H156      -45.0021  -30.1640    7.8542 H         1 UNK         0.0791 
    157 H157      -47.0474  -27.7976    7.0081 H         1 UNK         0.3028 
@<TRIPOS>BOND
     1    1    2 1    
     2    1   82 1    
     3    1   83 1    
     4    1   84 1    
     5    2    3 2    
     6    2    4 am   BACKBONE|DICT|INTERRES
     7    4    5 1    
     8    4   85 1    
     9    5    6 1    
    10    5   80 1    
    11    5   86 1    
    12    6    7 1    
    13    6   87 1    
    14    6   88 1    
    15    7    8 1    
    16    8    9 1    
    17    8   89 1    
    18    8   90 1    
    19    9   10 ar   
    20    9   14 ar   
    21   10   11 ar   
    22   10   91 1    
    23   11   12 ar   
    24   11   58 1    
    25   12   13 ar   
    26   12   92 1    
    27   13   14 ar   
    28   13   15 1    
    29   14   93 1    
    30   15   16 1    
    31   15   94 1    
    32   15   95 1    
    33   16   17 1    
    34   17   18 1    
    35   17   96 1    
    36   17   97 1    
    37   18   19 1    
    38   18   22 1    
    39   18   98 1    
    40   19   20 am   BACKBONE|DICT|INTERRES
    41   19   21 2    
    42   20   99 1    
    43   20  100 1    
    44   22   23 am   BACKBONE|DICT|INTERRES
    45   22  101 1    
    46   23   24 2    
    47   23   25 1    
    48   25   26 1    
    49   25   27 1    
    50   25  102 1    
    51   26  103 1    
    52   26  104 1    
    53   26  105 1    
    54   27   28 am   BACKBONE|DICT|INTERRES
    55   27  106 1    
    56   28   29 2    
    57   28   30 1    
    58   30   31 1    
    59   30   32 1    
    60   30  107 1    
    61   31  108 1    
    62   31  109 1    
    63   31  110 1    
    64   32   33 am   BACKBONE|DICT|INTERRES
    65   32  111 1    
    66   33   34 2    
    67   33   35 1    
    68   35   36 1    
    69   35   37 1    
    70   35  112 1    
    71   36  113 1    
    72   36  114 1    
    73   36  115 1    
    74   37   38 am   BACKBONE|DICT|INTERRES
    75   37  116 1    
    76   38   39 2    
    77   38   40 1    
    78   40   41 1    
    79   40   42 1    
    80   40  117 1    
    81   41  118 1    
    82   41  119 1    
    83   41  120 1    
    84   42   43 am   BACKBONE|DICT|INTERRES
    85   42  121 1    
    86   43   44 2    
    87   43   45 1    
    88   45   46 1    
    89   45   47 1    
    90   45  122 1    
    91   46  123 1    
    92   46  124 1    
    93   46  125 1    
    94   47   48 am   BACKBONE|DICT|INTERRES
    95   47  126 1    
    96   48   49 2    
    97   48   50 1    
    98   50   51 1    
    99   50   52 1    
   100   50  127 1    
   101   51  128 1    
   102   51  129 1    
   103   51  130 1    
   104   52   53 am   BACKBONE|DICT|INTERRES
   105   52  131 1    
   106   53   54 2    
   107   53   55 1    
   108   55   56 1    
   109   55   59 1    
   110   55  132 1    
   111   56   57 1    
   112   56  133 1    
   113   56  134 1    
   114   57   58 1    
   115   58  135 1    
   116   58  136 1    
   117   59   60 am   BACKBONE|DICT|INTERRES
   118   59  137 1    
   119   60   61 2    
   120   60   62 1    
   121   62   63 1    
   122   62   64 1    
   123   62  138 1    
   124   63  139 1    
   125   63  140 1    
   126   63  141 1    
   127   64   65 am   BACKBONE|DICT|INTERRES
   128   64  142 1    
   129   65   66 2    
   130   65   67 1    
   131   67   68 1    
   132   67   69 1    
   133   67  143 1    
   134   68  144 1    
   135   68  145 1    
   136   68  146 1    
   137   69   70 am   BACKBONE|DICT|INTERRES
   138   69  147 1    
   139   70   71 2    
   140   70   72 1    
   141   72   73 1    
   142   72   74 1    
   143   72  148 1    
   144   73  149 1    
   145   73  150 1    
   146   73  151 1    
   147   74   75 am   BACKBONE|DICT|INTERRES
   148   74  152 1    
   149   75   76 2    
   150   75   77 1    
   151   77   78 1    
   152   77   79 1    
   153   77  153 1    
   154   78  154 1    
   155   78  155 1    
   156   78  156 1    
   157   79   80 am   BACKBONE|DICT|INTERRES
   158   79  157 1    
   159   80   81 2    
@<TRIPOS>SUBSTRUCTURE
     1 UNK         1 GROUP             0       ****    0 ROOT    
