@<TRIPOS>MOLECULE
3R207
157   159    1
SMALL
USER_CHARGES


@<TRIPOS>ATOM
      1 CA        -46.2939  -30.6733    6.2591 C.3       0 UNK        -0.1975 
      2 C         -46.8894  -29.9160    5.0816 C.2       0 UNK         0.4852 
      3 O         -46.2165  -29.7334    4.0667 O.2       0 UNK        -0.5216 
      4 N         -48.1471  -29.4730    5.2114 N.am      1 UNK        -0.4461 
      5 CA        -48.8958  -28.7298    4.1873 C.3       1 UNK         0.0864 
      6 C6        -50.3967  -28.6330    4.5416 C.3       14 UNK        -0.0898 
      7 S7        -51.2101  -30.2492    4.7607 S.3       14 UNK        -0.2598 
      8 C8        -52.9190  -29.7166    5.1086 C.3       14 UNK         0.0286 
      9 C9        -52.9923  -28.8627    6.3664 C.ar      14 UNK        -0.0844 
     10 C10       -53.0251  -27.4664    6.2724 C.ar      14 UNK        -0.0881 
     11 C11       -53.0240  -26.6751    7.4246 C.ar      14 UNK        -0.0643 
     12 C12       -53.0243  -27.2969    8.6764 C.ar      14 UNK        -0.0930 
     13 C13       -53.0034  -28.6909    8.7842 C.ar      14 UNK        -0.0827 
     14 C14       -52.9893  -29.4698    7.6251 C.ar      14 UNK        -0.1249 
     15 C15       -52.9597  -29.3481   10.1543 C.3       14 UNK         0.0141 
     16 S16       -54.6290  -29.5360   10.8574 S.3       14 UNK        -0.2313 
     17 C17       -54.2918  -29.3070   12.6357 C.3       14 UNK        -0.0915 
     18 CA        -54.5965  -30.5385   13.5370 C.3       13 UNK         0.0968 
     19 C         -53.5135  -31.6631   13.4728 C.2       13 UNK         0.5732 
     20 N         -53.3023  -32.4279   14.5378 N.am      13 UNK        -0.7310 
     21 O         -52.8744  -31.8742   12.4456 O.2       13 UNK        -0.5035 
     22 N         -54.9639  -30.1165   14.9040 N.am      13 UNK        -0.4233 
     23 C         -54.1541  -29.4757   15.7593 C.2       13 UNK         0.4989 
     24 O         -52.9752  -29.2078   15.5257 O.2       13 UNK        -0.4996 
     25 CA        -54.7518  -29.0965   17.1179 C.3       12 UNK         0.0216 
     26 CB        -54.6079  -30.2711   18.1072 C.3       12 UNK        -0.1964 
     27 N         -54.0771  -27.9020   17.6335 N.am      12 UNK        -0.4276 
     28 C         -54.5144  -27.1528   18.6557 C.2       12 UNK         0.5020 
     29 O         -55.5643  -27.3702   19.2627 O.2       12 UNK        -0.5489 
     30 CA        -53.6494  -25.9549   19.0737 C.3       11 UNK         0.0294 
     31 CB        -52.2711  -26.4087   19.5870 C.3       11 UNK        -0.2019 
     32 N         -53.4843  -25.0328   17.9528 N.am      11 UNK        -0.4493 
     33 C         -54.2149  -23.9254   17.7534 C.2       11 UNK         0.4932 
     34 O         -55.0531  -23.5049   18.5517 O.2       11 UNK        -0.5029 
     35 CA        -53.9856  -23.1489   16.4398 C.3       10 UNK         0.0280 
     36 CB        -53.0008  -21.9914   16.6654 C.3       10 UNK        -0.1976 
     37 N         -53.4973  -23.9979   15.3504 N.am      10 UNK        -0.4242 
     38 C         -54.2127  -24.9853   14.7895 C.2       10 UNK         0.5072 
     39 O         -55.4110  -25.1646   15.0113 O.2       10 UNK        -0.5224 
     40 CA        -53.4807  -25.9780   13.8677 C.3       9 UNK         0.0343 
     41 CB        -53.8999  -25.7813   12.4040 C.3       9 UNK        -0.2003 
     42 N         -52.0182  -25.9714   13.9637 N.am      9 UNK        -0.4272 
     43 C         -51.3089  -26.2150   15.0759 C.2       9 UNK         0.4988 
     44 O         -51.8141  -26.4784   16.1679 O.2       9 UNK        -0.5108 
     45 CA        -49.7826  -26.0713   14.9747 C.3       8 UNK         0.0248 
     46 CB        -49.1457  -27.4243   14.6226 C.3       8 UNK        -0.2001 
     47 N         -49.3495  -25.0464   14.0160 N.am      8 UNK        -0.4140 
     48 C         -49.6586  -23.7412   14.0958 C.2       8 UNK         0.5028 
     49 O         -50.3405  -23.2553   14.9989 O.2       8 UNK        -0.5428 
     50 CA        -49.1696  -22.8335   12.9533 C.3       7 UNK         0.0264 
     51 CB        -47.6639  -22.5534   13.0750 C.3       7 UNK        -0.1988 
     52 N         -49.4723  -23.4037   11.6386 N.am      7 UNK        -0.4454 
     53 C         -50.7137  -23.5358   11.1461 C.2       7 UNK         0.5027 
     54 O         -51.7098  -23.0569   11.6879 O.2       7 UNK        -0.5083 
     55 CA        -50.8962  -24.3811    9.8701 C.3       6 UNK         0.0844 
     56 C56       -51.0714  -23.5134    8.6027 C.3       14 UNK        -0.0967 
     57 S57       -51.3222  -24.5106    7.0878 S.3       14 UNK        -0.2604 
     58 C58       -53.0160  -25.1550    7.3093 C.3       14 UNK         0.0134 
     59 N         -49.8403  -25.3812    9.7211 N.am      6 UNK        -0.4116 
     60 C         -49.7874  -26.5273   10.4075 C.2       5 UNK         0.5034 
     61 O         -50.6007  -26.8491   11.2740 O.2       5 UNK        -0.5045 
     62 CA        -48.5927  -27.4409   10.0936 C.3       5 UNK         0.0224 
     63 CB        -48.7879  -28.1450    8.7391 C.3       5 UNK        -0.1978 
     64 N         -47.3208  -26.7091   10.0963 N.am      5 UNK        -0.4737 
     65 C         -46.8085  -26.1086   11.1814 C.2       4 UNK         0.5027 
     66 O         -47.3394  -26.1339   12.2900 O.2       4 UNK        -0.5211 
     67 CA        -45.5081  -25.3092   11.0083 C.3       4 UNK         0.0297 
     68 CB        -44.2911  -26.2183   11.2394 C.3       4 UNK        -0.1993 
     69 N         -45.3718  -24.6360    9.7163 N.am      4 UNK        -0.4486 
     70 C         -46.2446  -23.7856    9.1569 C.2       3 UNK         0.4961 
     71 O         -47.3362  -23.4897    9.6452 O.2       3 UNK        -0.5105 
     72 CA        -45.8281  -23.1656    7.8099 C.3       3 UNK         0.0299 
     73 CB        -44.2989  -23.1524    7.5858 C.3       3 UNK        -0.1972 
     74 N         -46.4843  -23.7729    6.6463 N.am      3 UNK        -0.4305 
     75 C         -46.6309  -25.0755    6.3621 C.2       2 UNK         0.5006 
     76 O         -46.3693  -26.0065    7.1317 O.2       2 UNK        -0.5106 
     77 CA        -47.1076  -25.3864    4.9399 C.3       2 UNK         0.0296 
     78 CB        -45.9437  -25.2345    3.9386 C.3       2 UNK        -0.2002 
     79 N         -47.6262  -26.7480    4.9172 N.am      2 UNK        -0.4032 
     80 C         -48.3555  -27.3036    3.9426 C.2       1 UNK         0.5000 
     81 O         -48.6409  -26.7275    2.8906 O.2       1 UNK        -0.5238 
     82 H82       -45.4572  -30.1152    6.6786 H         1 UNK         0.0889 
     83 H83       -45.9261  -31.6457    5.9326 H         1 UNK         0.0889 
     84 H84       -47.0246  -30.8376    7.0509 H         1 UNK         0.0889 
     85 H85       -48.6670  -29.6901    6.0496 H         1 UNK         0.3028 
     86 H86       -48.7993  -29.2735    3.2450 H         1 UNK         0.0864 
     87 H87       -50.5111  -28.0597    5.4630 H         1 UNK         0.0720 
     88 H88       -50.9423  -28.0900    3.7668 H         1 UNK         0.0720 
     89 H89       -53.5504  -30.5986    5.2255 H         1 UNK         0.0814 
     90 H90       -53.3121  -29.1716    4.2489 H         1 UNK         0.0814 
     91 H91       -53.0167  -26.9918    5.3006 H         1 UNK         0.1469 
     92 H92       -53.0319  -26.6987    9.5728 H         1 UNK         0.1381 
     93 H93       -52.9564  -30.5482    7.7010 H         1 UNK         0.1206 
     94 H94       -52.4835  -30.3280   10.0972 H         1 UNK         0.0813 
     95 H95       -52.3319  -28.7472   10.8112 H         1 UNK         0.0813 
     96 H96       -54.9430  -28.4841   12.9305 H         1 UNK         0.0638 
     97 H97       -53.2733  -28.9536   12.8026 H         1 UNK         0.0638 
     98 H98       -55.4990  -31.0084   13.1451 H         1 UNK         0.0568 
     99 H99       -52.6092  -33.1576   14.4885 H         1 UNK         0.3450 
    100 H100      -53.8192  -32.2775   15.3885 H         1 UNK         0.3450 
    101 H101      -55.9084  -30.3332   15.1889 H         1 UNK         0.2987 
    102 H102      -55.8093  -28.8628   16.9777 H         1 UNK         0.0766 
    103 H103      -55.0813  -30.0530   19.0644 H         1 UNK         0.0798 
    104 H104      -53.5601  -30.5060   18.2994 H         1 UNK         0.0798 
    105 H105      -55.0799  -31.1744   17.7188 H         1 UNK         0.0798 
    106 H106      -53.2227  -27.6465   17.1411 H         1 UNK         0.3198 
    107 H107      -54.1559  -25.4501   19.8994 H         1 UNK         0.0843 
    108 H108      -52.3773  -27.1028   20.4217 H         1 UNK         0.0831 
    109 H109      -51.6865  -25.5608   19.9442 H         1 UNK         0.0831 
    110 H110      -51.6869  -26.9132   18.8170 H         1 UNK         0.0831 
    111 H111      -52.8418  -25.3367   17.2246 H         1 UNK         0.3133 
    112 H112      -54.9441  -22.7258   16.1320 H         1 UNK         0.0566 
    113 H113      -52.8551  -21.4091   15.7552 H         1 UNK         0.0814 
    114 H114      -53.3699  -21.3090   17.4322 H         1 UNK         0.0814 
    115 H115      -52.0243  -22.3513   16.9922 H         1 UNK         0.0814 
    116 H116      -52.5174  -23.9056   15.1068 H         1 UNK         0.3091 
    117 H117      -53.8024  -26.9677   14.1863 H         1 UNK         0.0702 
    118 H118      -53.4351  -26.5291   11.7642 H         1 UNK         0.0785 
    119 H119      -53.6256  -24.7949   12.0323 H         1 UNK         0.0785 
    120 H120      -54.9797  -25.8839   12.2886 H         1 UNK         0.0785 
    121 H121      -51.5072  -25.8137   13.1042 H         1 UNK         0.2998 
    122 H122      -49.4197  -25.7702   15.9594 H         1 UNK         0.0697 
    123 H123      -49.4266  -27.7528   13.6212 H         1 UNK         0.0825 
    124 H124      -49.4627  -28.2000   15.3213 H         1 UNK         0.0825 
    125 H125      -48.0577  -27.3738   14.6655 H         1 UNK         0.0825 
    126 H126      -48.7454  -25.3676   13.2616 H         1 UNK         0.3029 
    127 H127      -49.6966  -21.8801   13.0348 H         1 UNK         0.0897 
    128 H128      -47.3061  -21.9300   12.2552 H         1 UNK         0.0792 
    129 H129      -47.4428  -22.0276   14.0047 H         1 UNK         0.0792 
    130 H130      -47.0803  -23.4729   13.0784 H         1 UNK         0.0792 
    131 H131      -48.6902  -23.7385   11.0835 H         1 UNK         0.3086 
    132 H132      -51.8346  -24.9144   10.0168 H         1 UNK         0.0583 
    133 H133      -51.9147  -22.8293    8.7170 H         1 UNK         0.1020 
    134 H134      -50.1910  -22.8856    8.4507 H         1 UNK         0.1020 
    135 H135      -53.4865  -24.7057    8.1850 H         1 UNK         0.0694 
    136 H136      -53.6208  -24.8491    6.4544 H         1 UNK         0.0694 
    137 H137      -49.1020  -25.1656    9.0669 H         1 UNK         0.2989 
    138 H138      -48.5471  -28.2019   10.8760 H         1 UNK         0.1055 
    139 H139      -49.7260  -28.7026    8.7216 H         1 UNK         0.0806 
    140 H140      -47.9837  -28.8543    8.5442 H         1 UNK         0.0806 
    141 H141      -48.8184  -27.4348    7.9119 H         1 UNK         0.0806 
    142 H142      -46.8397  -26.6008    9.2097 H         1 UNK         0.3061 
    143 H143      -45.4961  -24.5321   11.7735 H         1 UNK         0.0734 
    144 H144      -44.3555  -26.7172   12.2077 H         1 UNK         0.0832 
    145 H145      -44.2171  -26.9954   10.4774 H         1 UNK         0.0832 
    146 H146      -43.3611  -25.6496   11.2329 H         1 UNK         0.0832 
    147 H147      -44.5288  -24.8352    9.1979 H         1 UNK         0.3156 
    148 H148      -46.1610  -22.1270    7.8446 H         1 UNK         0.0589 
    149 H149      -43.8950  -24.1526    7.4238 H         1 UNK         0.0808 
    150 H150      -44.0404  -22.5542    6.7118 H         1 UNK         0.0808 
    151 H151      -43.7756  -22.7113    8.4356 H         1 UNK         0.0808 
    152 H152      -46.7864  -23.1121    5.9438 H         1 UNK         0.3098 
    153 H153      -47.9154  -24.6984    4.6819 H         1 UNK         0.0720 
    154 H154      -45.5189  -24.2305    3.9731 H         1 UNK         0.0791 
    155 H155      -46.2693  -25.4060    2.9128 H         1 UNK         0.0791 
    156 H156      -45.1377  -25.9375    4.1538 H         1 UNK         0.0791 
    157 H157      -47.4274  -27.2762    5.7577 H         1 UNK         0.3028 
@<TRIPOS>BOND
     1    1    2 1    
     2    1   82 1    
     3    1   83 1    
     4    1   84 1    
     5    2    3 2    
     6    2    4 am   BACKBONE|DICT|INTERRES
     7    4    5 1    
     8    4   85 1    
     9    5    6 1    
    10    5   80 1    
    11    5   86 1    
    12    6    7 1    
    13    6   87 1    
    14    6   88 1    
    15    7    8 1    
    16    8    9 1    
    17    8   89 1    
    18    8   90 1    
    19    9   10 ar   
    20    9   14 ar   
    21   10   11 ar   
    22   10   91 1    
    23   11   12 ar   
    24   11   58 1    
    25   12   13 ar   
    26   12   92 1    
    27   13   14 ar   
    28   13   15 1    
    29   14   93 1    
    30   15   16 1    
    31   15   94 1    
    32   15   95 1    
    33   16   17 1    
    34   17   18 1    
    35   17   96 1    
    36   17   97 1    
    37   18   19 1    
    38   18   22 1    
    39   18   98 1    
    40   19   20 am   BACKBONE|DICT|INTERRES
    41   19   21 2    
    42   20   99 1    
    43   20  100 1    
    44   22   23 am   BACKBONE|DICT|INTERRES
    45   22  101 1    
    46   23   24 2    
    47   23   25 1    
    48   25   26 1    
    49   25   27 1    
    50   25  102 1    
    51   26  103 1    
    52   26  104 1    
    53   26  105 1    
    54   27   28 am   BACKBONE|DICT|INTERRES
    55   27  106 1    
    56   28   29 2    
    57   28   30 1    
    58   30   31 1    
    59   30   32 1    
    60   30  107 1    
    61   31  108 1    
    62   31  109 1    
    63   31  110 1    
    64   32   33 am   BACKBONE|DICT|INTERRES
    65   32  111 1    
    66   33   34 2    
    67   33   35 1    
    68   35   36 1    
    69   35   37 1    
    70   35  112 1    
    71   36  113 1    
    72   36  114 1    
    73   36  115 1    
    74   37   38 am   BACKBONE|DICT|INTERRES
    75   37  116 1    
    76   38   39 2    
    77   38   40 1    
    78   40   41 1    
    79   40   42 1    
    80   40  117 1    
    81   41  118 1    
    82   41  119 1    
    83   41  120 1    
    84   42   43 am   BACKBONE|DICT|INTERRES
    85   42  121 1    
    86   43   44 2    
    87   43   45 1    
    88   45   46 1    
    89   45   47 1    
    90   45  122 1    
    91   46  123 1    
    92   46  124 1    
    93   46  125 1    
    94   47   48 am   BACKBONE|DICT|INTERRES
    95   47  126 1    
    96   48   49 2    
    97   48   50 1    
    98   50   51 1    
    99   50   52 1    
   100   50  127 1    
   101   51  128 1    
   102   51  129 1    
   103   51  130 1    
   104   52   53 am   BACKBONE|DICT|INTERRES
   105   52  131 1    
   106   53   54 2    
   107   53   55 1    
   108   55   56 1    
   109   55   59 1    
   110   55  132 1    
   111   56   57 1    
   112   56  133 1    
   113   56  134 1    
   114   57   58 1    
   115   58  135 1    
   116   58  136 1    
   117   59   60 am   BACKBONE|DICT|INTERRES
   118   59  137 1    
   119   60   61 2    
   120   60   62 1    
   121   62   63 1    
   122   62   64 1    
   123   62  138 1    
   124   63  139 1    
   125   63  140 1    
   126   63  141 1    
   127   64   65 am   BACKBONE|DICT|INTERRES
   128   64  142 1    
   129   65   66 2    
   130   65   67 1    
   131   67   68 1    
   132   67   69 1    
   133   67  143 1    
   134   68  144 1    
   135   68  145 1    
   136   68  146 1    
   137   69   70 am   BACKBONE|DICT|INTERRES
   138   69  147 1    
   139   70   71 2    
   140   70   72 1    
   141   72   73 1    
   142   72   74 1    
   143   72  148 1    
   144   73  149 1    
   145   73  150 1    
   146   73  151 1    
   147   74   75 am   BACKBONE|DICT|INTERRES
   148   74  152 1    
   149   75   76 2    
   150   75   77 1    
   151   77   78 1    
   152   77   79 1    
   153   77  153 1    
   154   78  154 1    
   155   78  155 1    
   156   78  156 1    
   157   79   80 am   BACKBONE|DICT|INTERRES
   158   79  157 1    
   159   80   81 2    
@<TRIPOS>SUBSTRUCTURE
     1 UNK         1 GROUP             0       ****    0 ROOT    
