@<TRIPOS>MOLECULE
3R207
157   159    1
SMALL
USER_CHARGES


@<TRIPOS>ATOM
      1 CA        -45.8883  -31.6919    5.1528 C.3       0 UNK        -0.1975 
      2 C         -46.9100  -30.5735    5.0111 C.2       0 UNK         0.4852 
      3 O         -46.7640  -29.7267    4.1284 O.2       0 UNK        -0.5216 
      4 N         -47.9353  -30.5663    5.8771 N.am      1 UNK        -0.4461 
      5 CA        -49.0243  -29.5823    5.9487 C.3       1 UNK         0.0864 
      6 C6        -49.9723  -29.9145    7.1305 C.3       14 UNK        -0.0898 
      7 S7        -51.4562  -28.8525    7.2375 S.3       14 UNK        -0.2598 
      8 C8        -50.9569  -27.7205    8.5752 C.3       14 UNK         0.0286 
      9 C9        -52.1134  -26.8518    9.0374 C.ar      14 UNK        -0.0844 
     10 C10       -52.3399  -25.6008    8.4557 C.ar      14 UNK        -0.0881 
     11 C11       -53.3691  -24.7790    8.9266 C.ar      14 UNK        -0.0643 
     12 C12       -54.1831  -25.2241    9.9717 C.ar      14 UNK        -0.0930 
     13 C13       -53.9646  -26.4724   10.5590 C.ar      14 UNK        -0.0827 
     14 C14       -52.9316  -27.2837   10.0837 C.ar      14 UNK        -0.1249 
     15 C15       -54.8103  -26.9096   11.7436 C.3       14 UNK         0.0141 
     16 S16       -56.3658  -27.7064   11.2339 S.3       14 UNK        -0.2313 
     17 C17       -55.8036  -29.3804   10.7689 C.3       14 UNK        -0.0915 
     18 CA        -56.1687  -30.4645   11.8178 C.3       13 UNK         0.0968 
     19 C         -55.7639  -31.8777   11.3039 C.2       13 UNK         0.5732 
     20 N         -54.7936  -32.5549   11.9066 N.am      13 UNK        -0.7310 
     21 O         -56.3475  -32.3696   10.3409 O.2       13 UNK        -0.5035 
     22 N         -55.6637  -30.1182   13.1572 N.am      13 UNK        -0.4233 
     23 C         -56.0586  -30.6847   14.3042 C.2       13 UNK         0.4989 
     24 O         -56.8796  -31.5999   14.3764 O.2       13 UNK        -0.4996 
     25 CA        -55.4380  -30.1250   15.5954 C.3       12 UNK         0.0216 
     26 CB        -54.1350  -30.8674   15.9326 C.3       12 UNK        -0.1964 
     27 N         -55.1819  -28.6806   15.5376 N.am      12 UNK        -0.4276 
     28 C         -56.1465  -27.7444   15.5472 C.2       12 UNK         0.5020 
     29 O         -57.3477  -28.0184   15.5764 O.2       12 UNK        -0.5489 
     30 CA        -55.7163  -26.2594   15.5164 C.3       11 UNK         0.0294 
     31 CB        -56.7150  -25.3383   16.2504 C.3       11 UNK        -0.2019 
     32 N         -54.3444  -26.0224   15.9847 N.am      11 UNK        -0.4493 
     33 C         -53.8515  -26.2856   17.2048 C.2       11 UNK         0.4932 
     34 O         -54.5338  -26.6942   18.1457 O.2       11 UNK        -0.5029 
     35 CA        -52.3359  -26.0797   17.3990 C.3       10 UNK         0.0280 
     36 CB        -51.7627  -26.9870   18.5079 C.3       10 UNK        -0.1976 
     37 N         -51.5283  -26.2199   16.1782 N.am      10 UNK        -0.4242 
     38 C         -51.4601  -27.2795   15.3531 C.2       10 UNK         0.5072 
     39 O         -52.2219  -28.2452   15.4276 O.2       10 UNK        -0.5224 
     40 CA        -50.3838  -27.2720   14.2453 C.3       9 UNK         0.0343 
     41 CB        -51.0322  -27.2779   12.8536 C.3       9 UNK        -0.2003 
     42 N         -49.4484  -26.1483   14.3268 N.am      9 UNK        -0.4272 
     43 C         -48.4931  -26.0024   15.2559 C.2       9 UNK         0.4988 
     44 O         -48.2110  -26.8601   16.0926 O.2       9 UNK        -0.5108 
     45 CA        -47.7720  -24.6440   15.2943 C.3       8 UNK         0.0248 
     46 CB        -46.4939  -24.6791   14.4404 C.3       8 UNK        -0.2001 
     47 N         -48.6332  -23.5320   14.8704 N.am      8 UNK        -0.4140 
     48 C         -49.7094  -23.1026   15.5485 C.2       8 UNK         0.5028 
     49 O         -50.0785  -23.5883   16.6171 O.2       8 UNK        -0.5428 
     50 CA        -50.5374  -21.9724   14.9143 C.3       7 UNK         0.0264 
     51 CB        -49.9216  -20.6021   15.2397 C.3       7 UNK        -0.1988 
     52 N         -50.6719  -22.1180   13.4637 N.am      7 UNK        -0.4454 
     53 C         -51.4147  -23.0567   12.8555 C.2       7 UNK         0.5027 
     54 O         -52.1274  -23.8605   13.4584 O.2       7 UNK        -0.5083 
     55 CA        -51.3067  -23.1301   11.3156 C.3       6 UNK         0.0844 
     56 C56       -52.3821  -22.2357   10.6442 C.3       14 UNK        -0.0967 
     57 S57       -52.2666  -22.2345    8.8178 S.3       14 UNK        -0.2604 
     58 C58       -53.5837  -23.3958    8.3318 C.3       14 UNK         0.0134 
     59 N         -49.9527  -22.8230   10.8345 N.am      6 UNK        -0.4116 
     60 C         -48.8519  -23.5245   11.1299 C.2       5 UNK         0.5034 
     61 O         -48.8395  -24.4963   11.8893 O.2       5 UNK        -0.5045 
     62 CA        -47.5331  -22.9976   10.5417 C.3       5 UNK         0.0224 
     63 CB        -46.8966  -21.9671   11.4894 C.3       5 UNK        -0.1978 
     64 N         -46.5810  -24.0844   10.3068 N.am      5 UNK        -0.4737 
     65 C         -46.6769  -24.9496    9.2915 C.2       4 UNK         0.5027 
     66 O         -47.5393  -24.8755    8.4131 O.2       4 UNK        -0.5211 
     67 CA        -45.6527  -26.0940    9.2788 C.3       4 UNK         0.0297 
     68 CB        -46.1625  -27.2653   10.1356 C.3       4 UNK        -0.1993 
     69 N         -45.4626  -26.5588    7.9068 N.am      4 UNK        -0.4486 
     70 C         -44.4060  -26.2836    7.1294 C.2       3 UNK         0.4961 
     71 O         -43.3909  -25.7136    7.5317 O.2       3 UNK        -0.5105 
     72 CA        -44.4870  -26.6997    5.6437 C.3       3 UNK         0.0299 
     73 CB        -43.8193  -28.0683    5.4357 C.3       3 UNK        -0.1972 
     74 N         -45.8589  -26.7532    5.1318 N.am      3 UNK        -0.4305 
     75 C         -46.6845  -25.6989    5.0487 C.2       2 UNK         0.5006 
     76 O         -46.3048  -24.5331    5.1695 O.2       2 UNK        -0.5106 
     77 CA        -48.1870  -25.9710    4.8190 C.3       2 UNK         0.0296 
     78 CB        -48.6226  -25.4609    3.4347 C.3       2 UNK        -0.2002 
     79 N         -48.6205  -27.3675    4.9655 N.am      2 UNK        -0.4032 
     80 C         -48.4689  -28.1470    6.0472 C.2       1 UNK         0.5000 
     81 O         -47.8816  -27.8028    7.0735 O.2       1 UNK        -0.5238 
     82 H82       -45.8674  -32.2958    4.2461 H         1 UNK         0.0889 
     83 H83       -46.1142  -32.3483    5.9929 H         1 UNK         0.0889 
     84 H84       -44.8935  -31.2751    5.3065 H         1 UNK         0.0889 
     85 H85       -47.9690  -31.2877    6.5829 H         1 UNK         0.3028 
     86 H86       -49.5963  -29.6719    5.0228 H         1 UNK         0.0864 
     87 H87       -50.3279  -30.9412    7.0300 H         1 UNK         0.0720 
     88 H88       -49.4295  -29.8854    8.0775 H         1 UNK         0.0720 
     89 H89       -50.1352  -27.0863    8.2407 H         1 UNK         0.0814 
     90 H90       -50.5722  -28.2955    9.4191 H         1 UNK         0.0814 
     91 H91       -51.6999  -25.2539    7.6558 H         1 UNK         0.1469 
     92 H92       -54.9752  -24.5896   10.3453 H         1 UNK         0.1381 
     93 H93       -52.7440  -28.2443   10.5418 H         1 UNK         0.1206 
     94 H94       -55.0526  -26.0286   12.3370 H         1 UNK         0.0813 
     95 H95       -54.2432  -27.5703   12.3999 H         1 UNK         0.0813 
     96 H96       -54.7293  -29.3764   10.5886 H         1 UNK         0.0638 
     97 H97       -56.2649  -29.6151    9.8078 H         1 UNK         0.0638 
     98 H98       -57.2575  -30.4837   11.8946 H         1 UNK         0.0568 
     99 H99       -54.5463  -33.4700   11.5649 H         1 UNK         0.3450 
    100 H100      -54.3120  -32.1642   12.6993 H         1 UNK         0.3450 
    101 H101      -54.9827  -29.3779   13.1991 H         1 UNK         0.2987 
    102 H102      -56.1474  -30.3063   16.4058 H         1 UNK         0.0766 
    103 H103      -54.3107  -31.9393   16.0339 H         1 UNK         0.0798 
    104 H104      -53.7126  -30.5178   16.8750 H         1 UNK         0.0798 
    105 H105      -53.3785  -30.7317   15.1586 H         1 UNK         0.0798 
    106 H106      -54.2066  -28.3908   15.5367 H         1 UNK         0.3198 
    107 H107      -55.7324  -25.9684   14.4679 H         1 UNK         0.0843 
    108 H108      -56.8294  -25.6163   17.2984 H         1 UNK         0.0831 
    109 H109      -57.7040  -25.3902   15.7934 H         1 UNK         0.0831 
    110 H110      -56.3978  -24.2963   16.2114 H         1 UNK         0.0831 
    111 H111      -53.6930  -25.6814   15.2897 H         1 UNK         0.3133 
    112 H112      -52.2143  -25.0453   17.7229 H         1 UNK         0.0566 
    113 H113      -50.6960  -26.8124   18.6500 H         1 UNK         0.0814 
    114 H114      -51.9014  -28.0433   18.2740 H         1 UNK         0.0814 
    115 H115      -52.2493  -26.7975   19.4654 H         1 UNK         0.0814 
    116 H116      -50.8883  -25.4507   16.0143 H         1 UNK         0.3091 
    117 H117      -49.8107  -28.1949   14.3540 H         1 UNK         0.0702 
    118 H118      -50.2815  -27.3082   12.0634 H         1 UNK         0.0785 
    119 H119      -51.6500  -26.3945   12.6914 H         1 UNK         0.0785 
    120 H120      -51.6703  -28.1530   12.7279 H         1 UNK         0.0785 
    121 H121      -49.5445  -25.4234   13.6236 H         1 UNK         0.2998 
    122 H122      -47.4799  -24.4588   16.3303 H         1 UNK         0.0697 
    123 H123      -46.7097  -24.8755   13.3903 H         1 UNK         0.0825 
    124 H124      -45.8221  -25.4672   14.7832 H         1 UNK         0.0825 
    125 H125      -45.9455  -23.7394   14.5053 H         1 UNK         0.0825 
    126 H126      -48.4280  -23.1157   13.9751 H         1 UNK         0.3029 
    127 H127      -51.5369  -22.0094   15.3540 H         1 UNK         0.0897 
    128 H128      -48.9251  -20.4901   14.8105 H         1 UNK         0.0792 
    129 H129      -49.8289  -20.4636   16.3180 H         1 UNK         0.0792 
    130 H130      -50.5429  -19.7889   14.8638 H         1 UNK         0.0792 
    131 H131      -50.1354  -21.4850   12.8888 H         1 UNK         0.3086 
    132 H132      -51.5086  -24.1670   11.0390 H         1 UNK         0.0583 
    133 H133      -53.3836  -22.5497   10.9443 H         1 UNK         0.1020 
    134 H134      -52.2828  -21.2016   10.9801 H         1 UNK         0.1020 
    135 H135      -54.5504  -22.9875    8.6310 H         1 UNK         0.0694 
    136 H136      -53.6065  -23.4704    7.2437 H         1 UNK         0.0694 
    137 H137      -49.8839  -22.0459   10.1933 H         1 UNK         0.2989 
    138 H138      -47.7453  -22.5105    9.5868 H         1 UNK         0.1055 
    139 H139      -45.9789  -21.5572   11.0670 H         1 UNK         0.0806 
    140 H140      -46.6514  -22.4003   12.4591 H         1 UNK         0.0806 
    141 H141      -47.5687  -21.1265   11.6673 H         1 UNK         0.0806 
    142 H142      -45.8734  -24.2312   11.0116 H         1 UNK         0.3061 
    143 H143      -44.7100  -25.7338    9.6960 H         1 UNK         0.0734 
    144 H144      -47.1175  -27.6453    9.7692 H         1 UNK         0.0832 
    145 H145      -45.4525  -28.0922   10.1394 H         1 UNK         0.0832 
    146 H146      -46.3118  -26.9584   11.1718 H         1 UNK         0.0832 
    147 H147      -46.2941  -26.9709    7.4835 H         1 UNK         0.3156 
    148 H148      -43.9406  -25.9570    5.0589 H         1 UNK         0.0589 
    149 H149      -44.3180  -28.8494    6.0106 H         1 UNK         0.0808 
    150 H150      -42.7761  -28.0451    5.7539 H         1 UNK         0.0808 
    151 H151      -43.8320  -28.3633    4.3862 H         1 UNK         0.0808 
    152 H152      -46.2471  -27.6743    4.9683 H         1 UNK         0.3098 
    153 H153      -48.7205  -25.3954    5.5783 H         1 UNK         0.0720 
    154 H154      -48.3575  -24.4110    3.3013 H         1 UNK         0.0791 
    155 H155      -49.7023  -25.5367    3.3037 H         1 UNK         0.0791 
    156 H156      -48.1442  -26.0221    2.6309 H         1 UNK         0.0791 
    157 H157      -49.0707  -27.7705    4.1562 H         1 UNK         0.3028 
@<TRIPOS>BOND
     1    1    2 1    
     2    1   82 1    
     3    1   83 1    
     4    1   84 1    
     5    2    3 2    
     6    2    4 am   BACKBONE|DICT|INTERRES
     7    4    5 1    
     8    4   85 1    
     9    5    6 1    
    10    5   80 1    
    11    5   86 1    
    12    6    7 1    
    13    6   87 1    
    14    6   88 1    
    15    7    8 1    
    16    8    9 1    
    17    8   89 1    
    18    8   90 1    
    19    9   10 ar   
    20    9   14 ar   
    21   10   11 ar   
    22   10   91 1    
    23   11   12 ar   
    24   11   58 1    
    25   12   13 ar   
    26   12   92 1    
    27   13   14 ar   
    28   13   15 1    
    29   14   93 1    
    30   15   16 1    
    31   15   94 1    
    32   15   95 1    
    33   16   17 1    
    34   17   18 1    
    35   17   96 1    
    36   17   97 1    
    37   18   19 1    
    38   18   22 1    
    39   18   98 1    
    40   19   20 am   BACKBONE|DICT|INTERRES
    41   19   21 2    
    42   20   99 1    
    43   20  100 1    
    44   22   23 am   BACKBONE|DICT|INTERRES
    45   22  101 1    
    46   23   24 2    
    47   23   25 1    
    48   25   26 1    
    49   25   27 1    
    50   25  102 1    
    51   26  103 1    
    52   26  104 1    
    53   26  105 1    
    54   27   28 am   BACKBONE|DICT|INTERRES
    55   27  106 1    
    56   28   29 2    
    57   28   30 1    
    58   30   31 1    
    59   30   32 1    
    60   30  107 1    
    61   31  108 1    
    62   31  109 1    
    63   31  110 1    
    64   32   33 am   BACKBONE|DICT|INTERRES
    65   32  111 1    
    66   33   34 2    
    67   33   35 1    
    68   35   36 1    
    69   35   37 1    
    70   35  112 1    
    71   36  113 1    
    72   36  114 1    
    73   36  115 1    
    74   37   38 am   BACKBONE|DICT|INTERRES
    75   37  116 1    
    76   38   39 2    
    77   38   40 1    
    78   40   41 1    
    79   40   42 1    
    80   40  117 1    
    81   41  118 1    
    82   41  119 1    
    83   41  120 1    
    84   42   43 am   BACKBONE|DICT|INTERRES
    85   42  121 1    
    86   43   44 2    
    87   43   45 1    
    88   45   46 1    
    89   45   47 1    
    90   45  122 1    
    91   46  123 1    
    92   46  124 1    
    93   46  125 1    
    94   47   48 am   BACKBONE|DICT|INTERRES
    95   47  126 1    
    96   48   49 2    
    97   48   50 1    
    98   50   51 1    
    99   50   52 1    
   100   50  127 1    
   101   51  128 1    
   102   51  129 1    
   103   51  130 1    
   104   52   53 am   BACKBONE|DICT|INTERRES
   105   52  131 1    
   106   53   54 2    
   107   53   55 1    
   108   55   56 1    
   109   55   59 1    
   110   55  132 1    
   111   56   57 1    
   112   56  133 1    
   113   56  134 1    
   114   57   58 1    
   115   58  135 1    
   116   58  136 1    
   117   59   60 am   BACKBONE|DICT|INTERRES
   118   59  137 1    
   119   60   61 2    
   120   60   62 1    
   121   62   63 1    
   122   62   64 1    
   123   62  138 1    
   124   63  139 1    
   125   63  140 1    
   126   63  141 1    
   127   64   65 am   BACKBONE|DICT|INTERRES
   128   64  142 1    
   129   65   66 2    
   130   65   67 1    
   131   67   68 1    
   132   67   69 1    
   133   67  143 1    
   134   68  144 1    
   135   68  145 1    
   136   68  146 1    
   137   69   70 am   BACKBONE|DICT|INTERRES
   138   69  147 1    
   139   70   71 2    
   140   70   72 1    
   141   72   73 1    
   142   72   74 1    
   143   72  148 1    
   144   73  149 1    
   145   73  150 1    
   146   73  151 1    
   147   74   75 am   BACKBONE|DICT|INTERRES
   148   74  152 1    
   149   75   76 2    
   150   75   77 1    
   151   77   78 1    
   152   77   79 1    
   153   77  153 1    
   154   78  154 1    
   155   78  155 1    
   156   78  156 1    
   157   79   80 am   BACKBONE|DICT|INTERRES
   158   79  157 1    
   159   80   81 2    
@<TRIPOS>SUBSTRUCTURE
     1 UNK         1 GROUP             0       ****    0 ROOT    
