@<TRIPOS>MOLECULE
3R207
157   159    1
SMALL
USER_CHARGES


@<TRIPOS>ATOM
      1 CA        -46.3176  -27.2904    4.1301 C.3       0 UNK        -0.1975 
      2 C         -47.6284  -27.2139    4.8967 C.2       0 UNK         0.4852 
      3 O         -47.6807  -26.5908    5.9577 O.2       0 UNK        -0.5216 
      4 N         -48.6942  -27.8354    4.3746 N.am      1 UNK        -0.4461 
      5 CA        -50.0363  -27.8713    4.9744 C.3       1 UNK         0.0864 
      6 C6        -50.0908  -28.6964    6.2970 C.3       14 UNK        -0.0898 
      7 S7        -49.3850  -30.3751    6.1384 S.3       14 UNK        -0.2598 
      8 C8        -50.8581  -31.4447    6.2169 C.3       14 UNK         0.0286 
      9 C9        -51.5948  -31.3207    7.5437 C.ar      14 UNK        -0.0844 
     10 C10       -50.9921  -31.7408    8.7346 C.ar      14 UNK        -0.0881 
     11 C11       -51.6633  -31.6085    9.9542 C.ar      14 UNK        -0.0643 
     12 C12       -52.9489  -31.0602    9.9740 C.ar      14 UNK        -0.0930 
     13 C13       -53.5629  -30.6390    8.7910 C.ar      14 UNK        -0.0827 
     14 C14       -52.8840  -30.7820    7.5781 C.ar      14 UNK        -0.1249 
     15 C15       -54.9632  -30.0401    8.8289 C.3       14 UNK         0.0141 
     16 S16       -55.0716  -28.3897    8.0560 S.3       14 UNK        -0.2313 
     17 C17       -53.7988  -27.4116    8.9328 C.3       14 UNK        -0.0915 
     18 CA        -54.3410  -26.5215   10.0814 C.3       13 UNK         0.0968 
     19 C         -55.3095  -25.4074    9.5863 C.2       13 UNK         0.5732 
     20 N         -56.5535  -25.3537   10.0468 N.am      13 UNK        -0.7310 
     21 O         -54.9153  -24.5681    8.7808 O.2       13 UNK        -0.5035 
     22 N         -54.8175  -27.3372   11.2074 N.am      13 UNK        -0.4233 
     23 C         -54.8871  -26.9190   12.4762 C.2       13 UNK         0.4989 
     24 O         -54.6300  -25.7667   12.8293 O.2       13 UNK        -0.4996 
     25 CA        -55.2738  -27.9562   13.5423 C.3       12 UNK         0.0216 
     26 CB        -55.2552  -29.4221   13.0532 C.3       12 UNK        -0.1964 
     27 N         -54.3518  -27.7839   14.6579 N.am      12 UNK        -0.4276 
     28 C         -54.5487  -28.1619   15.9245 C.2       12 UNK         0.5020 
     29 O         -55.5418  -28.7746   16.3192 O.2       12 UNK        -0.5489 
     30 CA        -53.4503  -27.7677   16.9243 C.3       11 UNK         0.0294 
     31 CB        -52.3155  -28.8053   16.9253 C.3       11 UNK        -0.2019 
     32 N         -52.8995  -26.4459   16.6194 N.am      11 UNK        -0.4493 
     33 C         -53.4992  -25.2867   16.9242 C.2       11 UNK         0.4932 
     34 O         -54.5545  -25.2123   17.5565 O.2       11 UNK        -0.5029 
     35 CA        -52.8023  -24.0005   16.4353 C.3       10 UNK         0.0280 
     36 CB        -53.2729  -22.7353   17.1838 C.3       10 UNK        -0.1976 
     37 N         -51.3372  -24.0968   16.4393 N.am      10 UNK        -0.4242 
     38 C         -50.5352  -24.3251   17.4932 C.2       10 UNK         0.5072 
     39 O         -50.9411  -24.4296   18.6516 O.2       10 UNK        -0.5224 
     40 CA        -49.0275  -24.5013   17.2244 C.3       9 UNK         0.0343 
     41 CB        -48.5791  -25.9189   17.6203 C.3       9 UNK        -0.2003 
     42 N         -48.6564  -24.2566   15.8272 N.am      9 UNK        -0.4272 
     43 C         -48.4232  -23.0429   15.3075 C.2       9 UNK         0.4988 
     44 O         -48.4203  -22.0050   15.9702 O.2       9 UNK        -0.5108 
     45 CA        -48.1911  -22.9609   13.7877 C.3       8 UNK         0.0248 
     46 CB        -46.7102  -23.1826   13.4471 C.3       8 UNK        -0.2001 
     47 N         -49.0257  -23.8816   13.0074 N.am      8 UNK        -0.4140 
     48 C         -50.3666  -23.8439   12.9691 C.2       8 UNK         0.5028 
     49 O         -51.0496  -23.0760   13.6448 O.2       8 UNK        -0.5428 
     50 CA        -51.0663  -24.8400   12.0385 C.3       7 UNK         0.0264 
     51 CB        -50.9743  -24.3702   10.5786 C.3       7 UNK        -0.1988 
     52 N         -50.4748  -26.1684   12.1519 N.am      7 UNK        -0.4454 
     53 C         -50.8140  -27.0799   13.0733 C.2       7 UNK         0.5027 
     54 O         -51.6966  -26.9150   13.9176 O.2       7 UNK        -0.5083 
     55 CA        -50.0139  -28.3993   13.0498 C.3       6 UNK         0.0844 
     56 C56       -50.6314  -29.3587   12.0001 C.3       14 UNK        -0.0967 
     57 S57       -49.7038  -30.9193   11.8081 S.3       14 UNK        -0.2604 
     58 C58       -51.0072  -32.0639   11.2514 C.3       14 UNK         0.0134 
     59 N         -48.5796  -28.1788   12.8283 N.am      6 UNK        -0.4116 
     60 C         -47.7787  -27.4097   13.5791 C.2       5 UNK         0.5034 
     61 O         -48.1487  -26.7964   14.5787 O.2       5 UNK        -0.5045 
     62 CA        -46.3251  -27.2472   13.1049 C.3       5 UNK         0.0224 
     63 CB        -45.4609  -28.3957   13.6494 C.3       5 UNK        -0.1978 
     64 N         -46.1369  -27.1459   11.6505 N.am      5 UNK        -0.4737 
     65 C         -46.8327  -26.3921   10.7852 C.2       4 UNK         0.5027 
     66 O         -47.8220  -25.7231   11.0949 O.2       4 UNK        -0.5211 
     67 CA        -46.3460  -26.4532    9.3247 C.3       4 UNK         0.0297 
     68 CB        -46.5011  -27.8803    8.7638 C.3       4 UNK        -0.1993 
     69 N         -47.0363  -25.5317    8.4189 N.am      4 UNK        -0.4486 
     70 C         -47.0385  -24.1923    8.4726 C.2       3 UNK         0.4961 
     71 O         -46.4113  -23.5365    9.3054 O.2       3 UNK        -0.5105 
     72 CA        -47.8691  -23.4501    7.4091 C.3       3 UNK         0.0299 
     73 CB        -47.0122  -23.1471    6.1684 C.3       3 UNK        -0.1972 
     74 N         -49.0611  -24.2089    7.0064 N.am      3 UNK        -0.4305 
     75 C         -50.3203  -23.7470    7.0597 C.2       2 UNK         0.5006 
     76 O         -50.6016  -22.5928    7.3857 O.2       2 UNK        -0.5106 
     77 CA        -51.4788  -24.7235    6.7556 C.3       2 UNK         0.0296 
     78 CB        -52.5508  -24.1072    5.8310 C.3       2 UNK        -0.2002 
     79 N         -51.0555  -26.0604    6.3136 N.am      2 UNK        -0.4032 
     80 C         -50.5896  -26.4289    5.1097 C.2       1 UNK         0.5000 
     81 O         -50.5387  -25.6796    4.1316 O.2       1 UNK        -0.5238 
     82 H82       -46.4130  -27.8779    3.2173 H         1 UNK         0.0889 
     83 H83       -45.5491  -27.7487    4.7517 H         1 UNK         0.0889 
     84 H84       -45.9851  -26.2889    3.8587 H         1 UNK         0.0889 
     85 H85       -48.6048  -28.3104    3.4878 H         1 UNK         0.3028 
     86 H86       -50.6820  -28.3696    4.2497 H         1 UNK         0.0864 
     87 H87       -51.1196  -28.7738    6.6500 H         1 UNK         0.0720 
     88 H88       -49.5320  -28.1985    7.0911 H         1 UNK         0.0720 
     89 H89       -50.5496  -32.4815    6.0763 H         1 UNK         0.0814 
     90 H90       -51.5155  -31.2053    5.3795 H         1 UNK         0.0814 
     91 H91       -49.9940  -32.1570    8.7138 H         1 UNK         0.1469 
     92 H92       -53.4722  -30.9666   10.9140 H         1 UNK         0.1381 
     93 H93       -53.3583  -30.4577    6.6618 H         1 UNK         0.1206 
     94 H94       -55.3332  -29.9774    9.8519 H         1 UNK         0.0813 
     95 H95       -55.6429  -30.7128    8.3044 H         1 UNK         0.0813 
     96 H96       -53.3059  -26.7897    8.1858 H         1 UNK         0.0638 
     97 H97       -53.0172  -28.0692    9.3140 H         1 UNK         0.0638 
     98 H98       -53.4796  -25.9724   10.4616 H         1 UNK         0.0568 
     99 H99       -57.1670  -24.6233    9.7225 H         1 UNK         0.3450 
    100 H100      -56.8838  -26.0341   10.7109 H         1 UNK         0.3450 
    101 H101      -55.0755  -28.2858   10.9884 H         1 UNK         0.2987 
    102 H102      -56.2820  -27.7068   13.8791 H         1 UNK         0.0766 
    103 H103      -55.5297  -30.1080   13.8549 H         1 UNK         0.0798 
    104 H104      -54.2662  -29.7143   12.7010 H         1 UNK         0.0798 
    105 H105      -55.9719  -29.5870   12.2482 H         1 UNK         0.0798 
    106 H106      -53.5028  -27.2669   14.4335 H         1 UNK         0.3198 
    107 H107      -53.8935  -27.7443   17.9225 H         1 UNK         0.0843 
    108 H108      -51.8326  -28.8809   15.9505 H         1 UNK         0.0831 
    109 H109      -52.6959  -29.7960   17.1778 H         1 UNK         0.0831 
    110 H110      -51.5503  -28.5549   17.6603 H         1 UNK         0.0831 
    111 H111      -52.0744  -26.4205   16.0329 H         1 UNK         0.3133 
    112 H112      -53.0914  -23.8878   15.3893 H         1 UNK         0.0566 
    113 H113      -52.7774  -21.8428   16.8017 H         1 UNK         0.0814 
    114 H114      -54.3462  -22.5851   17.0622 H         1 UNK         0.0814 
    115 H115      -53.0731  -22.7992   18.2538 H         1 UNK         0.0814 
    116 H116      -50.9059  -23.9682   15.5306 H         1 UNK         0.3091 
    117 H117      -48.4974  -23.7909   17.8622 H         1 UNK         0.0702 
    118 H118      -47.5171  -26.0698   17.4259 H         1 UNK         0.0785 
    119 H119      -49.1322  -26.6839   17.0736 H         1 UNK         0.0785 
    120 H120      -48.7425  -26.0987   18.6836 H         1 UNK         0.0785 
    121 H121      -48.5910  -25.0780   15.2295 H         1 UNK         0.2998 
    122 H122      -48.4572  -21.9498   13.4725 H         1 UNK         0.0697 
    123 H123      -46.3554  -24.1455   13.8089 H         1 UNK         0.0825 
    124 H124      -46.0877  -22.4155   13.9094 H         1 UNK         0.0825 
    125 H125      -46.5349  -23.1396   12.3714 H         1 UNK         0.0825 
    126 H126      -48.5444  -24.5381   12.3967 H         1 UNK         0.3029 
    127 H127      -52.1203  -24.8895   12.3206 H         1 UNK         0.0897 
    128 H128      -51.3995  -25.1099    9.9039 H         1 UNK         0.0792 
    129 H129      -51.5206  -23.4375   10.4325 H         1 UNK         0.0792 
    130 H130      -49.9431  -24.1966   10.2671 H         1 UNK         0.0792 
    131 H131      -49.6581  -26.3411   11.5737 H         1 UNK         0.3086 
    132 H132      -50.1142  -28.8593   14.0348 H         1 UNK         0.0583 
    133 H133      -51.6601  -29.5940   12.2799 H         1 UNK         0.1020 
    134 H134      -50.6846  -28.8853   11.0170 H         1 UNK         0.1020 
    135 H135      -50.5690  -33.0524   11.1062 H         1 UNK         0.0694 
    136 H136      -51.7491  -32.1741   12.0440 H         1 UNK         0.0694 
    137 H137      -48.1779  -28.6494   12.0310 H         1 UNK         0.2989 
    138 H138      -45.9499  -26.3205   13.5380 H         1 UNK         0.1055 
    139 H139      -45.5662  -28.4854   14.7319 H         1 UNK         0.0806 
    140 H140      -44.4031  -28.2306   13.4441 H         1 UNK         0.0806 
    141 H141      -45.7424  -29.3556   13.2143 H         1 UNK         0.0806 
    142 H142      -45.3532  -27.6657   11.2817 H         1 UNK         0.3061 
    143 H143      -45.2878  -26.1851    9.3194 H         1 UNK         0.0734 
    144 H144      -47.5467  -28.1900    8.7357 H         1 UNK         0.0832 
    145 H145      -45.9601  -28.6151    9.3606 H         1 UNK         0.0832 
    146 H146      -46.1071  -27.9516    7.7499 H         1 UNK         0.0832 
    147 H147      -47.4640  -25.9695    7.6061 H         1 UNK         0.3156 
    148 H148      -48.1614  -22.4975    7.8554 H         1 UNK         0.0589 
    149 H149      -46.6735  -24.0596    5.6766 H         1 UNK         0.0808 
    150 H150      -46.1250  -22.5725    6.4376 H         1 UNK         0.0808 
    151 H151      -47.5695  -22.5606    5.4379 H         1 UNK         0.0808 
    152 H152      -48.8946  -25.1532    6.6765 H         1 UNK         0.3098 
    153 H153      -51.9702  -24.8849    7.7137 H         1 UNK         0.0720 
    154 H154      -53.0033  -23.2298    6.2948 H         1 UNK         0.0791 
    155 H155      -53.3563  -24.8136    5.6302 H         1 UNK         0.0791 
    156 H156      -52.1343  -23.7851    4.8765 H         1 UNK         0.0791 
    157 H157      -51.0406  -26.7605    7.0412 H         1 UNK         0.3028 
@<TRIPOS>BOND
     1    1    2 1    
     2    1   82 1    
     3    1   83 1    
     4    1   84 1    
     5    2    3 2    
     6    2    4 am   BACKBONE|DICT|INTERRES
     7    4    5 1    
     8    4   85 1    
     9    5    6 1    
    10    5   80 1    
    11    5   86 1    
    12    6    7 1    
    13    6   87 1    
    14    6   88 1    
    15    7    8 1    
    16    8    9 1    
    17    8   89 1    
    18    8   90 1    
    19    9   10 ar   
    20    9   14 ar   
    21   10   11 ar   
    22   10   91 1    
    23   11   12 ar   
    24   11   58 1    
    25   12   13 ar   
    26   12   92 1    
    27   13   14 ar   
    28   13   15 1    
    29   14   93 1    
    30   15   16 1    
    31   15   94 1    
    32   15   95 1    
    33   16   17 1    
    34   17   18 1    
    35   17   96 1    
    36   17   97 1    
    37   18   19 1    
    38   18   22 1    
    39   18   98 1    
    40   19   20 am   BACKBONE|DICT|INTERRES
    41   19   21 2    
    42   20   99 1    
    43   20  100 1    
    44   22   23 am   BACKBONE|DICT|INTERRES
    45   22  101 1    
    46   23   24 2    
    47   23   25 1    
    48   25   26 1    
    49   25   27 1    
    50   25  102 1    
    51   26  103 1    
    52   26  104 1    
    53   26  105 1    
    54   27   28 am   BACKBONE|DICT|INTERRES
    55   27  106 1    
    56   28   29 2    
    57   28   30 1    
    58   30   31 1    
    59   30   32 1    
    60   30  107 1    
    61   31  108 1    
    62   31  109 1    
    63   31  110 1    
    64   32   33 am   BACKBONE|DICT|INTERRES
    65   32  111 1    
    66   33   34 2    
    67   33   35 1    
    68   35   36 1    
    69   35   37 1    
    70   35  112 1    
    71   36  113 1    
    72   36  114 1    
    73   36  115 1    
    74   37   38 am   BACKBONE|DICT|INTERRES
    75   37  116 1    
    76   38   39 2    
    77   38   40 1    
    78   40   41 1    
    79   40   42 1    
    80   40  117 1    
    81   41  118 1    
    82   41  119 1    
    83   41  120 1    
    84   42   43 am   BACKBONE|DICT|INTERRES
    85   42  121 1    
    86   43   44 2    
    87   43   45 1    
    88   45   46 1    
    89   45   47 1    
    90   45  122 1    
    91   46  123 1    
    92   46  124 1    
    93   46  125 1    
    94   47   48 am   BACKBONE|DICT|INTERRES
    95   47  126 1    
    96   48   49 2    
    97   48   50 1    
    98   50   51 1    
    99   50   52 1    
   100   50  127 1    
   101   51  128 1    
   102   51  129 1    
   103   51  130 1    
   104   52   53 am   BACKBONE|DICT|INTERRES
   105   52  131 1    
   106   53   54 2    
   107   53   55 1    
   108   55   56 1    
   109   55   59 1    
   110   55  132 1    
   111   56   57 1    
   112   56  133 1    
   113   56  134 1    
   114   57   58 1    
   115   58  135 1    
   116   58  136 1    
   117   59   60 am   BACKBONE|DICT|INTERRES
   118   59  137 1    
   119   60   61 2    
   120   60   62 1    
   121   62   63 1    
   122   62   64 1    
   123   62  138 1    
   124   63  139 1    
   125   63  140 1    
   126   63  141 1    
   127   64   65 am   BACKBONE|DICT|INTERRES
   128   64  142 1    
   129   65   66 2    
   130   65   67 1    
   131   67   68 1    
   132   67   69 1    
   133   67  143 1    
   134   68  144 1    
   135   68  145 1    
   136   68  146 1    
   137   69   70 am   BACKBONE|DICT|INTERRES
   138   69  147 1    
   139   70   71 2    
   140   70   72 1    
   141   72   73 1    
   142   72   74 1    
   143   72  148 1    
   144   73  149 1    
   145   73  150 1    
   146   73  151 1    
   147   74   75 am   BACKBONE|DICT|INTERRES
   148   74  152 1    
   149   75   76 2    
   150   75   77 1    
   151   77   78 1    
   152   77   79 1    
   153   77  153 1    
   154   78  154 1    
   155   78  155 1    
   156   78  156 1    
   157   79   80 am   BACKBONE|DICT|INTERRES
   158   79  157 1    
   159   80   81 2    
@<TRIPOS>SUBSTRUCTURE
     1 UNK         1 GROUP             0       ****    0 ROOT    
