@<TRIPOS>MOLECULE
3R207
157   159    1
SMALL
USER_CHARGES


@<TRIPOS>ATOM
      1 CA        -48.0559  -29.1159    6.2464 C.3       0 UNK        -0.1975 
      2 C         -48.4294  -27.7012    5.8277 C.2       0 UNK         0.4852 
      3 O         -48.1353  -26.7547    6.5604 O.2       0 UNK        -0.5216 
      4 N         -49.0599  -27.5737    4.6464 N.am      1 UNK        -0.4461 
      5 CA        -49.5922  -26.3528    4.0104 C.3       1 UNK         0.0864 
      6 C6        -51.0738  -26.0378    4.3794 C.3       14 UNK        -0.0898 
      7 S7        -51.4462  -25.9613    6.1658 S.3       14 UNK        -0.2598 
      8 C8        -52.3165  -27.5444    6.3900 C.3       14 UNK         0.0286 
      9 C9        -52.2923  -28.0025    7.8396 C.ar      14 UNK        -0.0844 
     10 C10       -51.3837  -28.9822    8.2488 C.ar      14 UNK        -0.0881 
     11 C11       -51.3697  -29.4316    9.5713 C.ar      14 UNK        -0.0643 
     12 C12       -52.2728  -28.8874   10.4878 C.ar      14 UNK        -0.0930 
     13 C13       -53.1894  -27.9010   10.0968 C.ar      14 UNK        -0.0827 
     14 C14       -53.1894  -27.4664    8.7674 C.ar      14 UNK        -0.1249 
     15 C15       -54.1666  -27.2509   11.0782 C.3       14 UNK         0.0141 
     16 S16       -54.4872  -28.1996   12.6023 S.3       14 UNK        -0.2313 
     17 C17       -55.5792  -29.5272   11.9877 C.3       14 UNK        -0.0915 
     18 CA        -57.0502  -29.3187   12.4301 C.3       13 UNK         0.0968 
     19 C         -57.9695  -30.4338   11.8650 C.2       13 UNK         0.5732 
     20 N         -58.4696  -30.2652   10.6484 N.am      13 UNK        -0.7310 
     21 O         -58.2025  -31.4627   12.4978 O.2       13 UNK        -0.5035 
     22 N         -57.1398  -29.1955   13.8881 N.am      13 UNK        -0.4233 
     23 C         -58.1785  -28.7303   14.5839 C.2       13 UNK         0.4989 
     24 O         -59.2365  -28.3618   14.0720 O.2       13 UNK        -0.4996 
     25 CA        -57.9998  -28.6060   16.1097 C.3       12 UNK         0.0216 
     26 CB        -58.4787  -29.8813   16.8310 C.3       12 UNK        -0.1964 
     27 N         -56.6464  -28.2105   16.5408 N.am      12 UNK        -0.4276 
     28 C         -55.4968  -28.8971   16.4763 C.2       12 UNK         0.5020 
     29 O         -55.3984  -30.0267   15.9932 O.2       12 UNK        -0.5489 
     30 CA        -54.2402  -28.1693   16.9892 C.3       11 UNK         0.0294 
     31 CB        -53.0830  -29.1400   17.2897 C.3       11 UNK        -0.2019 
     32 N         -53.7681  -27.1641   16.0361 N.am      11 UNK        -0.4493 
     33 C         -54.3505  -25.9837   15.7871 C.2       11 UNK         0.4932 
     34 O         -55.3918  -25.6072   16.3303 O.2       11 UNK        -0.5029 
     35 CA        -53.6110  -25.0729   14.7879 C.3       10 UNK         0.0280 
     36 CB        -54.2606  -23.6825   14.6308 C.3       10 UNK        -0.1976 
     37 N         -52.1834  -24.9560   15.1088 N.am      10 UNK        -0.4242 
     38 C         -51.6421  -24.4794   16.2420 C.2       10 UNK         0.5072 
     39 O         -52.2883  -24.0161   17.1829 O.2       10 UNK        -0.5224 
     40 CA        -50.1097  -24.5379   16.3531 C.3       9 UNK         0.0343 
     41 CB        -49.6641  -25.9256   16.8431 C.3       9 UNK        -0.2003 
     42 N         -49.4304  -24.2137   15.0964 N.am      9 UNK        -0.4272 
     43 C         -49.4181  -22.9960   14.5325 C.2       9 UNK         0.4988 
     44 O         -49.9233  -21.9969   15.0458 O.2       9 UNK        -0.5108 
     45 CA        -48.7379  -22.8683   13.1581 C.3       8 UNK         0.0248 
     46 CB        -47.2117  -22.7642   13.3070 C.3       8 UNK        -0.2001 
     47 N         -49.0688  -23.9754   12.2606 N.am      8 UNK        -0.4140 
     48 C         -50.2917  -24.2323   11.7751 C.2       8 UNK         0.5028 
     49 O         -51.2765  -23.5192   11.9687 O.2       8 UNK        -0.5428 
     50 CA        -50.4470  -25.5247   10.9619 C.3       7 UNK         0.0264 
     51 CB        -50.0236  -25.3150    9.4996 C.3       7 UNK        -0.1988 
     52 N         -49.6873  -26.6334   11.5381 N.am      7 UNK        -0.4454 
     53 C         -49.9781  -27.2447   12.6948 C.2       7 UNK         0.5027 
     54 O         -50.9327  -26.9400   13.4122 O.2       7 UNK        -0.5083 
     55 CA        -49.0110  -28.3574   13.1516 C.3       6 UNK         0.0844 
     56 C56       -49.3408  -29.7277   12.5082 C.3       14 UNK        -0.0967 
     57 S57       -48.8795  -29.8662   10.7400 S.3       14 UNK        -0.2604 
     58 C58       -50.4030  -30.5293    9.9944 C.3       14 UNK         0.0134 
     59 N         -47.6055  -27.9885   12.9660 N.am      6 UNK        -0.4116 
     60 C         -46.9816  -26.9882   13.6015 C.2       5 UNK         0.5034 
     61 O         -47.5086  -26.2884   14.4645 O.2       5 UNK        -0.5045 
     62 CA        -45.5399  -26.6795   13.1597 C.3       5 UNK         0.0224 
     63 CB        -44.5414  -27.5674   13.9190 C.3       5 UNK        -0.1978 
     64 N         -45.3142  -26.8085   11.7133 N.am      5 UNK        -0.4737 
     65 C         -46.0052  -26.1505   10.7723 C.2       4 UNK         0.5027 
     66 O         -46.9474  -25.3988   11.0283 O.2       4 UNK        -0.5211 
     67 CA        -45.6047  -26.4204    9.3103 C.3       4 UNK         0.0297 
     68 CB        -46.0639  -27.8233    8.8866 C.3       4 UNK        -0.1993 
     69 N         -46.1751  -25.4318    8.3882 N.am      4 UNK        -0.4486 
     70 C         -45.8332  -24.1352    8.3746 C.2       3 UNK         0.4961 
     71 O         -44.8994  -23.6694    9.0326 O.2       3 UNK        -0.5105 
     72 CA        -46.6820  -23.2091    7.4812 C.3       3 UNK         0.0299 
     73 CB        -46.1994  -21.7432    7.5051 C.3       3 UNK        -0.1972 
     74 N         -46.8048  -23.6800    6.0986 N.am      3 UNK        -0.4305 
     75 C         -45.8242  -23.9627    5.2291 C.2       2 UNK         0.5006 
     76 O         -44.6240  -23.8844    5.4980 O.2       2 UNK        -0.5106 
     77 CA        -46.2626  -24.3922    3.8105 C.3       2 UNK         0.0296 
     78 CB        -45.0937  -24.9417    2.9699 C.3       2 UNK        -0.2002 
     79 N         -47.3452  -25.3816    3.8130 N.am      2 UNK        -0.4032 
     80 C         -48.6418  -25.1325    4.0491 C.2       1 UNK         0.5000 
     81 O         -49.0734  -24.0045    4.2990 O.2       1 UNK        -0.5238 
     82 H82       -48.2940  -29.2752    7.2975 H         1 UNK         0.0889 
     83 H83       -46.9872  -29.2773    6.1106 H         1 UNK         0.0889 
     84 H84       -48.5905  -29.8666    5.6648 H         1 UNK         0.0889 
     85 H85       -49.2227  -28.4161    4.1124 H         1 UNK         0.3028 
     86 H86       -49.6144  -26.6012    2.9478 H         1 UNK         0.0864 
     87 H87       -51.7165  -26.7926    3.9244 H         1 UNK         0.0720 
     88 H88       -51.3963  -25.0991    3.9255 H         1 UNK         0.0720 
     89 H89       -51.8586  -28.3062    5.7572 H         1 UNK         0.0814 
     90 H90       -53.3473  -27.4408    6.0479 H         1 UNK         0.0814 
     91 H91       -50.6939  -29.4052    7.5332 H         1 UNK         0.1469 
     92 H92       -52.2506  -29.2343   11.5093 H         1 UNK         0.1381 
     93 H93       -53.8858  -26.7015    8.4513 H         1 UNK         0.1206 
     94 H94       -55.1195  -27.0585   10.5828 H         1 UNK         0.0813 
     95 H95       -53.7696  -26.2768   11.3642 H         1 UNK         0.0813 
     96 H96       -55.1973  -30.4771   12.3662 H         1 UNK         0.0638 
     97 H97       -55.5058  -29.5816   10.8999 H         1 UNK         0.0638 
     98 H98       -57.3930  -28.3702   12.0120 H         1 UNK         0.0568 
     99 H99       -58.2763  -29.4322   10.1146 H         1 UNK         0.3450 
    100 H100      -59.0576  -30.9847   10.2576 H         1 UNK         0.3450 
    101 H101      -56.3383  -29.5273   14.4165 H         1 UNK         0.2987 
    102 H102      -58.6516  -27.7903   16.4271 H         1 UNK         0.0766 
    103 H103      -57.8958  -30.7572   16.5444 H         1 UNK         0.0798 
    104 H104      -59.5204  -30.0954   16.5886 H         1 UNK         0.0798 
    105 H105      -58.4134  -29.7736   17.9136 H         1 UNK         0.0798 
    106 H106      -56.5579  -27.2398   16.8277 H         1 UNK         0.3198 
    107 H107      -54.5040  -27.6673   17.9228 H         1 UNK         0.0843 
    108 H108      -52.7377  -29.6506   16.3896 H         1 UNK         0.0831 
    109 H109      -53.3932  -29.9073   18.0003 H         1 UNK         0.0831 
    110 H110      -52.2312  -28.6192   17.7277 H         1 UNK         0.0831 
    111 H111      -52.9395  -27.3993   15.5075 H         1 UNK         0.3133 
    112 H112      -53.6621  -25.5679   13.8181 H         1 UNK         0.0566 
    113 H113      -55.2908  -23.7716   14.2843 H         1 UNK         0.0814 
    114 H114      -54.2806  -23.1333   15.5725 H         1 UNK         0.0814 
    115 H115      -53.7229  -23.0777   13.9003 H         1 UNK         0.0814 
    116 H116      -51.5586  -25.3825   14.4297 H         1 UNK         0.3091 
    117 H117      -49.8030  -23.8016   17.0991 H         1 UNK         0.0702 
    118 H118      -48.5897  -25.9542   17.0251 H         1 UNK         0.0785 
    119 H119      -49.9009  -26.7056   16.1185 H         1 UNK         0.0785 
    120 H120      -50.1583  -26.1878   17.7797 H         1 UNK         0.0785 
    121 H121      -48.9158  -24.9681   14.6506 H         1 UNK         0.2998 
    122 H122      -49.0974  -21.9484   12.6924 H         1 UNK         0.0697 
    123 H123      -46.7901  -23.6543   13.7741 H         1 UNK         0.0825 
    124 H124      -46.9381  -21.9095   13.9270 H         1 UNK         0.0825 
    125 H125      -46.7263  -22.6339   12.3393 H         1 UNK         0.0825 
    126 H126      -48.3039  -24.5848   11.9742 H         1 UNK         0.3029 
    127 H127      -51.5014  -25.8002   10.9740 H         1 UNK         0.0897 
    128 H128      -48.9895  -24.9825    9.4138 H         1 UNK         0.0792 
    129 H129      -50.6490  -24.5623    9.0184 H         1 UNK         0.0792 
    130 H130      -50.1245  -26.2348    8.9231 H         1 UNK         0.0792 
    131 H131      -48.8584  -26.9194   11.0373 H         1 UNK         0.3086 
    132 H132      -49.1633  -28.4683   14.2276 H         1 UNK         0.0583 
    133 H133      -48.7996  -30.5095   13.0435 H         1 UNK         0.1020 
    134 H134      -50.3946  -29.9693   12.6516 H         1 UNK         0.1020 
    135 H135      -50.1240  -31.1273    9.1254 H         1 UNK         0.0694 
    136 H136      -50.8907  -31.2201   10.6837 H         1 UNK         0.0694 
    137 H137      -47.1015  -28.4989   12.2558 H         1 UNK         0.2989 
    138 H138      -45.3403  -25.6394   13.4258 H         1 UNK         0.1055 
    139 H139      -44.6794  -27.4752   14.9975 H         1 UNK         0.0806 
    140 H140      -43.5116  -27.2825   13.7023 H         1 UNK         0.0806 
    141 H141      -44.6600  -28.6213   13.6643 H         1 UNK         0.0806 
    142 H142      -44.5591  -27.4148   11.4253 H         1 UNK         0.3061 
    143 H143      -44.5166  -26.3668    9.2374 H         1 UNK         0.0734 
    144 H144      -45.7613  -28.0414    7.8629 H         1 UNK         0.0832 
    145 H145      -45.6305  -28.5975    9.5206 H         1 UNK         0.0832 
    146 H146      -47.1484  -27.9210    8.9479 H         1 UNK         0.0832 
    147 H147      -46.9418  -25.7481    7.7988 H         1 UNK         0.3156 
    148 H148      -47.6900  -23.2284    7.8985 H         1 UNK         0.0589 
    149 H149      -45.1860  -21.6450    7.1142 H         1 UNK         0.0808 
    150 H150      -46.8511  -21.1010    6.9129 H         1 UNK         0.0808 
    151 H151      -46.1958  -21.3495    8.5224 H         1 UNK         0.0808 
    152 H152      -47.7541  -23.7892    5.7529 H         1 UNK         0.3098 
    153 H153      -46.6270  -23.4907    3.3134 H         1 UNK         0.0720 
    154 H154      -45.4153  -25.1958    1.9597 H         1 UNK         0.0791 
    155 H155      -44.6592  -25.8352    3.4200 H         1 UNK         0.0791 
    156 H156      -44.2967  -24.2029    2.8747 H         1 UNK         0.0791 
    157 H157      -47.0716  -26.3428    3.6690 H         1 UNK         0.3028 
@<TRIPOS>BOND
     1    1    2 1    
     2    1   82 1    
     3    1   83 1    
     4    1   84 1    
     5    2    3 2    
     6    2    4 am   BACKBONE|DICT|INTERRES
     7    4    5 1    
     8    4   85 1    
     9    5    6 1    
    10    5   80 1    
    11    5   86 1    
    12    6    7 1    
    13    6   87 1    
    14    6   88 1    
    15    7    8 1    
    16    8    9 1    
    17    8   89 1    
    18    8   90 1    
    19    9   10 ar   
    20    9   14 ar   
    21   10   11 ar   
    22   10   91 1    
    23   11   12 ar   
    24   11   58 1    
    25   12   13 ar   
    26   12   92 1    
    27   13   14 ar   
    28   13   15 1    
    29   14   93 1    
    30   15   16 1    
    31   15   94 1    
    32   15   95 1    
    33   16   17 1    
    34   17   18 1    
    35   17   96 1    
    36   17   97 1    
    37   18   19 1    
    38   18   22 1    
    39   18   98 1    
    40   19   20 am   BACKBONE|DICT|INTERRES
    41   19   21 2    
    42   20   99 1    
    43   20  100 1    
    44   22   23 am   BACKBONE|DICT|INTERRES
    45   22  101 1    
    46   23   24 2    
    47   23   25 1    
    48   25   26 1    
    49   25   27 1    
    50   25  102 1    
    51   26  103 1    
    52   26  104 1    
    53   26  105 1    
    54   27   28 am   BACKBONE|DICT|INTERRES
    55   27  106 1    
    56   28   29 2    
    57   28   30 1    
    58   30   31 1    
    59   30   32 1    
    60   30  107 1    
    61   31  108 1    
    62   31  109 1    
    63   31  110 1    
    64   32   33 am   BACKBONE|DICT|INTERRES
    65   32  111 1    
    66   33   34 2    
    67   33   35 1    
    68   35   36 1    
    69   35   37 1    
    70   35  112 1    
    71   36  113 1    
    72   36  114 1    
    73   36  115 1    
    74   37   38 am   BACKBONE|DICT|INTERRES
    75   37  116 1    
    76   38   39 2    
    77   38   40 1    
    78   40   41 1    
    79   40   42 1    
    80   40  117 1    
    81   41  118 1    
    82   41  119 1    
    83   41  120 1    
    84   42   43 am   BACKBONE|DICT|INTERRES
    85   42  121 1    
    86   43   44 2    
    87   43   45 1    
    88   45   46 1    
    89   45   47 1    
    90   45  122 1    
    91   46  123 1    
    92   46  124 1    
    93   46  125 1    
    94   47   48 am   BACKBONE|DICT|INTERRES
    95   47  126 1    
    96   48   49 2    
    97   48   50 1    
    98   50   51 1    
    99   50   52 1    
   100   50  127 1    
   101   51  128 1    
   102   51  129 1    
   103   51  130 1    
   104   52   53 am   BACKBONE|DICT|INTERRES
   105   52  131 1    
   106   53   54 2    
   107   53   55 1    
   108   55   56 1    
   109   55   59 1    
   110   55  132 1    
   111   56   57 1    
   112   56  133 1    
   113   56  134 1    
   114   57   58 1    
   115   58  135 1    
   116   58  136 1    
   117   59   60 am   BACKBONE|DICT|INTERRES
   118   59  137 1    
   119   60   61 2    
   120   60   62 1    
   121   62   63 1    
   122   62   64 1    
   123   62  138 1    
   124   63  139 1    
   125   63  140 1    
   126   63  141 1    
   127   64   65 am   BACKBONE|DICT|INTERRES
   128   64  142 1    
   129   65   66 2    
   130   65   67 1    
   131   67   68 1    
   132   67   69 1    
   133   67  143 1    
   134   68  144 1    
   135   68  145 1    
   136   68  146 1    
   137   69   70 am   BACKBONE|DICT|INTERRES
   138   69  147 1    
   139   70   71 2    
   140   70   72 1    
   141   72   73 1    
   142   72   74 1    
   143   72  148 1    
   144   73  149 1    
   145   73  150 1    
   146   73  151 1    
   147   74   75 am   BACKBONE|DICT|INTERRES
   148   74  152 1    
   149   75   76 2    
   150   75   77 1    
   151   77   78 1    
   152   77   79 1    
   153   77  153 1    
   154   78  154 1    
   155   78  155 1    
   156   78  156 1    
   157   79   80 am   BACKBONE|DICT|INTERRES
   158   79  157 1    
   159   80   81 2    
@<TRIPOS>SUBSTRUCTURE
     1 UNK         1 GROUP             0       ****    0 ROOT    
