@<TRIPOS>MOLECULE
3R207
157   159    1
SMALL
USER_CHARGES


@<TRIPOS>ATOM
      1 CA        -52.7360  -30.6101    2.0557 C.3       0 UNK        -0.1975 
      2 C         -52.6384  -29.1428    2.4474 C.2       0 UNK         0.4852 
      3 O         -53.5384  -28.3643    2.1285 O.2       0 UNK        -0.5216 
      4 N         -51.5538  -28.7625    3.1307 N.am      1 UNK        -0.4461 
      5 CA        -51.2893  -27.3988    3.5899 C.3       1 UNK         0.0864 
      6 C6        -52.1015  -26.9853    4.8524 C.3       14 UNK        -0.0898 
      7 S7        -52.0189  -28.1720    6.2422 S.3       14 UNK        -0.2598 
      8 C8        -51.3876  -27.1222    7.5867 C.3       14 UNK         0.0286 
      9 C9        -50.9583  -27.9760    8.7684 C.ar      14 UNK        -0.0844 
     10 C10       -49.6185  -28.3415    8.9155 C.ar      14 UNK        -0.0881 
     11 C11       -49.2141  -29.1625    9.9709 C.ar      14 UNK        -0.0643 
     12 C12       -50.1601  -29.5926   10.9061 C.ar      14 UNK        -0.0930 
     13 C13       -51.5017  -29.2124   10.7855 C.ar      14 UNK        -0.0827 
     14 C14       -51.8952  -28.4058    9.7121 C.ar      14 UNK        -0.1249 
     15 C15       -52.5121  -29.6319   11.8427 C.3       14 UNK         0.0141 
     16 S16       -53.9147  -30.5687   11.1628 S.3       14 UNK        -0.2313 
     17 C17       -54.9354  -30.7561   12.6657 C.3       14 UNK        -0.0915 
     18 CA        -56.0974  -29.7306   12.7342 C.3       13 UNK         0.0968 
     19 C         -57.0541  -30.0638   13.9096 C.2       13 UNK         0.5732 
     20 N         -56.9131  -29.4477   15.0764 N.am      13 UNK        -0.7310 
     21 O         -57.9504  -30.8901   13.7547 O.2       13 UNK        -0.5035 
     22 N         -55.6013  -28.3453   12.7808 N.am      13 UNK        -0.4233 
     23 C         -55.9876  -27.3694   11.9485 C.2       13 UNK         0.4989 
     24 O         -56.8264  -27.5239   11.0583 O.2       13 UNK        -0.4996 
     25 CA        -55.3006  -25.9959   12.1044 C.3       12 UNK         0.0216 
     26 CB        -56.1356  -24.8340   11.5247 C.3       12 UNK        -0.1964 
     27 N         -54.8661  -25.6924   13.4717 N.am      12 UNK        -0.4276 
     28 C         -55.6246  -25.5786   14.5697 C.2       12 UNK         0.5020 
     29 O         -56.8521  -25.6908   14.5716 O.2       12 UNK        -0.5489 
     30 CA        -54.8690  -25.3204   15.8917 C.3       11 UNK         0.0294 
     31 CB        -55.7667  -25.5154   17.1314 C.3       11 UNK        -0.2019 
     32 N         -53.6338  -26.1047   16.0469 N.am      11 UNK        -0.4493 
     33 C         -53.4947  -27.4357   15.9348 C.2       11 UNK         0.4932 
     34 O         -54.4036  -28.1821   15.5669 O.2       11 UNK        -0.5029 
     35 CA        -52.1250  -28.0501   16.2850 C.3       10 UNK         0.0280 
     36 CB        -51.7373  -29.1772   15.3166 C.3       10 UNK        -0.1976 
     37 N         -51.0428  -27.0643   16.3094 N.am      10 UNK        -0.4242 
     38 C         -50.5794  -26.4602   17.4110 C.2       10 UNK         0.5072 
     39 O         -51.0145  -26.6670   18.5445 O.2       10 UNK        -0.5224 
     40 CA        -49.4526  -25.4304   17.2161 C.3       9 UNK         0.0343 
     41 CB        -48.0872  -26.1327   17.1586 C.3       9 UNK        -0.2003 
     42 N         -49.6239  -24.5829   16.0312 N.am      9 UNK        -0.4272 
     43 C         -50.6623  -23.7560   15.8321 C.2       9 UNK         0.4988 
     44 O         -51.6074  -23.6379   16.6132 O.2       9 UNK        -0.5108 
     45 CA        -50.6646  -22.9428   14.5285 C.3       8 UNK         0.0248 
     46 CB        -49.6683  -21.7751   14.6096 C.3       8 UNK        -0.2001 
     47 N         -50.3753  -23.7632   13.3520 N.am      8 UNK        -0.4140 
     48 C         -51.1517  -24.7672   12.9205 C.2       8 UNK         0.5028 
     49 O         -52.2163  -25.0854   13.4466 O.2       8 UNK        -0.5428 
     50 CA        -50.6349  -25.5894   11.7315 C.3       7 UNK         0.0264 
     51 CB        -50.7988  -24.8083   10.4186 C.3       7 UNK        -0.1988 
     52 N         -49.2437  -26.0132   11.9082 N.am      7 UNK        -0.4454 
     53 C         -48.8156  -26.7737   12.9301 C.2       7 UNK         0.5027 
     54 O         -49.5562  -27.2334   13.7998 O.2       7 UNK        -0.5083 
     55 CA        -47.2995  -27.0028   13.0655 C.3       6 UNK         0.0844 
     56 C56       -46.8231  -28.3251   12.4164 C.3       14 UNK        -0.0967 
     57 S57       -46.6507  -28.2754   10.6011 S.3       14 UNK        -0.2604 
     58 C58       -47.7632  -29.6125   10.0663 C.3       14 UNK         0.0134 
     59 N         -46.5285  -25.8269   12.6552 N.am      6 UNK        -0.4116 
     60 C         -46.5069  -24.6767   13.3445 C.2       5 UNK         0.5034 
     61 O         -47.1025  -24.5000   14.4086 O.2       5 UNK        -0.5045 
     62 CA        -45.7252  -23.5135   12.7164 C.3       5 UNK         0.0224 
     63 CB        -44.2097  -23.7677   12.7737 C.3       5 UNK        -0.1978 
     64 N         -46.1310  -23.2393   11.3355 N.am      5 UNK        -0.4737 
     65 C         -47.3573  -22.8419   10.9664 C.2       4 UNK         0.5027 
     66 O         -48.2855  -22.6718   11.7544 O.2       4 UNK        -0.5211 
     67 CA        -47.5961  -22.5932    9.4679 C.3       4 UNK         0.0297 
     68 CB        -47.3938  -21.1064    9.1362 C.3       4 UNK        -0.1993 
     69 N         -46.7505  -23.4078    8.5921 N.am      4 UNK        -0.4486 
     70 C         -46.8333  -24.7395    8.4772 C.2       3 UNK         0.4961 
     71 O         -47.6047  -25.4404    9.1344 O.2       3 UNK        -0.5105 
     72 CA        -45.8403  -25.3829    7.4928 C.3       3 UNK         0.0299 
     73 CB        -44.5737  -25.8400    8.2350 C.3       3 UNK        -0.1972 
     74 N         -46.3907  -26.5124    6.7369 N.am      3 UNK        -0.4305 
     75 C         -47.4486  -26.4604    5.9148 C.2       2 UNK         0.5006 
     76 O         -48.1351  -25.4483    5.7560 O.2       2 UNK        -0.5106 
     77 CA        -47.7558  -27.7326    5.0919 C.3       2 UNK         0.0296 
     78 CB        -47.3054  -29.0477    5.7624 C.3       2 UNK        -0.2002 
     79 N         -49.1774  -27.8280    4.7511 N.am      2 UNK        -0.4032 
     80 C         -49.7695  -27.2106    3.7196 C.2       1 UNK         0.5000 
     81 O         -49.1647  -26.5602    2.8641 O.2       1 UNK        -0.5238 
     82 H82       -51.8774  -31.1839    2.4041 H         1 UNK         0.0889 
     83 H83       -52.7913  -30.7064    0.9717 H         1 UNK         0.0889 
     84 H84       -53.6350  -31.0528    2.4839 H         1 UNK         0.0889 
     85 H85       -50.8316  -29.4378    3.3411 H         1 UNK         0.3028 
     86 H86       -51.5934  -26.7214    2.7882 H         1 UNK         0.0864 
     87 H87       -53.1535  -26.8869    4.5807 H         1 UNK         0.0720 
     88 H88       -51.7988  -25.9916    5.1879 H         1 UNK         0.0720 
     89 H89       -52.1620  -26.4172    7.8929 H         1 UNK         0.0814 
     90 H90       -50.5465  -26.5246    7.2303 H         1 UNK         0.0814 
     91 H91       -48.8853  -27.9838    8.2085 H         1 UNK         0.1469 
     92 H92       -49.8493  -30.2180   11.7315 H         1 UNK         0.1381 
     93 H93       -52.9317  -28.1141    9.6112 H         1 UNK         0.1206 
     94 H94       -52.8797  -28.7361   12.3434 H         1 UNK         0.0813 
     95 H95       -52.0324  -30.2506   12.6016 H         1 UNK         0.0813 
     96 H96       -55.3294  -31.7741   12.6584 H         1 UNK         0.0638 
     97 H97       -54.3047  -30.6836   13.5537 H         1 UNK         0.0638 
     98 H98       -56.6899  -29.8721   11.8284 H         1 UNK         0.0568 
     99 H99       -56.1222  -28.8331   15.2451 H         1 UNK         0.3450 
    100 H100      -57.5478  -29.6654   15.8271 H         1 UNK         0.3450 
    101 H101      -54.9783  -28.1243   13.5477 H         1 UNK         0.2987 
    102 H102      -54.3840  -26.0609   11.5159 H         1 UNK         0.0766 
    103 H103      -55.6131  -23.8826   11.6246 H         1 UNK         0.0798 
    104 H104      -57.1005  -24.7418   12.0242 H         1 UNK         0.0798 
    105 H105      -56.3321  -24.9828   10.4623 H         1 UNK         0.0798 
    106 H106      -53.8579  -25.5444   13.5787 H         1 UNK         0.3198 
    107 H107      -54.5621  -24.2735   15.8639 H         1 UNK         0.0843 
    108 H108      -56.1353  -26.5394   17.2030 H         1 UNK         0.0831 
    109 H109      -56.6360  -24.8575   17.0948 H         1 UNK         0.0831 
    110 H110      -55.2285  -25.2869   18.0513 H         1 UNK         0.0831 
    111 H111      -52.8116  -25.5661   16.2922 H         1 UNK         0.3133 
    112 H112      -52.2368  -28.4987   17.2738 H         1 UNK         0.0566 
    113 H113      -50.8124  -29.6633   15.6268 H         1 UNK         0.0814 
    114 H114      -52.5063  -29.9488   15.2640 H         1 UNK         0.0814 
    115 H115      -51.5833  -28.7856   14.3139 H         1 UNK         0.0814 
    116 H116      -50.5996  -26.8647   15.4152 H         1 UNK         0.3091 
    117 H117      -49.4568  -24.7718   18.0871 H         1 UNK         0.0702 
    118 H118      -47.2718  -25.4126   17.0877 H         1 UNK         0.0785 
    119 H119      -48.0177  -26.8047   16.3034 H         1 UNK         0.0785 
    120 H120      -47.9166  -26.7285   18.0563 H         1 UNK         0.0785 
    121 H121      -48.8736  -24.5997   15.3462 H         1 UNK         0.2998 
    122 H122      -51.6656  -22.5254   14.4006 H         1 UNK         0.0697 
    123 H123      -48.6383  -22.1261   14.6860 H         1 UNK         0.0825 
    124 H124      -49.8678  -21.1489   15.4802 H         1 UNK         0.0825 
    125 H125      -49.7359  -21.1370   13.7283 H         1 UNK         0.0825 
    126 H126      -49.5313  -23.5324   12.8304 H         1 UNK         0.3029 
    127 H127      -51.2386  -26.4956   11.6695 H         1 UNK         0.0897 
    128 H128      -50.3718  -23.8087   10.4831 H         1 UNK         0.0792 
    129 H129      -51.8542  -24.6926   10.1698 H         1 UNK         0.0792 
    130 H130      -50.3194  -25.3191    9.5850 H         1 UNK         0.0792 
    131 H131      -48.5787  -25.7175   11.2032 H         1 UNK         0.3086 
    132 H132      -47.1195  -27.1248   14.1354 H         1 UNK         0.0583 
    133 H133      -45.8430  -28.5823   12.8208 H         1 UNK         0.1020 
    134 H134      -47.4760  -29.1488   12.7116 H         1 UNK         0.1020 
    135 H135      -47.4371  -29.9573    9.0843 H         1 UNK         0.0694 
    136 H136      -47.6601  -30.4712   10.7313 H         1 UNK         0.0694 
    137 H137      -46.0552  -25.8867   11.7653 H         1 UNK         0.2989 
    138 H138      -45.9428  -22.6215   13.3085 H         1 UNK         0.1055 
    139 H139      -43.8881  -23.9765   13.7952 H         1 UNK         0.0806 
    140 H140      -43.6496  -22.8967   12.4330 H         1 UNK         0.0806 
    141 H141      -43.9131  -24.6180   12.1583 H         1 UNK         0.0806 
    142 H142      -45.4303  -23.3483   10.6174 H         1 UNK         0.3061 
    143 H143      -48.6350  -22.8486    9.2524 H         1 UNK         0.0734 
    144 H144      -46.3643  -20.7890    9.3069 H         1 UNK         0.0832 
    145 H145      -47.6455  -20.8923    8.0973 H         1 UNK         0.0832 
    146 H146      -48.0346  -20.4789    9.7576 H         1 UNK         0.0832 
    147 H147      -46.0816  -22.9119    8.0202 H         1 UNK         0.3156 
    148 H148      -45.5491  -24.6275    6.7600 H         1 UNK         0.0589 
    149 H149      -44.7904  -26.6305    8.9536 H         1 UNK         0.0808 
    150 H150      -43.8197  -26.2145    7.5424 H         1 UNK         0.0808 
    151 H151      -44.1204  -25.0153    8.7865 H         1 UNK         0.0808 
    152 H152      -45.9045  -27.3911    6.8334 H         1 UNK         0.3098 
    153 H153      -47.1864  -27.6365    4.1649 H         1 UNK         0.0720 
    154 H154      -47.5478  -29.9052    5.1342 H         1 UNK         0.0791 
    155 H155      -47.7836  -29.2077    6.7266 H         1 UNK         0.0791 
    156 H156      -46.2263  -29.0753    5.9163 H         1 UNK         0.0791 
    157 H157      -49.7752  -28.3015    5.4158 H         1 UNK         0.3028 
@<TRIPOS>BOND
     1    1    2 1    
     2    1   82 1    
     3    1   83 1    
     4    1   84 1    
     5    2    3 2    
     6    2    4 am   BACKBONE|DICT|INTERRES
     7    4    5 1    
     8    4   85 1    
     9    5    6 1    
    10    5   80 1    
    11    5   86 1    
    12    6    7 1    
    13    6   87 1    
    14    6   88 1    
    15    7    8 1    
    16    8    9 1    
    17    8   89 1    
    18    8   90 1    
    19    9   10 ar   
    20    9   14 ar   
    21   10   11 ar   
    22   10   91 1    
    23   11   12 ar   
    24   11   58 1    
    25   12   13 ar   
    26   12   92 1    
    27   13   14 ar   
    28   13   15 1    
    29   14   93 1    
    30   15   16 1    
    31   15   94 1    
    32   15   95 1    
    33   16   17 1    
    34   17   18 1    
    35   17   96 1    
    36   17   97 1    
    37   18   19 1    
    38   18   22 1    
    39   18   98 1    
    40   19   20 am   BACKBONE|DICT|INTERRES
    41   19   21 2    
    42   20   99 1    
    43   20  100 1    
    44   22   23 am   BACKBONE|DICT|INTERRES
    45   22  101 1    
    46   23   24 2    
    47   23   25 1    
    48   25   26 1    
    49   25   27 1    
    50   25  102 1    
    51   26  103 1    
    52   26  104 1    
    53   26  105 1    
    54   27   28 am   BACKBONE|DICT|INTERRES
    55   27  106 1    
    56   28   29 2    
    57   28   30 1    
    58   30   31 1    
    59   30   32 1    
    60   30  107 1    
    61   31  108 1    
    62   31  109 1    
    63   31  110 1    
    64   32   33 am   BACKBONE|DICT|INTERRES
    65   32  111 1    
    66   33   34 2    
    67   33   35 1    
    68   35   36 1    
    69   35   37 1    
    70   35  112 1    
    71   36  113 1    
    72   36  114 1    
    73   36  115 1    
    74   37   38 am   BACKBONE|DICT|INTERRES
    75   37  116 1    
    76   38   39 2    
    77   38   40 1    
    78   40   41 1    
    79   40   42 1    
    80   40  117 1    
    81   41  118 1    
    82   41  119 1    
    83   41  120 1    
    84   42   43 am   BACKBONE|DICT|INTERRES
    85   42  121 1    
    86   43   44 2    
    87   43   45 1    
    88   45   46 1    
    89   45   47 1    
    90   45  122 1    
    91   46  123 1    
    92   46  124 1    
    93   46  125 1    
    94   47   48 am   BACKBONE|DICT|INTERRES
    95   47  126 1    
    96   48   49 2    
    97   48   50 1    
    98   50   51 1    
    99   50   52 1    
   100   50  127 1    
   101   51  128 1    
   102   51  129 1    
   103   51  130 1    
   104   52   53 am   BACKBONE|DICT|INTERRES
   105   52  131 1    
   106   53   54 2    
   107   53   55 1    
   108   55   56 1    
   109   55   59 1    
   110   55  132 1    
   111   56   57 1    
   112   56  133 1    
   113   56  134 1    
   114   57   58 1    
   115   58  135 1    
   116   58  136 1    
   117   59   60 am   BACKBONE|DICT|INTERRES
   118   59  137 1    
   119   60   61 2    
   120   60   62 1    
   121   62   63 1    
   122   62   64 1    
   123   62  138 1    
   124   63  139 1    
   125   63  140 1    
   126   63  141 1    
   127   64   65 am   BACKBONE|DICT|INTERRES
   128   64  142 1    
   129   65   66 2    
   130   65   67 1    
   131   67   68 1    
   132   67   69 1    
   133   67  143 1    
   134   68  144 1    
   135   68  145 1    
   136   68  146 1    
   137   69   70 am   BACKBONE|DICT|INTERRES
   138   69  147 1    
   139   70   71 2    
   140   70   72 1    
   141   72   73 1    
   142   72   74 1    
   143   72  148 1    
   144   73  149 1    
   145   73  150 1    
   146   73  151 1    
   147   74   75 am   BACKBONE|DICT|INTERRES
   148   74  152 1    
   149   75   76 2    
   150   75   77 1    
   151   77   78 1    
   152   77   79 1    
   153   77  153 1    
   154   78  154 1    
   155   78  155 1    
   156   78  156 1    
   157   79   80 am   BACKBONE|DICT|INTERRES
   158   79  157 1    
   159   80   81 2    
@<TRIPOS>SUBSTRUCTURE
     1 UNK         1 GROUP             0       ****    0 ROOT    
