@<TRIPOS>MOLECULE
3R207
157   159    1
SMALL
USER_CHARGES


@<TRIPOS>ATOM
      1 CA        -50.1578  -29.7013    8.0884 C.3       0 UNK        -0.1975 
      2 C         -49.8453  -29.4944    6.6143 C.2       0 UNK         0.4852 
      3 O         -50.2079  -30.3273    5.7842 O.2       0 UNK        -0.5216 
      4 N         -49.1660  -28.3898    6.2863 N.am      1 UNK        -0.4461 
      5 CA        -48.8264  -27.9638    4.9208 C.3       1 UNK         0.0864 
      6 C6        -48.8754  -26.4107    4.7544 C.3       14 UNK        -0.0898 
      7 S7        -50.0592  -25.5022    5.8065 S.3       14 UNK        -0.2598 
      8 C8        -51.6707  -26.1906    5.3247 C.3       14 UNK         0.0286 
      9 C9        -52.5987  -26.2500    6.5291 C.ar      14 UNK        -0.0844 
     10 C10       -53.0372  -25.0695    7.1372 C.ar      14 UNK        -0.0881 
     11 C11       -53.8758  -25.1132    8.2542 C.ar      14 UNK        -0.0643 
     12 C12       -54.2974  -26.3509    8.7479 C.ar      14 UNK        -0.0930 
     13 C13       -53.8587  -27.5386    8.1553 C.ar      14 UNK        -0.0827 
     14 C14       -53.0098  -27.4824    7.0460 C.ar      14 UNK        -0.1249 
     15 C15       -54.3249  -28.8785    8.7016 C.3       14 UNK         0.0141 
     16 S16       -53.6764  -29.1929   10.3739 S.3       14 UNK        -0.2313 
     17 C17       -54.5140  -30.7705   10.7390 C.3       14 UNK        -0.0915 
     18 CA        -55.9396  -30.5706   11.3175 C.3       13 UNK         0.0968 
     19 C         -56.6866  -31.9281   11.4217 C.2       13 UNK         0.5732 
     20 N         -57.3552  -32.3515   10.3578 N.am      13 UNK        -0.7310 
     21 O         -56.6330  -32.6165   12.4398 O.2       13 UNK        -0.5035 
     22 N         -55.9065  -29.8596   12.6019 N.am      13 UNK        -0.4233 
     23 C         -56.9672  -29.2949   13.1935 C.2       13 UNK         0.4989 
     24 O         -58.0779  -29.2155   12.6664 O.2       13 UNK        -0.4996 
     25 CA        -56.7782  -28.7358   14.6178 C.3       12 UNK         0.0216 
     26 CB        -57.6188  -29.5385   15.6262 C.3       12 UNK        -0.1964 
     27 N         -55.3807  -28.7372   15.0630 N.am      12 UNK        -0.4276 
     28 C         -54.4871  -27.7867   14.7657 C.2       12 UNK         0.5020 
     29 O         -54.7436  -26.7824   14.0983 O.2       12 UNK        -0.5489 
     30 CA        -53.0513  -28.0422   15.2515 C.3       11 UNK         0.0294 
     31 CB        -52.2276  -28.7089   14.1381 C.3       11 UNK        -0.2019 
     32 N         -52.3786  -26.8155   15.6799 N.am      11 UNK        -0.4493 
     33 C         -52.6992  -26.1088   16.7740 C.2       11 UNK         0.4932 
     34 O         -53.6208  -26.4106   17.5349 O.2       11 UNK        -0.5029 
     35 CA        -51.8175  -24.8791   17.0808 C.3       10 UNK         0.0280 
     36 CB        -51.9763  -24.3612   18.5264 C.3       10 UNK        -0.1976 
     37 N         -50.4046  -25.1065   16.7522 N.am      10 UNK        -0.4242 
     38 C         -49.5904  -26.0441   17.2640 C.2       10 UNK         0.5072 
     39 O         -49.8929  -26.7792   18.2050 O.2       10 UNK        -0.5224 
     40 CA        -48.2131  -26.2225   16.6022 C.3       9 UNK         0.0343 
     41 CB        -48.1049  -27.6154   15.9545 C.3       9 UNK        -0.2003 
     42 N         -47.9461  -25.2106   15.5744 N.am      9 UNK        -0.4272 
     43 C         -46.9792  -24.2867   15.6493 C.2       9 UNK         0.4988 
     44 O         -46.2178  -24.1615   16.6094 O.2       9 UNK        -0.5108 
     45 CA        -46.8148  -23.3486   14.4436 C.3       8 UNK         0.0248 
     46 CB        -45.9735  -24.0231   13.3467 C.3       8 UNK        -0.2001 
     47 N         -48.0802  -22.8883   13.8688 N.am      8 UNK        -0.4140 
     48 C         -48.9232  -22.0266   14.4557 C.2       8 UNK         0.5028 
     49 O         -48.7801  -21.5984   15.6008 O.2       8 UNK        -0.5428 
     50 CA        -50.1237  -21.5558   13.6225 C.3       7 UNK         0.0264 
     51 CB        -49.6795  -20.5341   12.5620 C.3       7 UNK        -0.1988 
     52 N         -50.7720  -22.6865   12.9608 N.am      7 UNK        -0.4454 
     53 C         -51.9462  -23.2180   13.3287 C.2       7 UNK         0.5027 
     54 O         -52.6511  -22.7549   14.2261 O.2       7 UNK        -0.5083 
     55 CA        -52.4191  -24.4946   12.5958 C.3       6 UNK         0.0844 
     56 C56       -53.5829  -24.2060   11.6184 C.3       14 UNK        -0.0967 
     57 S57       -53.1023  -23.2413   10.1412 S.3       14 UNK        -0.2604 
     58 C58       -54.3216  -23.8201    8.9189 C.3       14 UNK         0.0134 
     59 N         -51.3338  -25.2501   11.9627 N.am      6 UNK        -0.4116 
     60 C         -50.3455  -25.8587   12.6297 C.2       5 UNK         0.5034 
     61 O         -50.2622  -25.8772   13.8578 O.2       5 UNK        -0.5045 
     62 CA        -49.2331  -26.5186   11.8014 C.3       5 UNK         0.0224 
     63 CB        -49.5792  -27.9884   11.5211 C.3       5 UNK        -0.1978 
     64 N         -48.9146  -25.8450   10.5376 N.am      5 UNK        -0.4737 
     65 C         -48.5897  -24.5563   10.3765 C.2       4 UNK         0.5027 
     66 O         -48.6287  -23.7272   11.2866 O.2       4 UNK        -0.5211 
     67 CA        -48.1188  -24.1404    8.9704 C.3       4 UNK         0.0297 
     68 CB        -47.9389  -22.6164    8.8434 C.3       4 UNK        -0.1993 
     69 N         -46.8664  -24.8052    8.5892 N.am      4 UNK        -0.4486 
     70 C         -46.7548  -26.0892    8.2290 C.2       3 UNK         0.4961 
     71 O         -47.7122  -26.8717    8.1821 O.2       3 UNK        -0.5105 
     72 CA        -45.3485  -26.5978    7.8788 C.3       3 UNK         0.0299 
     73 CB        -44.5174  -26.8630    9.1459 C.3       3 UNK        -0.1972 
     74 N         -45.5345  -27.8373    7.1391 N.am      3 UNK        -0.4305 
     75 C         -44.7625  -28.3551    6.1765 C.2       2 UNK         0.5006 
     76 O         -43.6486  -27.9260    5.8755 O.2       2 UNK        -0.5106 
     77 CA        -45.3759  -29.5319    5.3874 C.3       2 UNK         0.0296 
     78 CB        -45.0397  -30.8732    6.0591 C.3       2 UNK        -0.2002 
     79 N         -46.8329  -29.3814    5.2897 N.am      2 UNK        -0.4032 
     80 C         -47.4355  -28.4885    4.4886 C.2       1 UNK         0.5000 
     81 O         -46.8915  -28.0092    3.4913 O.2       1 UNK        -0.5238 
     82 H82       -49.8897  -28.8258    8.6784 H         1 UNK         0.0889 
     83 H83       -49.6086  -30.5585    8.4764 H         1 UNK         0.0889 
     84 H84       -51.2229  -29.8850    8.2272 H         1 UNK         0.0889 
     85 H85       -48.8729  -27.7431    7.0165 H         1 UNK         0.3028 
     86 H86       -49.5504  -28.3965    4.2274 H         1 UNK         0.0864 
     87 H87       -47.9046  -25.9671    4.9875 H         1 UNK         0.0720 
     88 H88       -49.0713  -26.1544    3.7118 H         1 UNK         0.0720 
     89 H89       -51.5459  -27.1835    4.8922 H         1 UNK         0.0814 
     90 H90       -52.1125  -25.5675    4.5461 H         1 UNK         0.0814 
     91 H91       -52.7082  -24.1146    6.7501 H         1 UNK         0.1469 
     92 H92       -54.9598  -26.3965    9.6011 H         1 UNK         0.1381 
     93 H93       -52.6735  -28.3984    6.5804 H         1 UNK         0.1206 
     94 H94       -55.4152  -28.8897    8.7233 H         1 UNK         0.0813 
     95 H95       -54.0195  -29.6917    8.0412 H         1 UNK         0.0813 
     96 H96       -53.8931  -31.3314   11.4401 H         1 UNK         0.0638 
     97 H97       -54.5444  -31.3644    9.8234 H         1 UNK         0.0638 
     98 H98       -56.5022  -29.9467   10.6205 H         1 UNK         0.0568 
     99 H99       -57.8338  -33.2376   10.4027 H         1 UNK         0.3450 
    100 H100      -57.3988  -31.8022    9.5137 H         1 UNK         0.3450 
    101 H101      -55.0339  -29.8917   13.1033 H         1 UNK         0.2987 
    102 H102      -57.1468  -27.7076   14.6122 H         1 UNK         0.0766 
    103 H103      -57.5361  -29.1243   16.6314 H         1 UNK         0.0798 
    104 H104      -57.3130  -30.5849   15.6661 H         1 UNK         0.0798 
    105 H105      -58.6761  -29.5193   15.3579 H         1 UNK         0.0798 
    106 H106      -55.0858  -29.5298   15.6166 H         1 UNK         0.3198 
    107 H107      -53.0805  -28.7159   16.1109 H         1 UNK         0.0843 
    108 H108      -52.6397  -29.6832   13.8733 H         1 UNK         0.0831 
    109 H109      -51.1950  -28.8694   14.4484 H         1 UNK         0.0831 
    110 H110      -52.2196  -28.1059   13.2293 H         1 UNK         0.0831 
    111 H111      -51.6155  -26.4860   15.0960 H         1 UNK         0.3133 
    112 H112      -52.1609  -24.0881   16.4155 H         1 UNK         0.0566 
    113 H113      -51.3475  -23.4893   18.7064 H         1 UNK         0.0814 
    114 H114      -53.0067  -24.0620   18.7220 H         1 UNK         0.0814 
    115 H115      -51.7151  -25.1221   19.2623 H         1 UNK         0.0814 
    116 H116      -50.0510  -24.5724   15.9722 H         1 UNK         0.3091 
    117 H117      -47.4724  -26.1646   17.4022 H         1 UNK         0.0702 
    118 H118      -47.1212  -27.7701   15.5113 H         1 UNK         0.0785 
    119 H119      -48.8511  -27.7590   15.1725 H         1 UNK         0.0785 
    120 H120      -48.2532  -28.4040   16.6934 H         1 UNK         0.0785 
    121 H121      -48.5375  -25.2492   14.7521 H         1 UNK         0.2998 
    122 H122      -46.2704  -22.4665   14.7877 H         1 UNK         0.0697 
    123 H123      -46.4685  -24.9051   12.9396 H         1 UNK         0.0825 
    124 H124      -45.0061  -24.3426   13.7369 H         1 UNK         0.0825 
    125 H125      -45.7792  -23.3397   12.5198 H         1 UNK         0.0825 
    126 H126      -48.2691  -23.1761   12.9088 H         1 UNK         0.3029 
    127 H127      -50.8207  -21.0556   14.2986 H         1 UNK         0.0897 
    128 H128      -50.5339  -20.1494   12.0049 H         1 UNK         0.0792 
    129 H129      -49.1836  -19.6803   13.0257 H         1 UNK         0.0792 
    130 H130      -48.9822  -20.9673   11.8435 H         1 UNK         0.0792 
    131 H131      -50.2420  -23.1359   12.2200 H         1 UNK         0.3086 
    132 H132      -52.8231  -25.1402   13.3766 H         1 UNK         0.0583 
    133 H133      -54.3912  -23.6808   12.1312 H         1 UNK         0.1020 
    134 H134      -54.0134  -25.1572   11.3067 H         1 UNK         0.1020 
    135 H135      -55.2962  -23.9440    9.3938 H         1 UNK         0.0694 
    136 H136      -54.4509  -23.0459    8.1611 H         1 UNK         0.0694 
    137 H137      -51.3209  -25.2593   10.9529 H         1 UNK         0.2989 
    138 H138      -48.3269  -26.4954   12.4094 H         1 UNK         0.1055 
    139 H139      -50.4991  -28.0838   10.9423 H         1 UNK         0.0806 
    140 H140      -49.7205  -28.5398   12.4512 H         1 UNK         0.0806 
    141 H141      -48.7802  -28.4884   10.9732 H         1 UNK         0.0806 
    142 H142      -48.7846  -26.4401    9.7242 H         1 UNK         0.3061 
    143 H143      -48.9015  -24.4390    8.2715 H         1 UNK         0.0734 
    144 H144      -48.8622  -22.0931    9.0968 H         1 UNK         0.0832 
    145 H145      -47.1604  -22.2429    9.5100 H         1 UNK         0.0832 
    146 H146      -47.6770  -22.3310    7.8245 H         1 UNK         0.0832 
    147 H147      -46.0294  -24.2418    8.6350 H         1 UNK         0.3156 
    148 H148      -44.8507  -25.8613    7.2448 H         1 UNK         0.0589 
    149 H149      -45.0085  -27.5787    9.8067 H         1 UNK         0.0808 
    150 H150      -43.5331  -27.2599    8.8969 H         1 UNK         0.0808 
    151 H151      -44.3618  -25.9456    9.7147 H         1 UNK         0.0808 
    152 H152      -46.4500  -28.2361    7.2987 H         1 UNK         0.3098 
    153 H153      -44.9462  -29.5306    4.3833 H         1 UNK         0.0720 
    154 H154      -45.4411  -31.7121    5.4901 H         1 UNK         0.0791 
    155 H155      -45.4385  -30.9330    7.0726 H         1 UNK         0.0791 
    156 H156      -43.9599  -31.0142    6.1248 H         1 UNK         0.0791 
    157 H157      -47.3844  -29.7794    6.0357 H         1 UNK         0.3028 
@<TRIPOS>BOND
     1    1    2 1    
     2    1   82 1    
     3    1   83 1    
     4    1   84 1    
     5    2    3 2    
     6    2    4 am   BACKBONE|DICT|INTERRES
     7    4    5 1    
     8    4   85 1    
     9    5    6 1    
    10    5   80 1    
    11    5   86 1    
    12    6    7 1    
    13    6   87 1    
    14    6   88 1    
    15    7    8 1    
    16    8    9 1    
    17    8   89 1    
    18    8   90 1    
    19    9   10 ar   
    20    9   14 ar   
    21   10   11 ar   
    22   10   91 1    
    23   11   12 ar   
    24   11   58 1    
    25   12   13 ar   
    26   12   92 1    
    27   13   14 ar   
    28   13   15 1    
    29   14   93 1    
    30   15   16 1    
    31   15   94 1    
    32   15   95 1    
    33   16   17 1    
    34   17   18 1    
    35   17   96 1    
    36   17   97 1    
    37   18   19 1    
    38   18   22 1    
    39   18   98 1    
    40   19   20 am   BACKBONE|DICT|INTERRES
    41   19   21 2    
    42   20   99 1    
    43   20  100 1    
    44   22   23 am   BACKBONE|DICT|INTERRES
    45   22  101 1    
    46   23   24 2    
    47   23   25 1    
    48   25   26 1    
    49   25   27 1    
    50   25  102 1    
    51   26  103 1    
    52   26  104 1    
    53   26  105 1    
    54   27   28 am   BACKBONE|DICT|INTERRES
    55   27  106 1    
    56   28   29 2    
    57   28   30 1    
    58   30   31 1    
    59   30   32 1    
    60   30  107 1    
    61   31  108 1    
    62   31  109 1    
    63   31  110 1    
    64   32   33 am   BACKBONE|DICT|INTERRES
    65   32  111 1    
    66   33   34 2    
    67   33   35 1    
    68   35   36 1    
    69   35   37 1    
    70   35  112 1    
    71   36  113 1    
    72   36  114 1    
    73   36  115 1    
    74   37   38 am   BACKBONE|DICT|INTERRES
    75   37  116 1    
    76   38   39 2    
    77   38   40 1    
    78   40   41 1    
    79   40   42 1    
    80   40  117 1    
    81   41  118 1    
    82   41  119 1    
    83   41  120 1    
    84   42   43 am   BACKBONE|DICT|INTERRES
    85   42  121 1    
    86   43   44 2    
    87   43   45 1    
    88   45   46 1    
    89   45   47 1    
    90   45  122 1    
    91   46  123 1    
    92   46  124 1    
    93   46  125 1    
    94   47   48 am   BACKBONE|DICT|INTERRES
    95   47  126 1    
    96   48   49 2    
    97   48   50 1    
    98   50   51 1    
    99   50   52 1    
   100   50  127 1    
   101   51  128 1    
   102   51  129 1    
   103   51  130 1    
   104   52   53 am   BACKBONE|DICT|INTERRES
   105   52  131 1    
   106   53   54 2    
   107   53   55 1    
   108   55   56 1    
   109   55   59 1    
   110   55  132 1    
   111   56   57 1    
   112   56  133 1    
   113   56  134 1    
   114   57   58 1    
   115   58  135 1    
   116   58  136 1    
   117   59   60 am   BACKBONE|DICT|INTERRES
   118   59  137 1    
   119   60   61 2    
   120   60   62 1    
   121   62   63 1    
   122   62   64 1    
   123   62  138 1    
   124   63  139 1    
   125   63  140 1    
   126   63  141 1    
   127   64   65 am   BACKBONE|DICT|INTERRES
   128   64  142 1    
   129   65   66 2    
   130   65   67 1    
   131   67   68 1    
   132   67   69 1    
   133   67  143 1    
   134   68  144 1    
   135   68  145 1    
   136   68  146 1    
   137   69   70 am   BACKBONE|DICT|INTERRES
   138   69  147 1    
   139   70   71 2    
   140   70   72 1    
   141   72   73 1    
   142   72   74 1    
   143   72  148 1    
   144   73  149 1    
   145   73  150 1    
   146   73  151 1    
   147   74   75 am   BACKBONE|DICT|INTERRES
   148   74  152 1    
   149   75   76 2    
   150   75   77 1    
   151   77   78 1    
   152   77   79 1    
   153   77  153 1    
   154   78  154 1    
   155   78  155 1    
   156   78  156 1    
   157   79   80 am   BACKBONE|DICT|INTERRES
   158   79  157 1    
   159   80   81 2    
@<TRIPOS>SUBSTRUCTURE
     1 UNK         1 GROUP             0       ****    0 ROOT    
