@<TRIPOS>MOLECULE
3R207
157   159    1
SMALL
USER_CHARGES


@<TRIPOS>ATOM
      1 CA        -49.1510  -27.5354   10.3817 C.3       0 UNK        -0.1975 
      2 C         -48.2098  -27.7505    9.2101 C.2       0 UNK         0.4852 
      3 O         -47.0558  -27.3166    9.2579 O.2       0 UNK        -0.5216 
      4 N         -48.7007  -28.4168    8.1569 N.am      1 UNK        -0.4461 
      5 CA        -47.9513  -28.7266    6.9353 C.3       1 UNK         0.0864 
      6 C6        -48.7244  -29.6847    5.9982 C.3       14 UNK        -0.0898 
      7 S7        -49.1867  -31.2342    6.8493 S.3       14 UNK        -0.2598 
      8 C8        -50.9711  -31.3644    6.5088 C.3       14 UNK         0.0286 
      9 C9        -51.7743  -30.2150    7.1034 C.ar      14 UNK        -0.0844 
     10 C10       -52.2524  -29.1964    6.2738 C.ar      14 UNK        -0.0881 
     11 C11       -53.0256  -28.1572    6.7952 C.ar      14 UNK        -0.0643 
     12 C12       -53.3277  -28.1452    8.1600 C.ar      14 UNK        -0.0930 
     13 C13       -52.8555  -29.1562    9.0018 C.ar      14 UNK        -0.0827 
     14 C14       -52.0753  -30.1882    8.4694 C.ar      14 UNK        -0.1249 
     15 C15       -53.2089  -29.1332   10.4807 C.3       14 UNK         0.0141 
     16 S16       -54.8692  -29.8197   10.7582 S.3       14 UNK        -0.2313 
     17 C17       -55.0896  -29.5678   12.5533 C.3       14 UNK        -0.0915 
     18 CA        -55.8296  -28.2541   12.9297 C.3       13 UNK         0.0968 
     19 C         -57.3085  -28.2408   12.4373 C.2       13 UNK         0.5732 
     20 N         -58.2785  -28.6041   13.2697 N.am      13 UNK        -0.7310 
     21 O         -57.5834  -27.8710   11.2985 O.2       13 UNK        -0.5035 
     22 N         -55.7005  -27.9917   14.3706 N.am      13 UNK        -0.4233 
     23 C         -55.9710  -26.8297   14.9767 C.2       13 UNK         0.4989 
     24 O         -56.2526  -25.7963   14.3688 O.2       13 UNK        -0.4996 
     25 CA        -55.9354  -26.7947   16.5198 C.3       12 UNK         0.0216 
     26 CB        -57.3307  -27.0831   17.1068 C.3       12 UNK        -0.1964 
     27 N         -54.9072  -27.6373   17.1496 N.am      12 UNK        -0.4276 
     28 C         -54.7649  -28.9713   17.1304 C.2       12 UNK         0.5020 
     29 O         -55.5717  -29.7314   16.5921 O.2       12 UNK        -0.5489 
     30 CA        -53.4873  -29.5590   17.7582 C.3       11 UNK         0.0294 
     31 CB        -52.8164  -30.5599   16.7994 C.3       11 UNK        -0.2019 
     32 N         -52.5130  -28.5155   18.0904 N.am      11 UNK        -0.4493 
     33 C         -52.0481  -28.2475   19.3182 C.2       11 UNK         0.4932 
     34 O         -52.3865  -28.8667   20.3273 O.2       11 UNK        -0.5029 
     35 CA        -51.0274  -27.0997   19.4600 C.3       10 UNK         0.0280 
     36 CB        -49.6017  -27.6656   19.5640 C.3       10 UNK        -0.1976 
     37 N         -51.0717  -26.1151   18.3744 N.am      10 UNK        -0.4242 
     38 C         -52.0922  -25.2804   18.1333 C.2       10 UNK         0.5072 
     39 O         -53.1141  -25.2309   18.8184 O.2       10 UNK        -0.5224 
     40 CA        -51.9829  -24.3894   16.8821 C.3       9 UNK         0.0343 
     41 CB        -51.2907  -23.0608   17.2241 C.3       9 UNK        -0.2003 
     42 N         -51.3075  -25.0055   15.7317 N.am      9 UNK        -0.4272 
     43 C         -51.6188  -26.1815   15.1698 C.2       9 UNK         0.4988 
     44 O         -52.4391  -26.9628   15.6498 O.2       9 UNK        -0.5108 
     45 CA        -50.9123  -26.5387   13.8476 C.3       8 UNK         0.0248 
     46 CB        -51.3657  -27.9160   13.3290 C.3       8 UNK        -0.2001 
     47 N         -51.1569  -25.5278   12.8121 N.am      8 UNK        -0.4140 
     48 C         -50.5889  -24.3164   12.7563 C.2       8 UNK         0.5028 
     49 O         -49.7193  -23.9453   13.5479 O.2       8 UNK        -0.5428 
     50 CA        -51.1036  -23.3603   11.6631 C.3       7 UNK         0.0264 
     51 CB        -50.5300  -21.9387   11.8072 C.3       7 UNK        -0.1988 
     52 N         -50.8432  -23.8567   10.3072 N.am      7 UNK        -0.4454 
     53 C         -51.5834  -24.7888    9.6869 C.2       7 UNK         0.5027 
     54 O         -52.5022  -25.3816   10.2564 O.2       7 UNK        -0.5083 
     55 CA        -51.2700  -25.1712    8.2203 C.3       6 UNK         0.0844 
     56 C56       -52.4933  -24.8853    7.3053 C.3       14 UNK        -0.0967 
     57 S57       -52.3526  -25.7068    5.6832 S.3       14 UNK        -0.2604 
     58 C58       -53.5495  -27.0661    5.8728 C.3       14 UNK         0.0134 
     59 N         -50.0046  -24.6391    7.6952 N.am      6 UNK        -0.4116 
     60 C         -49.7133  -23.3692    7.3855 C.2       5 UNK         0.5034 
     61 O         -50.4950  -22.4261    7.5178 O.2       5 UNK        -0.5045 
     62 CA        -48.2661  -23.1217    6.9187 C.3       5 UNK         0.0224 
     63 CB        -47.9910  -21.6458    6.5611 C.3       5 UNK        -0.1978 
     64 N         -47.2853  -23.6037    7.9030 N.am      5 UNK        -0.4737 
     65 C         -47.2004  -23.2584    9.1981 C.2       4 UNK         0.5027 
     66 O         -47.9606  -22.4563    9.7366 O.2       4 UNK        -0.5211 
     67 CA        -46.1003  -23.9168   10.0480 C.3       4 UNK         0.0297 
     68 CB        -46.6798  -24.5450   11.3276 C.3       4 UNK        -0.1993 
     69 N         -45.3580  -24.9364    9.3004 N.am      4 UNK        -0.4486 
     70 C         -44.1348  -24.7487    8.7868 C.2       3 UNK         0.4961 
     71 O         -43.4816  -23.7129    8.9173 O.2       3 UNK        -0.5105 
     72 CA        -43.5427  -25.9083    7.9723 C.3       3 UNK         0.0299 
     73 CB        -43.1487  -27.0777    8.8904 C.3       3 UNK        -0.1972 
     74 N         -44.4396  -26.3906    6.9205 N.am      3 UNK        -0.4305 
     75 C         -44.8418  -25.6869    5.8493 C.2       2 UNK         0.5006 
     76 O         -44.5303  -24.5147    5.6417 O.2       2 UNK        -0.5106 
     77 CA        -45.7379  -26.4120    4.8261 C.3       2 UNK         0.0296 
     78 CB        -44.9053  -26.8869    3.6239 C.3       2 UNK        -0.2002 
     79 N         -46.4376  -27.5578    5.4117 N.am      2 UNK        -0.4032 
     80 C         -47.5164  -27.4451    6.1962 C.2       1 UNK         0.5000 
     81 O         -48.1288  -26.3869    6.3705 O.2       1 UNK        -0.5238 
     82 H82       -48.7232  -27.9690   11.2851 H         1 UNK         0.0889 
     83 H83       -50.1230  -27.9951   10.2036 H         1 UNK         0.0889 
     84 H84       -49.3061  -26.4727   10.5537 H         1 UNK         0.0889 
     85 H85       -49.6533  -28.7536    8.1692 H         1 UNK         0.3028 
     86 H86       -47.0399  -29.2365    7.2556 H         1 UNK         0.0864 
     87 H87       -48.1117  -29.9562    5.1367 H         1 UNK         0.0720 
     88 H88       -49.6076  -29.1921    5.5922 H         1 UNK         0.0720 
     89 H89       -51.3375  -32.3070    6.9181 H         1 UNK         0.0814 
     90 H90       -51.1243  -31.4260    5.4301 H         1 UNK         0.0814 
     91 H91       -52.0302  -29.2134    5.2154 H         1 UNK         0.1469 
     92 H92       -53.9388  -27.3541    8.5722 H         1 UNK         0.1381 
     93 H93       -51.7162  -30.9802    9.1126 H         1 UNK         0.1206 
     94 H94       -52.4779  -29.7014   11.0578 H         1 UNK         0.0813 
     95 H95       -53.1751  -28.1063   10.8476 H         1 UNK         0.0813 
     96 H96       -55.6283  -30.4292   12.9522 H         1 UNK         0.0638 
     97 H97       -54.1070  -29.5965   13.0257 H         1 UNK         0.0638 
     98 H98       -55.3221  -27.4346   12.4171 H         1 UNK         0.0568 
     99 H99       -58.0646  -28.9073   14.2061 H         1 UNK         0.3450 
    100 H100      -59.2342  -28.5832   12.9510 H         1 UNK         0.3450 
    101 H101      -55.5383  -28.7950   14.9717 H         1 UNK         0.2987 
    102 H102      -55.6711  -25.7717   16.7930 H         1 UNK         0.0766 
    103 H103      -57.6707  -28.0934   16.8777 H         1 UNK         0.0798 
    104 H104      -57.3358  -26.9659   18.1905 H         1 UNK         0.0798 
    105 H105      -58.0730  -26.3931   16.7031 H         1 UNK         0.0798 
    106 H106      -54.1589  -27.1178   17.5891 H         1 UNK         0.3198 
    107 H107      -53.7992  -30.0966   18.6558 H         1 UNK         0.0843 
    108 H108      -53.4840  -31.3898   16.5639 H         1 UNK         0.0831 
    109 H109      -51.9156  -30.9874   17.2397 H         1 UNK         0.0831 
    110 H110      -52.5377  -30.0865   15.8568 H         1 UNK         0.0831 
    111 H111      -52.2119  -27.9394   17.3076 H         1 UNK         0.3133 
    112 H112      -51.2546  -26.5770   20.3915 H         1 UNK         0.0566 
    113 H113      -48.8730  -26.8770   19.7528 H         1 UNK         0.0814 
    114 H114      -49.5235  -28.3784   20.3863 H         1 UNK         0.0814 
    115 H115      -49.3064  -28.1872   18.6527 H         1 UNK         0.0814 
    116 H116      -50.2803  -26.0892   17.7478 H         1 UNK         0.3091 
    117 H117      -53.0029  -24.1661   16.5626 H         1 UNK         0.0702 
    118 H118      -51.3143  -22.3721   16.3792 H         1 UNK         0.0785 
    119 H119      -50.2475  -23.2103   17.5055 H         1 UNK         0.0785 
    120 H120      -51.7870  -22.5639   18.0591 H         1 UNK         0.0785 
    121 H121      -50.6216  -24.4364   15.2430 H         1 UNK         0.2998 
    122 H122      -49.8399  -26.5868   14.0475 H         1 UNK         0.0697 
    123 H123      -52.4387  -27.9312   13.1399 H         1 UNK         0.0825 
    124 H124      -51.1540  -28.6984   14.0591 H         1 UNK         0.0825 
    125 H125      -50.8574  -28.1948   12.4108 H         1 UNK         0.0825 
    126 H126      -51.8649  -25.7380   12.1152 H         1 UNK         0.3029 
    127 H127      -52.1848  -23.2798   11.7978 H         1 UNK         0.0897 
    128 H128      -50.8944  -21.2784   11.0199 H         1 UNK         0.0792 
    129 H129      -50.8214  -21.4982   12.7615 H         1 UNK         0.0792 
    130 H130      -49.4407  -21.9343   11.7721 H         1 UNK         0.0792 
    131 H131      -50.0834  -23.4120    9.8054 H         1 UNK         0.3086 
    132 H132      -51.1247  -26.2520    8.2427 H         1 UNK         0.0583 
    133 H133      -53.4228  -25.2045    7.7785 H         1 UNK         0.1020 
    134 H134      -52.6192  -23.8147    7.1406 H         1 UNK         0.1020 
    135 H135      -54.5014  -26.6774    6.2380 H         1 UNK         0.0694 
    136 H136      -53.7567  -27.4870    4.8877 H         1 UNK         0.0694 
    137 H137      -49.2955  -25.3349    7.4755 H         1 UNK         0.2989 
    138 H138      -48.1260  -23.7120    6.0114 H         1 UNK         0.1055 
    139 H139      -46.9735  -21.5113    6.1939 H         1 UNK         0.0806 
    140 H140      -48.1275  -20.9868    7.4193 H         1 UNK         0.0806 
    141 H141      -48.6670  -21.3024    5.7771 H         1 UNK         0.0806 
    142 H142      -46.6224  -24.2860    7.5630 H         1 UNK         0.3061 
    143 H143      -45.4306  -23.1121   10.3579 H         1 UNK         0.0734 
    144 H144      -47.2072  -23.8029   11.9291 H         1 UNK         0.0832 
    145 H145      -47.3871  -25.3402   11.1043 H         1 UNK         0.0832 
    146 H146      -45.8925  -24.9652   11.9532 H         1 UNK         0.0832 
    147 H147      -45.8304  -25.8297    9.1682 H         1 UNK         0.3156 
    148 H148      -42.6352  -25.5421    7.4873 H         1 UNK         0.0589 
    149 H149      -44.0181  -27.5307    9.3693 H         1 UNK         0.0808 
    150 H150      -42.6262  -27.8581    8.3369 H         1 UNK         0.0808 
    151 H151      -42.4784  -26.7422    9.6831 H         1 UNK         0.0808 
    152 H152      -44.7585  -27.3430    7.0114 H         1 UNK         0.3098 
    153 H153      -46.4763  -25.6926    4.4645 H         1 UNK         0.0720 
    154 H154      -45.5344  -27.3525    2.8650 H         1 UNK         0.0791 
    155 H155      -44.1420  -27.6087    3.9178 H         1 UNK         0.0791 
    156 H156      -44.3943  -26.0484    3.1483 H         1 UNK         0.0791 
    157 H157      -46.0115  -28.4650    5.2830 H         1 UNK         0.3028 
@<TRIPOS>BOND
     1    1    2 1    
     2    1   82 1    
     3    1   83 1    
     4    1   84 1    
     5    2    3 2    
     6    2    4 am   BACKBONE|DICT|INTERRES
     7    4    5 1    
     8    4   85 1    
     9    5    6 1    
    10    5   80 1    
    11    5   86 1    
    12    6    7 1    
    13    6   87 1    
    14    6   88 1    
    15    7    8 1    
    16    8    9 1    
    17    8   89 1    
    18    8   90 1    
    19    9   10 ar   
    20    9   14 ar   
    21   10   11 ar   
    22   10   91 1    
    23   11   12 ar   
    24   11   58 1    
    25   12   13 ar   
    26   12   92 1    
    27   13   14 ar   
    28   13   15 1    
    29   14   93 1    
    30   15   16 1    
    31   15   94 1    
    32   15   95 1    
    33   16   17 1    
    34   17   18 1    
    35   17   96 1    
    36   17   97 1    
    37   18   19 1    
    38   18   22 1    
    39   18   98 1    
    40   19   20 am   BACKBONE|DICT|INTERRES
    41   19   21 2    
    42   20   99 1    
    43   20  100 1    
    44   22   23 am   BACKBONE|DICT|INTERRES
    45   22  101 1    
    46   23   24 2    
    47   23   25 1    
    48   25   26 1    
    49   25   27 1    
    50   25  102 1    
    51   26  103 1    
    52   26  104 1    
    53   26  105 1    
    54   27   28 am   BACKBONE|DICT|INTERRES
    55   27  106 1    
    56   28   29 2    
    57   28   30 1    
    58   30   31 1    
    59   30   32 1    
    60   30  107 1    
    61   31  108 1    
    62   31  109 1    
    63   31  110 1    
    64   32   33 am   BACKBONE|DICT|INTERRES
    65   32  111 1    
    66   33   34 2    
    67   33   35 1    
    68   35   36 1    
    69   35   37 1    
    70   35  112 1    
    71   36  113 1    
    72   36  114 1    
    73   36  115 1    
    74   37   38 am   BACKBONE|DICT|INTERRES
    75   37  116 1    
    76   38   39 2    
    77   38   40 1    
    78   40   41 1    
    79   40   42 1    
    80   40  117 1    
    81   41  118 1    
    82   41  119 1    
    83   41  120 1    
    84   42   43 am   BACKBONE|DICT|INTERRES
    85   42  121 1    
    86   43   44 2    
    87   43   45 1    
    88   45   46 1    
    89   45   47 1    
    90   45  122 1    
    91   46  123 1    
    92   46  124 1    
    93   46  125 1    
    94   47   48 am   BACKBONE|DICT|INTERRES
    95   47  126 1    
    96   48   49 2    
    97   48   50 1    
    98   50   51 1    
    99   50   52 1    
   100   50  127 1    
   101   51  128 1    
   102   51  129 1    
   103   51  130 1    
   104   52   53 am   BACKBONE|DICT|INTERRES
   105   52  131 1    
   106   53   54 2    
   107   53   55 1    
   108   55   56 1    
   109   55   59 1    
   110   55  132 1    
   111   56   57 1    
   112   56  133 1    
   113   56  134 1    
   114   57   58 1    
   115   58  135 1    
   116   58  136 1    
   117   59   60 am   BACKBONE|DICT|INTERRES
   118   59  137 1    
   119   60   61 2    
   120   60   62 1    
   121   62   63 1    
   122   62   64 1    
   123   62  138 1    
   124   63  139 1    
   125   63  140 1    
   126   63  141 1    
   127   64   65 am   BACKBONE|DICT|INTERRES
   128   64  142 1    
   129   65   66 2    
   130   65   67 1    
   131   67   68 1    
   132   67   69 1    
   133   67  143 1    
   134   68  144 1    
   135   68  145 1    
   136   68  146 1    
   137   69   70 am   BACKBONE|DICT|INTERRES
   138   69  147 1    
   139   70   71 2    
   140   70   72 1    
   141   72   73 1    
   142   72   74 1    
   143   72  148 1    
   144   73  149 1    
   145   73  150 1    
   146   73  151 1    
   147   74   75 am   BACKBONE|DICT|INTERRES
   148   74  152 1    
   149   75   76 2    
   150   75   77 1    
   151   77   78 1    
   152   77   79 1    
   153   77  153 1    
   154   78  154 1    
   155   78  155 1    
   156   78  156 1    
   157   79   80 am   BACKBONE|DICT|INTERRES
   158   79  157 1    
   159   80   81 2    
@<TRIPOS>SUBSTRUCTURE
     1 UNK         1 GROUP             0       ****    0 ROOT    
