@<TRIPOS>MOLECULE
3R207
157   159    1
SMALL
USER_CHARGES


@<TRIPOS>ATOM
      1 CA        -47.2678  -30.9819    9.2241 C.3       0 UNK        -0.1975 
      2 C         -47.5998  -29.6520    8.5663 C.2       0 UNK         0.4852 
      3 O         -47.0051  -28.6356    8.9244 O.2       0 UNK        -0.5216 
      4 N         -48.5230  -29.6600    7.5928 N.am      1 UNK        -0.4461 
      5 CA        -49.0911  -28.4992    6.8830 C.3       1 UNK         0.0864 
      6 C6        -50.1706  -27.7470    7.7076 C.3       14 UNK        -0.0898 
      7 S7        -51.5027  -28.8374    8.3121 S.3       14 UNK        -0.2598 
      8 C8        -52.9033  -28.3641    7.2435 C.3       14 UNK         0.0286 
      9 C9        -53.7698  -27.2648    7.8498 C.ar      14 UNK        -0.0844 
     10 C10       -53.8772  -26.0100    7.2368 C.ar      14 UNK        -0.0881 
     11 C11       -54.7464  -25.0382    7.7495 C.ar      14 UNK        -0.0643 
     12 C12       -55.4914  -25.3217    8.8989 C.ar      14 UNK        -0.0930 
     13 C13       -55.3973  -26.5722    9.5154 C.ar      14 UNK        -0.0827 
     14 C14       -54.5346  -27.5366    8.9882 C.ar      14 UNK        -0.1249 
     15 C15       -56.2754  -26.9132   10.7083 C.3       14 UNK         0.0141 
     16 S16       -55.3482  -26.8548   12.2695 S.3       14 UNK        -0.2313 
     17 C17       -56.5345  -27.6743   13.3922 C.3       14 UNK        -0.0915 
     18 CA        -56.1650  -29.1429   13.7357 C.3       13 UNK         0.0968 
     19 C         -56.3086  -30.0931   12.5079 C.2       13 UNK         0.5732 
     20 N         -55.2397  -30.6820   11.9814 N.am      13 UNK        -0.7310 
     21 O         -57.4204  -30.3048   12.0296 O.2       13 UNK        -0.5035 
     22 N         -54.8737  -29.2221   14.4295 N.am      13 UNK        -0.4233 
     23 C         -54.4359  -30.2829   15.1192 C.2       13 UNK         0.4989 
     24 O         -55.1374  -31.2618   15.3814 O.2       13 UNK        -0.4996 
     25 CA        -52.9661  -30.2467   15.5850 C.3       12 UNK         0.0216 
     26 CB        -52.3531  -31.6564   15.7246 C.3       12 UNK        -0.1964 
     27 N         -52.1060  -29.3893   14.7561 N.am      12 UNK        -0.4276 
     28 C         -51.8434  -29.5113   13.4449 C.2       12 UNK         0.5020 
     29 O         -52.3394  -30.3827   12.7291 O.2       12 UNK        -0.5489 
     30 CA        -50.9018  -28.4696   12.8114 C.3       11 UNK         0.0294 
     31 CB        -51.6952  -27.4992   11.9189 C.3       11 UNK        -0.2019 
     32 N         -50.1318  -27.6967   13.7922 N.am      11 UNK        -0.4493 
     33 C         -49.0846  -28.1618   14.4895 C.2       11 UNK         0.4932 
     34 O         -48.6435  -29.3051   14.3760 O.2       11 UNK        -0.5029 
     35 CA        -48.4299  -27.2032   15.4969 C.3       10 UNK         0.0280 
     36 CB        -47.4258  -26.2700   14.8005 C.3       10 UNK        -0.1976 
     37 N         -49.4319  -26.3953   16.1943 N.am      10 UNK        -0.4242 
     38 C         -49.8201  -26.5805   17.4642 C.2       10 UNK         0.5072 
     39 O         -49.3515  -27.4444   18.2067 O.2       10 UNK        -0.5224 
     40 CA        -50.9159  -25.6454   18.0150 C.3       9 UNK         0.0343 
     41 CB        -50.2826  -24.4676   18.7732 C.3       9 UNK        -0.2003 
     42 N         -51.8201  -25.1230   16.9875 N.am      9 UNK        -0.4272 
     43 C         -52.6694  -25.8712   16.2705 C.2       9 UNK         0.4988 
     44 O         -52.8322  -27.0774   16.4465 O.2       9 UNK        -0.5108 
     45 CA        -53.4337  -25.1790   15.1297 C.3       8 UNK         0.0248 
     46 CB        -54.8347  -24.7565   15.5976 C.3       8 UNK        -0.2001 
     47 N         -52.7520  -24.0308   14.5181 N.am      8 UNK        -0.4140 
     48 C         -51.5227  -24.0459   13.9851 C.2       8 UNK         0.5028 
     49 O         -50.7692  -25.0209   14.0239 O.2       8 UNK        -0.5428 
     50 CA        -51.0553  -22.7621   13.2881 C.3       7 UNK         0.0264 
     51 CB        -49.6034  -22.4206   13.6672 C.3       7 UNK        -0.1988 
     52 N         -51.1641  -22.9184   11.8366 N.am      7 UNK        -0.4454 
     53 C         -52.3254  -22.8545   11.1618 C.2       7 UNK         0.5027 
     54 O         -53.3979  -22.6052   11.7162 O.2       7 UNK        -0.5083 
     55 CA        -52.3043  -23.0781    9.6324 C.3       6 UNK         0.0844 
     56 C56       -53.4041  -22.2519    8.9064 C.3       14 UNK        -0.0967 
     57 S57       -53.5164  -22.5958    7.1169 S.3       14 UNK        -0.2604 
     58 C58       -54.9505  -23.7133    7.0208 C.3       14 UNK         0.0134 
     59 N         -50.9581  -22.8442    9.0991 N.am      6 UNK        -0.4116 
     60 C         -50.3472  -23.6216    8.1972 C.2       5 UNK         0.5034 
     61 O         -50.8881  -24.5613    7.6213 O.2       5 UNK        -0.5045 
     62 CA        -48.8629  -23.3437    7.9072 C.3       5 UNK         0.0224 
     63 CB        -48.4489  -21.8633    8.0734 C.3       5 UNK        -0.1978 
     64 N         -48.0165  -24.2403    8.7030 N.am      5 UNK        -0.4737 
     65 C         -47.9527  -24.2991   10.0415 C.2       4 UNK         0.5027 
     66 O         -48.5432  -23.5150   10.7843 O.2       4 UNK        -0.5211 
     67 CA        -47.1333  -25.4316   10.6783 C.3       4 UNK         0.0297 
     68 CB        -48.0728  -26.4790   11.2933 C.3       4 UNK        -0.1993 
     69 N         -46.2195  -26.1038    9.7546 N.am      4 UNK        -0.4486 
     70 C         -45.0198  -25.6335    9.3904 C.2       3 UNK         0.4961 
     71 O         -44.5751  -24.5402    9.7409 O.2       3 UNK        -0.5105 
     72 CA        -44.1639  -26.5441    8.4993 C.3       3 UNK         0.0299 
     73 CB        -43.5391  -27.6771    9.3311 C.3       3 UNK        -0.1972 
     74 N         -44.9524  -27.1226    7.4105 N.am      3 UNK        -0.4305 
     75 C         -44.9501  -26.6721    6.1480 C.2       2 UNK         0.5006 
     76 O         -44.2720  -25.7183    5.7633 O.2       2 UNK        -0.5106 
     77 CA        -45.8327  -27.4101    5.1215 C.3       2 UNK         0.0296 
     78 CB        -44.9842  -28.3941    4.2989 C.3       2 UNK        -0.2002 
     79 N         -46.9696  -28.1302    5.7022 N.am      2 UNK        -0.4032 
     80 C         -48.0146  -27.5470    6.3068 C.2       1 UNK         0.5000 
     81 O         -48.1175  -26.3264    6.4422 O.2       1 UNK        -0.5238 
     82 H82       -47.4704  -30.9275   10.2935 H         1 UNK         0.0889 
     83 H83       -46.2119  -31.2136    9.0883 H         1 UNK         0.0889 
     84 H84       -47.8536  -31.8016    8.8086 H         1 UNK         0.0889 
     85 H85       -48.9508  -30.5430    7.3510 H         1 UNK         0.3028 
     86 H86       -49.5960  -28.9114    6.0079 H         1 UNK         0.0864 
     87 H87       -50.6224  -26.9691    7.0936 H         1 UNK         0.0720 
     88 H88       -49.7239  -27.2389    8.5616 H         1 UNK         0.0720 
     89 H89       -53.5264  -29.2461    7.0886 H         1 UNK         0.0814 
     90 H90       -52.5403  -28.0804    6.2546 H         1 UNK         0.0814 
     91 H91       -53.3036  -25.7926    6.3461 H         1 UNK         0.1469 
     92 H92       -56.1739  -24.5814    9.2934 H         1 UNK         0.1381 
     93 H93       -54.4717  -28.5103    9.4559 H         1 UNK         0.1206 
     94 H94       -56.6951  -27.9094   10.5641 H         1 UNK         0.0813 
     95 H95       -57.1242  -26.2306   10.7715 H         1 UNK         0.0813 
     96 H96       -57.5401  -27.6197   12.9713 H         1 UNK         0.0638 
     97 H97       -56.5756  -27.0879   14.3109 H         1 UNK         0.0638 
     98 H98       -56.9152  -29.4890   14.4491 H         1 UNK         0.0568 
     99 H99       -55.3598  -31.2966   11.1931 H         1 UNK         0.3450 
    100 H100      -54.3091  -30.5190   12.3523 H         1 UNK         0.3450 
    101 H101      -54.2322  -28.4637   14.2561 H         1 UNK         0.2987 
    102 H102      -52.9788  -29.7948   16.5778 H         1 UNK         0.0766 
    103 H103      -52.9024  -32.2539   16.4530 H         1 UNK         0.0798 
    104 H104      -51.3183  -31.6065   16.0636 H         1 UNK         0.0798 
    105 H105      -52.3704  -32.1996   14.7791 H         1 UNK         0.0798 
    106 H106      -51.7173  -28.5883   15.2388 H         1 UNK         0.3198 
    107 H107      -50.2007  -29.0161   12.1769 H         1 UNK         0.0843 
    108 H108      -52.3521  -26.8571   12.5037 H         1 UNK         0.0831 
    109 H109      -52.3204  -28.0388   11.2058 H         1 UNK         0.0831 
    110 H110      -51.0355  -26.8552   11.3387 H         1 UNK         0.0831 
    111 H111      -50.3979  -26.7170   13.9030 H         1 UNK         0.3133 
    112 H112      -47.8715  -27.8132   16.2100 H         1 UNK         0.0566 
    113 H113      -46.8676  -25.6825   15.5295 H         1 UNK         0.0814 
    114 H114      -47.9201  -25.5716   14.1250 H         1 UNK         0.0814 
    115 H115      -46.6985  -26.8373   14.2184 H         1 UNK         0.0814 
    116 H116      -49.9046  -25.6909   15.6354 H         1 UNK         0.3091 
    117 H117      -51.5140  -26.2250   18.7215 H         1 UNK         0.0702 
    118 H118      -51.0423  -23.8421   19.2423 H         1 UNK         0.0785 
    119 H119      -49.6858  -23.8362   18.1135 H         1 UNK         0.0785 
    120 H120      -49.6239  -24.8237   19.5668 H         1 UNK         0.0785 
    121 H121      -51.7533  -24.1383   16.7757 H         1 UNK         0.2998 
    122 H122      -53.5524  -25.9259   14.3453 H         1 UNK         0.0697 
    123 H123      -54.7898  -23.9597   16.3410 H         1 UNK         0.0825 
    124 H124      -55.3657  -25.5955   16.0500 H         1 UNK         0.0825 
    125 H125      -55.4419  -24.4068   14.7623 H         1 UNK         0.0825 
    126 H126      -53.3076  -23.1950   14.3996 H         1 UNK         0.3029 
    127 H127      -51.6867  -21.9294   13.6061 H         1 UNK         0.0897 
    128 H128      -48.9121  -23.2205   13.3990 H         1 UNK         0.0792 
    129 H129      -49.5092  -22.2589   14.7416 H         1 UNK         0.0792 
    130 H130      -49.2671  -21.5108   13.1698 H         1 UNK         0.0792 
    131 H131      -50.3056  -23.1813   11.3552 H         1 UNK         0.3086 
    132 H132      -52.5504  -24.1354    9.5110 H         1 UNK         0.0583 
    133 H133      -54.3839  -22.4363    9.3510 H         1 UNK         0.1020 
    134 H134      -53.2159  -21.1846    9.0339 H         1 UNK         0.1020 
    135 H135      -55.8305  -23.1922    7.4013 H         1 UNK         0.0694 
    136 H136      -55.1566  -23.9196    5.9696 H         1 UNK         0.0694 
    137 H137      -50.4252  -22.1066    9.5370 H         1 UNK         0.2989 
    138 H138      -48.7011  -23.6136    6.8620 H         1 UNK         0.1055 
    139 H139      -48.5101  -21.5155    9.1044 H         1 UNK         0.0806 
    140 H140      -49.0830  -21.2128    7.4694 H         1 UNK         0.0806 
    141 H141      -47.4229  -21.7094    7.7393 H         1 UNK         0.0806 
    142 H142      -47.5698  -24.9814    8.1760 H         1 UNK         0.3061 
    143 H143      -46.5489  -24.9880   11.4873 H         1 UNK         0.0734 
    144 H144      -48.6469  -27.0065   10.5335 H         1 UNK         0.0832 
    145 H145      -47.5191  -27.2247   11.8631 H         1 UNK         0.0832 
    146 H146      -48.7876  -26.0099   11.9699 H         1 UNK         0.0832 
    147 H147      -46.5064  -27.0282    9.4307 H         1 UNK         0.3156 
    148 H148      -43.3465  -25.9429    8.0954 H         1 UNK         0.0589 
    149 H149      -44.2969  -28.3311    9.7649 H         1 UNK         0.0808 
    150 H150      -42.9453  -27.2755   10.1533 H         1 UNK         0.0808 
    151 H151      -42.8756  -28.2927    8.7236 H         1 UNK         0.0808 
    152 H152      -45.5881  -27.8712    7.6634 H         1 UNK         0.3098 
    153 H153      -46.2327  -26.6553    4.4410 H         1 UNK         0.0720 
    154 H154      -44.1449  -27.8839    3.8239 H         1 UNK         0.0791 
    155 H155      -45.5698  -28.8567    3.5041 H         1 UNK         0.0791 
    156 H156      -44.5716  -29.1895    4.9210 H         1 UNK         0.0791 
    157 H157      -46.9476  -29.1385    5.6498 H         1 UNK         0.3028 
@<TRIPOS>BOND
     1    1    2 1    
     2    1   82 1    
     3    1   83 1    
     4    1   84 1    
     5    2    3 2    
     6    2    4 am   BACKBONE|DICT|INTERRES
     7    4    5 1    
     8    4   85 1    
     9    5    6 1    
    10    5   80 1    
    11    5   86 1    
    12    6    7 1    
    13    6   87 1    
    14    6   88 1    
    15    7    8 1    
    16    8    9 1    
    17    8   89 1    
    18    8   90 1    
    19    9   10 ar   
    20    9   14 ar   
    21   10   11 ar   
    22   10   91 1    
    23   11   12 ar   
    24   11   58 1    
    25   12   13 ar   
    26   12   92 1    
    27   13   14 ar   
    28   13   15 1    
    29   14   93 1    
    30   15   16 1    
    31   15   94 1    
    32   15   95 1    
    33   16   17 1    
    34   17   18 1    
    35   17   96 1    
    36   17   97 1    
    37   18   19 1    
    38   18   22 1    
    39   18   98 1    
    40   19   20 am   BACKBONE|DICT|INTERRES
    41   19   21 2    
    42   20   99 1    
    43   20  100 1    
    44   22   23 am   BACKBONE|DICT|INTERRES
    45   22  101 1    
    46   23   24 2    
    47   23   25 1    
    48   25   26 1    
    49   25   27 1    
    50   25  102 1    
    51   26  103 1    
    52   26  104 1    
    53   26  105 1    
    54   27   28 am   BACKBONE|DICT|INTERRES
    55   27  106 1    
    56   28   29 2    
    57   28   30 1    
    58   30   31 1    
    59   30   32 1    
    60   30  107 1    
    61   31  108 1    
    62   31  109 1    
    63   31  110 1    
    64   32   33 am   BACKBONE|DICT|INTERRES
    65   32  111 1    
    66   33   34 2    
    67   33   35 1    
    68   35   36 1    
    69   35   37 1    
    70   35  112 1    
    71   36  113 1    
    72   36  114 1    
    73   36  115 1    
    74   37   38 am   BACKBONE|DICT|INTERRES
    75   37  116 1    
    76   38   39 2    
    77   38   40 1    
    78   40   41 1    
    79   40   42 1    
    80   40  117 1    
    81   41  118 1    
    82   41  119 1    
    83   41  120 1    
    84   42   43 am   BACKBONE|DICT|INTERRES
    85   42  121 1    
    86   43   44 2    
    87   43   45 1    
    88   45   46 1    
    89   45   47 1    
    90   45  122 1    
    91   46  123 1    
    92   46  124 1    
    93   46  125 1    
    94   47   48 am   BACKBONE|DICT|INTERRES
    95   47  126 1    
    96   48   49 2    
    97   48   50 1    
    98   50   51 1    
    99   50   52 1    
   100   50  127 1    
   101   51  128 1    
   102   51  129 1    
   103   51  130 1    
   104   52   53 am   BACKBONE|DICT|INTERRES
   105   52  131 1    
   106   53   54 2    
   107   53   55 1    
   108   55   56 1    
   109   55   59 1    
   110   55  132 1    
   111   56   57 1    
   112   56  133 1    
   113   56  134 1    
   114   57   58 1    
   115   58  135 1    
   116   58  136 1    
   117   59   60 am   BACKBONE|DICT|INTERRES
   118   59  137 1    
   119   60   61 2    
   120   60   62 1    
   121   62   63 1    
   122   62   64 1    
   123   62  138 1    
   124   63  139 1    
   125   63  140 1    
   126   63  141 1    
   127   64   65 am   BACKBONE|DICT|INTERRES
   128   64  142 1    
   129   65   66 2    
   130   65   67 1    
   131   67   68 1    
   132   67   69 1    
   133   67  143 1    
   134   68  144 1    
   135   68  145 1    
   136   68  146 1    
   137   69   70 am   BACKBONE|DICT|INTERRES
   138   69  147 1    
   139   70   71 2    
   140   70   72 1    
   141   72   73 1    
   142   72   74 1    
   143   72  148 1    
   144   73  149 1    
   145   73  150 1    
   146   73  151 1    
   147   74   75 am   BACKBONE|DICT|INTERRES
   148   74  152 1    
   149   75   76 2    
   150   75   77 1    
   151   77   78 1    
   152   77   79 1    
   153   77  153 1    
   154   78  154 1    
   155   78  155 1    
   156   78  156 1    
   157   79   80 am   BACKBONE|DICT|INTERRES
   158   79  157 1    
   159   80   81 2    
@<TRIPOS>SUBSTRUCTURE
     1 UNK         1 GROUP             0       ****    0 ROOT    
