@<TRIPOS>MOLECULE
3R207
157   159    1
SMALL
USER_CHARGES


@<TRIPOS>ATOM
      1 CA        -45.1108  -30.2886    2.4194 C.3       0 UNK        -0.1975 
      2 C         -46.5186  -29.7332    2.5770 C.2       0 UNK         0.4852 
      3 O         -46.9177  -28.8546    1.8119 O.2       0 UNK        -0.5216 
      4 N         -47.2730  -30.2402    3.5627 N.am      1 UNK        -0.4461 
      5 CA        -48.6448  -29.8160    3.8761 C.3       1 UNK         0.0864 
      6 C6        -49.3390  -30.8319    4.8183 C.3       14 UNK        -0.0898 
      7 S7        -51.1433  -30.8960    4.5754 S.3       14 UNK        -0.2598 
      8 C8        -51.6184  -32.1144    5.8412 C.3       14 UNK         0.0286 
      9 C9        -51.7697  -31.4734    7.2130 C.ar      14 UNK        -0.0844 
     10 C10       -50.6901  -31.4199    8.0994 C.ar      14 UNK        -0.0881 
     11 C11       -50.8359  -30.8427    9.3650 C.ar      14 UNK        -0.0643 
     12 C12       -52.0767  -30.3184    9.7438 C.ar      14 UNK        -0.0930 
     13 C13       -53.1669  -30.3762    8.8682 C.ar      14 UNK        -0.0827 
     14 C14       -53.0053  -30.9530    7.6055 C.ar      14 UNK        -0.1249 
     15 C15       -54.5314  -29.8497    9.2861 C.3       14 UNK         0.0141 
     16 S16       -54.9474  -28.3096    8.4127 S.3       14 UNK        -0.2313 
     17 C17       -56.6366  -27.9944    9.0266 C.3       14 UNK        -0.0915 
     18 CA        -56.6899  -26.7957   10.0073 C.3       13 UNK         0.0968 
     19 C         -58.1559  -26.4358   10.3700 C.2       13 UNK         0.5732 
     20 N         -58.8166  -25.6291    9.5509 N.am      13 UNK        -0.7310 
     21 O         -58.7100  -26.9090   11.3612 O.2       13 UNK        -0.5035 
     22 N         -55.8676  -27.0473   11.1973 N.am      13 UNK        -0.4233 
     23 C         -55.4309  -26.1026   12.0334 C.2       13 UNK         0.4989 
     24 O         -55.6447  -24.8944   11.8920 O.2       13 UNK        -0.4996 
     25 CA        -54.5804  -26.5939   13.2101 C.3       12 UNK         0.0216 
     26 CB        -53.2095  -27.1069   12.7210 C.3       12 UNK        -0.1964 
     27 N         -54.4069  -25.4815   14.1386 N.am      12 UNK        -0.4276 
     28 C         -54.0627  -25.5699   15.4266 C.2       12 UNK         0.5020 
     29 O         -53.8490  -26.6371   16.0039 O.2       12 UNK        -0.5489 
     30 CA        -53.9331  -24.2242   16.1616 C.3       11 UNK         0.0294 
     31 CB        -55.3108  -23.6584   16.5658 C.3       11 UNK        -0.2019 
     32 N         -52.9904  -24.2617   17.2888 N.am      11 UNK        -0.4493 
     33 C         -53.1541  -24.7959   18.5090 C.2       11 UNK         0.4932 
     34 O         -54.1867  -25.3434   18.9010 O.2       11 UNK        -0.5029 
     35 CA        -51.9548  -24.6469   19.4688 C.3       10 UNK         0.0280 
     36 CB        -52.2193  -25.2445   20.8682 C.3       10 UNK        -0.1976 
     37 N         -50.6982  -25.1646   18.9146 N.am      10 UNK        -0.4242 
     38 C         -50.4221  -26.4197   18.5288 C.2       10 UNK         0.5072 
     39 O         -51.2260  -27.3514   18.5890 O.2       10 UNK        -0.5224 
     40 CA        -48.9925  -26.6735   18.0026 C.3       9 UNK         0.0343 
     41 CB        -48.8069  -28.0970   17.4437 C.3       9 UNK        -0.2003 
     42 N         -48.6085  -25.7050   16.9723 N.am      9 UNK        -0.4272 
     43 C         -48.1435  -24.4682   17.2095 C.2       9 UNK         0.4988 
     44 O         -47.9551  -24.0253   18.3429 O.2       9 UNK        -0.5108 
     45 CA        -47.8988  -23.5469   15.9988 C.3       8 UNK         0.0248 
     46 CB        -46.4183  -23.5798   15.5902 C.3       8 UNK        -0.2001 
     47 N         -48.7406  -23.8770   14.8452 N.am      8 UNK        -0.4140 
     48 C         -50.0801  -23.7898   14.8463 C.2       8 UNK         0.5028 
     49 O         -50.7242  -23.3116   15.7820 O.2       8 UNK        -0.5428 
     50 CA        -50.8506  -24.3702   13.6455 C.3       7 UNK         0.0264 
     51 CB        -51.4600  -23.2495   12.7893 C.3       7 UNK        -0.1988 
     52 N         -50.0919  -25.2829   12.7866 N.am      7 UNK        -0.4454 
     53 C         -49.5265  -26.4355   13.1767 C.2       7 UNK         0.5027 
     54 O         -49.5759  -26.8618   14.3307 O.2       7 UNK        -0.5083 
     55 CA        -48.7200  -27.2117   12.1147 C.3       6 UNK         0.0844 
     56 C56       -49.6471  -28.1769   11.3366 C.3       14 UNK        -0.0967 
     57 S57       -48.7158  -29.2657   10.2071 S.3       14 UNK        -0.2604 
     58 C58       -49.6556  -30.8197   10.3262 C.3       14 UNK         0.0134 
     59 N         -47.9582  -26.3144   11.2332 N.am      6 UNK        -0.4116 
     60 C         -47.0385  -25.4271   11.6467 C.2       5 UNK         0.5034 
     61 O         -46.6824  -25.3043   12.8181 O.2       5 UNK        -0.5045 
     62 CA        -46.4663  -24.4701   10.5923 C.3       5 UNK         0.0224 
     63 CB        -45.3192  -25.1278    9.8077 C.3       5 UNK        -0.1978 
     64 N         -47.5182  -24.0182    9.6791 N.am      5 UNK        -0.4737 
     65 C         -48.3772  -23.0279    9.9637 C.2       4 UNK         0.5027 
     66 O         -48.2917  -22.3238   10.9693 O.2       4 UNK        -0.5211 
     67 CA        -49.5365  -22.7819    8.9793 C.3       4 UNK         0.0297 
     68 CB        -49.1589  -21.6837    7.9727 C.3       4 UNK        -0.1993 
     69 N         -49.9543  -23.9823    8.2508 N.am      4 UNK        -0.4486 
     70 C         -50.5300  -25.0567    8.8092 C.2       3 UNK         0.4961 
     71 O         -50.8260  -25.1298   10.0010 O.2       3 UNK        -0.5105 
     72 CA        -50.7563  -26.2769    7.8952 C.3       3 UNK         0.0299 
     73 CB        -52.1417  -26.2058    7.2379 C.3       3 UNK        -0.1972 
     74 N         -49.7295  -26.4471    6.8592 N.am      3 UNK        -0.4305 
     75 C         -48.4126  -26.5486    7.0827 C.2       2 UNK         0.5006 
     76 O         -47.9120  -26.5080    8.2073 O.2       2 UNK        -0.5106 
     77 CA        -47.5111  -26.6898    5.8431 C.3       2 UNK         0.0296 
     78 CB        -46.0228  -26.4670    6.1729 C.3       2 UNK        -0.2002 
     79 N         -47.6638  -27.9980    5.2087 N.am      2 UNK        -0.4032 
     80 C         -48.7028  -28.3834    4.4534 C.2       1 UNK         0.5000 
     81 O         -49.6645  -27.6541    4.1989 O.2       1 UNK        -0.5238 
     82 H82       -44.3779  -29.4909    2.5369 H         1 UNK         0.0889 
     83 H83       -44.9875  -30.7213    1.4270 H         1 UNK         0.0889 
     84 H84       -44.8915  -31.0618    3.1555 H         1 UNK         0.0889 
     85 H85       -46.8922  -30.9717    4.1467 H         1 UNK         0.3028 
     86 H86       -49.1862  -29.7985    2.9272 H         1 UNK         0.0864 
     87 H87       -49.1101  -30.6238    5.8646 H         1 UNK         0.0720 
     88 H88       -48.9665  -31.8394    4.6247 H         1 UNK         0.0720 
     89 H89       -50.8890  -32.9253    5.8737 H         1 UNK         0.0814 
     90 H90       -52.5630  -32.5733    5.5452 H         1 UNK         0.0814 
     91 H91       -49.7347  -31.8339    7.8080 H         1 UNK         0.1469 
     92 H92       -52.1948  -29.8792   10.7243 H         1 UNK         0.1381 
     93 H93       -53.8466  -30.9970    6.9271 H         1 UNK         0.1206 
     94 H94       -54.5636  -29.6782   10.3625 H         1 UNK         0.0813 
     95 H95       -55.2883  -30.6051    9.0692 H         1 UNK         0.0813 
     96 H96       -57.0403  -28.8954    9.4921 H         1 UNK         0.0638 
     97 H97       -57.2630  -27.7988    8.1543 H         1 UNK         0.0638 
     98 H98       -56.2623  -25.9304    9.4959 H         1 UNK         0.0568 
     99 H99       -58.3767  -25.2451    8.7291 H         1 UNK         0.3450 
    100 H100      -59.7741  -25.3952    9.7617 H         1 UNK         0.3450 
    101 H101      -55.6787  -28.0147   11.4060 H         1 UNK         0.2987 
    102 H102      -55.1197  -27.3975   13.7161 H         1 UNK         0.0766 
    103 H103      -52.5683  -27.3974   13.5535 H         1 UNK         0.0798 
    104 H104      -52.6833  -26.3495   12.1386 H         1 UNK         0.0798 
    105 H105      -53.3202  -27.9837   12.0827 H         1 UNK         0.0798 
    106 H106      -54.6429  -24.5834   13.7311 H         1 UNK         0.3198 
    107 H107      -53.4900  -23.5186   15.4569 H         1 UNK         0.0843 
    108 H108      -55.2122  -22.7174   17.1069 H         1 UNK         0.0831 
    109 H109      -55.8699  -24.3520   17.1943 H         1 UNK         0.0831 
    110 H110      -55.9248  -23.4619   15.6862 H         1 UNK         0.0831 
    111 H111      -52.0751  -23.8805   17.0582 H         1 UNK         0.3133 
    112 H112      -51.8056  -23.5741   19.6004 H         1 UNK         0.0566 
    113 H113      -51.3748  -25.0790   21.5371 H         1 UNK         0.0814 
    114 H114      -53.0927  -24.7829   21.3306 H         1 UNK         0.0814 
    115 H115      -52.4062  -26.3179   20.8229 H         1 UNK         0.0814 
    116 H116      -49.9465  -24.4898   18.8207 H         1 UNK         0.3091 
    117 H117      -48.3174  -26.5684   18.8546 H         1 UNK         0.0702 
    118 H118      -47.7895  -28.2543   17.0855 H         1 UNK         0.0785 
    119 H119      -49.4886  -28.2968   16.6162 H         1 UNK         0.0785 
    120 H120      -48.9986  -28.8469   18.2122 H         1 UNK         0.0785 
    121 H121      -48.8008  -25.9818   16.0144 H         1 UNK         0.2998 
    122 H122      -48.1446  -22.5281   16.3053 H         1 UNK         0.0697 
    123 H123      -46.2238  -22.9269   14.7390 H         1 UNK         0.0825 
    124 H124      -45.7816  -23.2435   16.4097 H         1 UNK         0.0825 
    125 H125      -46.0961  -24.5867   15.3222 H         1 UNK         0.0825 
    126 H126      -48.2760  -24.2917   14.0463 H         1 UNK         0.3029 
    127 H127      -51.6641  -24.9559   14.0688 H         1 UNK         0.0897 
    128 H128      -52.1159  -23.6523   12.0170 H         1 UNK         0.0792 
    129 H129      -52.0578  -22.5694   13.3975 H         1 UNK         0.0792 
    130 H130      -50.6885  -22.6555   12.2989 H         1 UNK         0.0792 
    131 H131      -50.0748  -25.0567   11.7952 H         1 UNK         0.3086 
    132 H132      -47.9877  -27.8144   12.6562 H         1 UNK         0.0583 
    133 H133      -50.2065  -28.7957   12.0407 H         1 UNK         0.1020 
    134 H134      -50.3950  -27.6292   10.7636 H         1 UNK         0.1020 
    135 H135      -48.9802  -31.6457   10.0982 H         1 UNK         0.0694 
    136 H136      -49.9919  -30.9881   11.3501 H         1 UNK         0.0694 
    137 H137      -48.1469  -26.3881   10.2387 H         1 UNK         0.2989 
    138 H138      -46.0563  -23.6035   11.1166 H         1 UNK         0.1055 
    139 H139      -44.4926  -25.3789   10.4736 H         1 UNK         0.0806 
    140 H140      -44.9262  -24.4585    9.0423 H         1 UNK         0.0806 
    141 H141      -45.6288  -26.0517    9.3197 H         1 UNK         0.0806 
    142 H142      -47.6913  -24.6052    8.8708 H         1 UNK         0.3061 
    143 H143      -50.3911  -22.4325    9.5630 H         1 UNK         0.0734 
    144 H144      -49.9968  -21.4361    7.3206 H         1 UNK         0.0832 
    145 H145      -48.8706  -20.7662    8.4879 H         1 UNK         0.0832 
    146 H146      -48.3183  -21.9816    7.3447 H         1 UNK         0.0832 
    147 H147      -49.7505  -24.0123    7.2626 H         1 UNK         0.3156 
    148 H148      -50.7281  -27.1695    8.5219 H         1 UNK         0.0589 
    149 H149      -52.2144  -25.3789    6.5307 H         1 UNK         0.0808 
    150 H150      -52.3740  -27.1286    6.7051 H         1 UNK         0.0808 
    151 H151      -52.9208  -26.0631    7.9882 H         1 UNK         0.0808 
    152 H152      -50.0494  -26.5659    5.9029 H         1 UNK         0.3098 
    153 H153      -47.8101  -25.9187    5.1298 H         1 UNK         0.0720 
    154 H154      -45.6457  -27.2146    6.8721 H         1 UNK         0.0791 
    155 H155      -45.8662  -25.4877    6.6274 H         1 UNK         0.0791 
    156 H156      -45.4069  -26.5068    5.2743 H         1 UNK         0.0791 
    157 H157      -46.9276  -28.6674    5.3780 H         1 UNK         0.3028 
@<TRIPOS>BOND
     1    1    2 1    
     2    1   82 1    
     3    1   83 1    
     4    1   84 1    
     5    2    3 2    
     6    2    4 am   BACKBONE|DICT|INTERRES
     7    4    5 1    
     8    4   85 1    
     9    5    6 1    
    10    5   80 1    
    11    5   86 1    
    12    6    7 1    
    13    6   87 1    
    14    6   88 1    
    15    7    8 1    
    16    8    9 1    
    17    8   89 1    
    18    8   90 1    
    19    9   10 ar   
    20    9   14 ar   
    21   10   11 ar   
    22   10   91 1    
    23   11   12 ar   
    24   11   58 1    
    25   12   13 ar   
    26   12   92 1    
    27   13   14 ar   
    28   13   15 1    
    29   14   93 1    
    30   15   16 1    
    31   15   94 1    
    32   15   95 1    
    33   16   17 1    
    34   17   18 1    
    35   17   96 1    
    36   17   97 1    
    37   18   19 1    
    38   18   22 1    
    39   18   98 1    
    40   19   20 am   BACKBONE|DICT|INTERRES
    41   19   21 2    
    42   20   99 1    
    43   20  100 1    
    44   22   23 am   BACKBONE|DICT|INTERRES
    45   22  101 1    
    46   23   24 2    
    47   23   25 1    
    48   25   26 1    
    49   25   27 1    
    50   25  102 1    
    51   26  103 1    
    52   26  104 1    
    53   26  105 1    
    54   27   28 am   BACKBONE|DICT|INTERRES
    55   27  106 1    
    56   28   29 2    
    57   28   30 1    
    58   30   31 1    
    59   30   32 1    
    60   30  107 1    
    61   31  108 1    
    62   31  109 1    
    63   31  110 1    
    64   32   33 am   BACKBONE|DICT|INTERRES
    65   32  111 1    
    66   33   34 2    
    67   33   35 1    
    68   35   36 1    
    69   35   37 1    
    70   35  112 1    
    71   36  113 1    
    72   36  114 1    
    73   36  115 1    
    74   37   38 am   BACKBONE|DICT|INTERRES
    75   37  116 1    
    76   38   39 2    
    77   38   40 1    
    78   40   41 1    
    79   40   42 1    
    80   40  117 1    
    81   41  118 1    
    82   41  119 1    
    83   41  120 1    
    84   42   43 am   BACKBONE|DICT|INTERRES
    85   42  121 1    
    86   43   44 2    
    87   43   45 1    
    88   45   46 1    
    89   45   47 1    
    90   45  122 1    
    91   46  123 1    
    92   46  124 1    
    93   46  125 1    
    94   47   48 am   BACKBONE|DICT|INTERRES
    95   47  126 1    
    96   48   49 2    
    97   48   50 1    
    98   50   51 1    
    99   50   52 1    
   100   50  127 1    
   101   51  128 1    
   102   51  129 1    
   103   51  130 1    
   104   52   53 am   BACKBONE|DICT|INTERRES
   105   52  131 1    
   106   53   54 2    
   107   53   55 1    
   108   55   56 1    
   109   55   59 1    
   110   55  132 1    
   111   56   57 1    
   112   56  133 1    
   113   56  134 1    
   114   57   58 1    
   115   58  135 1    
   116   58  136 1    
   117   59   60 am   BACKBONE|DICT|INTERRES
   118   59  137 1    
   119   60   61 2    
   120   60   62 1    
   121   62   63 1    
   122   62   64 1    
   123   62  138 1    
   124   63  139 1    
   125   63  140 1    
   126   63  141 1    
   127   64   65 am   BACKBONE|DICT|INTERRES
   128   64  142 1    
   129   65   66 2    
   130   65   67 1    
   131   67   68 1    
   132   67   69 1    
   133   67  143 1    
   134   68  144 1    
   135   68  145 1    
   136   68  146 1    
   137   69   70 am   BACKBONE|DICT|INTERRES
   138   69  147 1    
   139   70   71 2    
   140   70   72 1    
   141   72   73 1    
   142   72   74 1    
   143   72  148 1    
   144   73  149 1    
   145   73  150 1    
   146   73  151 1    
   147   74   75 am   BACKBONE|DICT|INTERRES
   148   74  152 1    
   149   75   76 2    
   150   75   77 1    
   151   77   78 1    
   152   77   79 1    
   153   77  153 1    
   154   78  154 1    
   155   78  155 1    
   156   78  156 1    
   157   79   80 am   BACKBONE|DICT|INTERRES
   158   79  157 1    
   159   80   81 2    
@<TRIPOS>SUBSTRUCTURE
     1 UNK         1 GROUP             0       ****    0 ROOT    
