@<TRIPOS>MOLECULE
3R207
157   159    1
SMALL
USER_CHARGES


@<TRIPOS>ATOM
      1 CA        -50.9364  -31.4284    6.7838 C.3       0 UNK        -0.1975 
      2 C         -50.5213  -30.3394    5.8085 C.2       0 UNK         0.4852 
      3 O         -49.7512  -30.6041    4.8844 O.2       0 UNK        -0.5216 
      4 N         -51.0266  -29.1145    6.0103 N.am      1 UNK        -0.4461 
      5 CA        -50.7353  -27.9408    5.1752 C.3       1 UNK         0.0864 
      6 C6        -51.7003  -26.7593    5.4504 C.3       14 UNK        -0.0898 
      7 S7        -53.4438  -27.1707    5.0943 S.3       14 UNK        -0.2598 
      8 C8        -54.2305  -27.0317    6.7323 C.3       14 UNK         0.0286 
      9 C9        -53.8417  -28.1893    7.6377 C.ar      14 UNK        -0.0844 
     10 C10       -52.7952  -28.0503    8.5498 C.ar      14 UNK        -0.0881 
     11 C11       -52.3893  -29.1273    9.3472 C.ar      14 UNK        -0.0643 
     12 C12       -53.0889  -30.3366    9.2615 C.ar      14 UNK        -0.0930 
     13 C13       -54.1508  -30.4820    8.3632 C.ar      14 UNK        -0.0827 
     14 C14       -54.5170  -29.4070    7.5499 C.ar      14 UNK        -0.1249 
     15 C15       -54.8777  -31.8098    8.2220 C.3       14 UNK         0.0141 
     16 S16       -56.5854  -31.7151    8.8427 S.3       14 UNK        -0.2313 
     17 C17       -56.3822  -32.0615   10.6200 C.3       14 UNK        -0.0915 
     18 CA        -56.7623  -30.8500   11.5130 C.3       13 UNK         0.0968 
     19 C         -57.1376  -31.3255   12.9497 C.2       13 UNK         0.5732 
     20 N         -56.3721  -31.0188   13.9906 N.am      13 UNK        -0.7310 
     21 O         -58.1586  -31.9876   13.1239 O.2       13 UNK        -0.5035 
     22 N         -55.7320  -29.7993   11.4704 N.am      13 UNK        -0.4233 
     23 C         -55.9298  -28.5362   11.8647 C.2       13 UNK         0.4989 
     24 O         -57.0331  -28.0652   12.1518 O.2       13 UNK        -0.4996 
     25 CA        -54.6732  -27.6624   12.0331 C.3       12 UNK         0.0216 
     26 CB        -54.7334  -26.4083   11.1454 C.3       12 UNK        -0.1964 
     27 N         -54.5227  -27.2651   13.4358 N.am      12 UNK        -0.4276 
     28 C         -54.3206  -28.1178   14.4477 C.2       12 UNK         0.5020 
     29 O         -54.0501  -29.3101   14.2829 O.2       12 UNK        -0.5489 
     30 CA        -54.4781  -27.5527   15.8723 C.3       11 UNK         0.0294 
     31 CB        -54.6153  -28.6662   16.9280 C.3       11 UNK        -0.2019 
     32 N         -53.3727  -26.6770   16.2580 N.am      11 UNK        -0.4493 
     33 C         -53.1724  -25.4255   15.8224 C.2       11 UNK         0.4932 
     34 O         -53.9126  -24.8710   15.0080 O.2       11 UNK        -0.5029 
     35 CA        -51.9753  -24.6539   16.4165 C.3       10 UNK         0.0280 
     36 CB        -52.3991  -23.2399   16.8499 C.3       10 UNK        -0.1976 
     37 N         -51.3965  -25.3359   17.5816 N.am      10 UNK        -0.4242 
     38 C         -50.3304  -26.1489   17.6716 C.2       10 UNK         0.5072 
     39 O         -50.0942  -26.7457   18.7205 O.2       10 UNK        -0.5224 
     40 CA        -49.3603  -26.3676   16.4881 C.3       9 UNK         0.0343 
     41 CB        -49.9451  -27.3188   15.4294 C.3       9 UNK        -0.2003 
     42 N         -48.8253  -25.1515   15.8662 N.am      9 UNK        -0.4272 
     43 C         -48.1438  -24.1867   16.5034 C.2       9 UNK         0.4988 
     44 O         -47.9178  -24.1942   17.7142 O.2       9 UNK        -0.5108 
     45 CA        -47.5716  -23.0303   15.6613 C.3       8 UNK         0.0248 
     46 CB        -46.0533  -23.2050   15.4903 C.3       8 UNK        -0.2001 
     47 N         -48.1835  -22.8953   14.3376 N.am      8 UNK        -0.4140 
     48 C         -49.3808  -22.3416   14.1017 C.2       8 UNK         0.5028 
     49 O         -50.0844  -21.8356   14.9750 O.2       8 UNK        -0.5428 
     50 CA        -49.8875  -22.3694   12.6478 C.3       7 UNK         0.0264 
     51 CB        -49.3771  -21.1459   11.8718 C.3       7 UNK        -0.1988 
     52 N         -49.5146  -23.5978   11.9384 N.am      7 UNK        -0.4454 
     53 C         -49.9797  -24.8149   12.2558 C.2       7 UNK         0.5027 
     54 O         -50.8214  -25.0086   13.1295 O.2       7 UNK        -0.5083 
     55 CA        -49.3977  -26.0278   11.5096 C.3       6 UNK         0.0844 
     56 C56       -50.2366  -26.3651   10.2586 C.3       14 UNK        -0.0967 
     57 S57       -49.8189  -28.0217    9.6186 S.3       14 UNK        -0.2604 
     58 C58       -51.1936  -29.0171   10.2919 C.3       14 UNK         0.0134 
     59 N         -47.9792  -25.8356   11.2036 N.am      6 UNK        -0.4116 
     60 C         -46.9902  -25.9697   12.0972 C.2       5 UNK         0.5034 
     61 O         -47.1602  -26.3216   13.2640 O.2       5 UNK        -0.5045 
     62 CA        -45.5743  -25.6078   11.6199 C.3       5 UNK         0.0224 
     63 CB        -44.8963  -26.8126   10.9510 C.3       5 UNK        -0.1978 
     64 N         -45.5641  -24.4614   10.7063 N.am      5 UNK        -0.4737 
     65 C         -45.8672  -23.2116   11.0862 C.2       4 UNK         0.5027 
     66 O         -46.1621  -22.9062   12.2404 O.2       4 UNK        -0.5211 
     67 CA        -45.8922  -22.1242    9.9996 C.3       4 UNK         0.0297 
     68 CB        -44.5026  -21.4853    9.8532 C.3       4 UNK        -0.1993 
     69 N         -46.3548  -22.5906    8.6907 N.am      4 UNK        -0.4486 
     70 C         -47.5260  -23.1905    8.4355 C.2       3 UNK         0.4961 
     71 O         -48.3629  -23.4604    9.2985 O.2       3 UNK        -0.5105 
     72 CA        -47.8094  -23.5816    6.9735 C.3       3 UNK         0.0299 
     73 CB        -46.8298  -22.9602    5.9515 C.3       3 UNK        -0.1972 
     74 N         -47.8706  -25.0346    6.7863 N.am      3 UNK        -0.4305 
     75 C         -46.9465  -25.9480    7.1237 C.2       2 UNK         0.5006 
     76 O         -45.9139  -25.6762    7.7404 O.2       2 UNK        -0.5106 
     77 CA        -47.2046  -27.4089    6.6938 C.3       2 UNK         0.0296 
     78 CB        -46.6455  -28.4205    7.7112 C.3       2 UNK        -0.2002 
     79 N         -48.6164  -27.7191    6.4327 N.am      2 UNK        -0.4032 
     80 C         -49.2676  -27.4710    5.2854 C.2       1 UNK         0.5000 
     81 O         -48.7563  -26.8777    4.3346 O.2       1 UNK        -0.5238 
     82 H82       -52.0086  -31.6099    6.7176 H         1 UNK         0.0889 
     83 H83       -50.6900  -31.1413    7.8053 H         1 UNK         0.0889 
     84 H84       -50.4211  -32.3629    6.5636 H         1 UNK         0.0889 
     85 H85       -51.6940  -28.9693    6.7578 H         1 UNK         0.3028 
     86 H86       -50.8785  -28.2466    4.1363 H         1 UNK         0.0864 
     87 H87       -51.5977  -26.4032    6.4760 H         1 UNK         0.0720 
     88 H88       -51.4447  -25.9086    4.8151 H         1 UNK         0.0720 
     89 H89       -55.3138  -27.0202    6.6023 H         1 UNK         0.0814 
     90 H90       -53.9713  -26.0748    7.1883 H         1 UNK         0.0814 
     91 H91       -52.2822  -27.1033    8.6086 H         1 UNK         0.1469 
     92 H92       -52.7876  -31.1762    9.8733 H         1 UNK         0.1381 
     93 H93       -55.3255  -29.5224    6.8405 H         1 UNK         0.1206 
     94 H94       -54.9091  -32.0799    7.1654 H         1 UNK         0.0813 
     95 H95       -54.3380  -32.6163    8.7206 H         1 UNK         0.0813 
     96 H96       -57.0243  -32.9193   10.8300 H         1 UNK         0.0638 
     97 H97       -55.3652  -32.3940   10.8343 H         1 UNK         0.0638 
     98 H98       -57.6810  -30.4187   11.1099 H         1 UNK         0.0568 
     99 H99       -56.6453  -31.3458   14.9030 H         1 UNK         0.3450 
    100 H100      -55.5228  -30.4699   13.8895 H         1 UNK         0.3450 
    101 H101      -54.7964  -30.1056   11.2507 H         1 UNK         0.2987 
    102 H102      -53.7945  -28.2424   11.7494 H         1 UNK         0.0766 
    103 H103      -55.5638  -25.7572   11.4216 H         1 UNK         0.0798 
    104 H104      -53.8132  -25.8280   11.2169 H         1 UNK         0.0798 
    105 H105      -54.8688  -26.6792   10.0978 H         1 UNK         0.0798 
    106 H106      -54.6773  -26.2893   13.6662 H         1 UNK         0.3198 
    107 H107      -55.4022  -26.9702   15.8889 H         1 UNK         0.0843 
    108 H108      -55.4449  -29.3321   16.6859 H         1 UNK         0.0831 
    109 H109      -54.8126  -28.2545   17.9179 H         1 UNK         0.0831 
    110 H110      -53.7149  -29.2789   16.9912 H         1 UNK         0.0831 
    111 H111      -52.7121  -27.0579   16.9190 H         1 UNK         0.3133 
    112 H112      -51.2459  -24.5446   15.6202 H         1 UNK         0.0566 
    113 H113      -51.5573  -22.6868   17.2674 H         1 UNK         0.0814 
    114 H114      -52.7657  -22.6633   15.9994 H         1 UNK         0.0814 
    115 H115      -53.1926  -23.2630   17.5977 H         1 UNK         0.0814 
    116 H116      -51.9429  -25.2325   18.4248 H         1 UNK         0.3091 
    117 H117      -48.4910  -26.8791   16.9069 H         1 UNK         0.0702 
    118 H118      -49.1904  -27.6018   14.6957 H         1 UNK         0.0785 
    119 H119      -50.7817  -26.8793   14.8904 H         1 UNK         0.0785 
    120 H120      -50.3057  -28.2400   15.8891 H         1 UNK         0.0785 
    121 H121      -48.9541  -25.0631   14.8684 H         1 UNK         0.2998 
    122 H122      -47.7456  -22.1066   16.2172 H         1 UNK         0.0697 
    123 H123      -45.8144  -24.1069   14.9248 H         1 UNK         0.0825 
    124 H124      -45.5540  -23.2823   16.4571 H         1 UNK         0.0825 
    125 H125      -45.6131  -22.3561   14.9665 H         1 UNK         0.0825 
    126 H126      -47.6189  -23.1885   13.5451 H         1 UNK         0.3029 
    127 H127      -50.9785  -22.3228   12.6778 H         1 UNK         0.0897 
    128 H128      -49.7102  -21.1620   10.8337 H         1 UNK         0.0792 
    129 H129      -49.7477  -20.2225   12.3189 H         1 UNK         0.0792 
    130 H130      -48.2890  -21.0924   11.8774 H         1 UNK         0.0792 
    131 H131      -48.8902  -23.5056   11.1409 H         1 UNK         0.3086 
    132 H132      -49.4811  -26.8744   12.1955 H         1 UNK         0.0583 
    133 H133      -51.3018  -26.3295   10.4957 H         1 UNK         0.1020 
    134 H134      -50.0764  -25.6273    9.4699 H         1 UNK         0.1020 
    135 H135      -50.7985  -30.0129   10.4996 H         1 UNK         0.0694 
    136 H136      -51.5137  -28.6128   11.2528 H         1 UNK         0.0694 
    137 H137      -47.7580  -25.4849   10.2820 H         1 UNK         0.2989 
    138 H138      -44.9923  -25.3394   12.5049 H         1 UNK         0.1055 
    139 H139      -45.4179  -27.1163   10.0444 H         1 UNK         0.0806 
    140 H140      -44.8783  -27.6730   11.6215 H         1 UNK         0.0806 
    141 H141      -43.8636  -26.5886   10.6834 H         1 UNK         0.0806 
    142 H142      -45.3815  -24.6477    9.7265 H         1 UNK         0.3061 
    143 H143      -46.5863  -21.3489   10.3265 H         1 UNK         0.0734 
    144 H144      -44.1443  -21.1084   10.8124 H         1 UNK         0.0832 
    145 H145      -43.7646  -22.2013    9.4890 H         1 UNK         0.0832 
    146 H146      -44.5224  -20.6409    9.1640 H         1 UNK         0.0832 
    147 H147      -45.7256  -22.4474    7.9141 H         1 UNK         0.3156 
    148 H148      -48.8059  -23.1987    6.7484 H         1 UNK         0.0589 
    149 H149      -45.8125  -23.3355    6.0705 H         1 UNK         0.0808 
    150 H150      -47.1406  -23.1863    4.9313 H         1 UNK         0.0808 
    151 H151      -46.8012  -21.8729    6.0377 H         1 UNK         0.0808 
    152 H152      -48.6794  -25.3708    6.2848 H         1 UNK         0.3098 
    153 H153      -46.6503  -27.5516    5.7638 H         1 UNK         0.0720 
    154 H154      -46.8355  -29.4471    7.3971 H         1 UNK         0.0791 
    155 H155      -47.0820  -28.2856    8.7002 H         1 UNK         0.0791 
    156 H156      -45.5650  -28.3139    7.8155 H         1 UNK         0.0791 
    157 H157      -49.1213  -28.1725    7.1828 H         1 UNK         0.3028 
@<TRIPOS>BOND
     1    1    2 1    
     2    1   82 1    
     3    1   83 1    
     4    1   84 1    
     5    2    3 2    
     6    2    4 am   BACKBONE|DICT|INTERRES
     7    4    5 1    
     8    4   85 1    
     9    5    6 1    
    10    5   80 1    
    11    5   86 1    
    12    6    7 1    
    13    6   87 1    
    14    6   88 1    
    15    7    8 1    
    16    8    9 1    
    17    8   89 1    
    18    8   90 1    
    19    9   10 ar   
    20    9   14 ar   
    21   10   11 ar   
    22   10   91 1    
    23   11   12 ar   
    24   11   58 1    
    25   12   13 ar   
    26   12   92 1    
    27   13   14 ar   
    28   13   15 1    
    29   14   93 1    
    30   15   16 1    
    31   15   94 1    
    32   15   95 1    
    33   16   17 1    
    34   17   18 1    
    35   17   96 1    
    36   17   97 1    
    37   18   19 1    
    38   18   22 1    
    39   18   98 1    
    40   19   20 am   BACKBONE|DICT|INTERRES
    41   19   21 2    
    42   20   99 1    
    43   20  100 1    
    44   22   23 am   BACKBONE|DICT|INTERRES
    45   22  101 1    
    46   23   24 2    
    47   23   25 1    
    48   25   26 1    
    49   25   27 1    
    50   25  102 1    
    51   26  103 1    
    52   26  104 1    
    53   26  105 1    
    54   27   28 am   BACKBONE|DICT|INTERRES
    55   27  106 1    
    56   28   29 2    
    57   28   30 1    
    58   30   31 1    
    59   30   32 1    
    60   30  107 1    
    61   31  108 1    
    62   31  109 1    
    63   31  110 1    
    64   32   33 am   BACKBONE|DICT|INTERRES
    65   32  111 1    
    66   33   34 2    
    67   33   35 1    
    68   35   36 1    
    69   35   37 1    
    70   35  112 1    
    71   36  113 1    
    72   36  114 1    
    73   36  115 1    
    74   37   38 am   BACKBONE|DICT|INTERRES
    75   37  116 1    
    76   38   39 2    
    77   38   40 1    
    78   40   41 1    
    79   40   42 1    
    80   40  117 1    
    81   41  118 1    
    82   41  119 1    
    83   41  120 1    
    84   42   43 am   BACKBONE|DICT|INTERRES
    85   42  121 1    
    86   43   44 2    
    87   43   45 1    
    88   45   46 1    
    89   45   47 1    
    90   45  122 1    
    91   46  123 1    
    92   46  124 1    
    93   46  125 1    
    94   47   48 am   BACKBONE|DICT|INTERRES
    95   47  126 1    
    96   48   49 2    
    97   48   50 1    
    98   50   51 1    
    99   50   52 1    
   100   50  127 1    
   101   51  128 1    
   102   51  129 1    
   103   51  130 1    
   104   52   53 am   BACKBONE|DICT|INTERRES
   105   52  131 1    
   106   53   54 2    
   107   53   55 1    
   108   55   56 1    
   109   55   59 1    
   110   55  132 1    
   111   56   57 1    
   112   56  133 1    
   113   56  134 1    
   114   57   58 1    
   115   58  135 1    
   116   58  136 1    
   117   59   60 am   BACKBONE|DICT|INTERRES
   118   59  137 1    
   119   60   61 2    
   120   60   62 1    
   121   62   63 1    
   122   62   64 1    
   123   62  138 1    
   124   63  139 1    
   125   63  140 1    
   126   63  141 1    
   127   64   65 am   BACKBONE|DICT|INTERRES
   128   64  142 1    
   129   65   66 2    
   130   65   67 1    
   131   67   68 1    
   132   67   69 1    
   133   67  143 1    
   134   68  144 1    
   135   68  145 1    
   136   68  146 1    
   137   69   70 am   BACKBONE|DICT|INTERRES
   138   69  147 1    
   139   70   71 2    
   140   70   72 1    
   141   72   73 1    
   142   72   74 1    
   143   72  148 1    
   144   73  149 1    
   145   73  150 1    
   146   73  151 1    
   147   74   75 am   BACKBONE|DICT|INTERRES
   148   74  152 1    
   149   75   76 2    
   150   75   77 1    
   151   77   78 1    
   152   77   79 1    
   153   77  153 1    
   154   78  154 1    
   155   78  155 1    
   156   78  156 1    
   157   79   80 am   BACKBONE|DICT|INTERRES
   158   79  157 1    
   159   80   81 2    
@<TRIPOS>SUBSTRUCTURE
     1 UNK         1 GROUP             0       ****    0 ROOT    
