@<TRIPOS>MOLECULE
3R207
157   159    1
SMALL
USER_CHARGES


@<TRIPOS>ATOM
      1 CA        -53.2080  -27.1325    4.3931 C.3       0 UNK        -0.1975 
      2 C         -51.9134  -27.0506    5.1871 C.2       0 UNK         0.4852 
      3 O         -50.9887  -26.3478    4.7762 O.2       0 UNK        -0.5216 
      4 N         -51.8517  -27.7385    6.3388 N.am      1 UNK        -0.4461 
      5 CA        -50.6725  -27.8866    7.2146 C.3       1 UNK         0.0864 
      6 C6        -49.5435  -28.7310    6.5557 C.3       14 UNK        -0.0898 
      7 S7        -50.1345  -30.3871    6.0546 S.3       14 UNK        -0.2598 
      8 C8        -49.2887  -31.4933    7.2322 C.3       14 UNK         0.0286 
      9 C9        -49.5308  -31.1063    8.6853 C.ar      14 UNK        -0.0844 
     10 C10       -48.4619  -30.6870    9.4821 C.ar      14 UNK        -0.0881 
     11 C11       -48.6689  -30.3049   10.8109 C.ar      14 UNK        -0.0643 
     12 C12       -49.9613  -30.3551   11.3439 C.ar      14 UNK        -0.0930 
     13 C13       -51.0366  -30.7900   10.5627 C.ar      14 UNK        -0.0827 
     14 C14       -50.8148  -31.1686    9.2353 C.ar      14 UNK        -0.1249 
     15 C15       -52.4363  -30.8556   11.1534 C.3       14 UNK         0.0141 
     16 S16       -53.3723  -29.3489   10.7678 S.3       14 UNK        -0.2313 
     17 C17       -54.9131  -29.6577   11.6917 C.3       14 UNK        -0.0915 
     18 CA        -55.8985  -28.4625   11.5936 C.3       13 UNK         0.0968 
     19 C         -57.2925  -28.8011   12.1998 C.2       13 UNK         0.5732 
     20 N         -57.8555  -27.9993   13.0979 N.am      13 UNK        -0.7310 
     21 O         -57.8933  -29.8068   11.8283 O.2       13 UNK        -0.5035 
     22 N         -55.3062  -27.2356   12.1428 N.am      13 UNK        -0.4233 
     23 C         -55.5061  -26.0027   11.6626 C.2       13 UNK         0.4989 
     24 O         -56.1575  -25.7602   10.6450 O.2       13 UNK        -0.4996 
     25 CA        -54.8672  -24.8471   12.4589 C.3       12 UNK         0.0216 
     26 CB        -55.5428  -23.4846   12.1949 C.3       12 UNK        -0.1964 
     27 N         -54.7780  -25.1208   13.8995 N.am      12 UNK        -0.4276 
     28 C         -55.7932  -25.3520   14.7458 C.2       12 UNK         0.5020 
     29 O         -56.9782  -25.3551   14.4054 O.2       12 UNK        -0.5489 
     30 CA        -55.4111  -25.6735   16.2056 C.3       11 UNK         0.0294 
     31 CB        -56.5948  -26.2386   17.0196 C.3       11 UNK        -0.2019 
     32 N         -54.2428  -26.5566   16.3255 N.am      11 UNK        -0.4493 
     33 C         -54.0916  -27.7835   15.7996 C.2       11 UNK         0.4932 
     34 O         -54.9391  -28.3330   15.0952 O.2       11 UNK        -0.5029 
     35 CA        -52.7616  -28.5077   16.0821 C.3       10 UNK         0.0280 
     36 CB        -52.3357  -29.3898   14.8925 C.3       10 UNK        -0.1976 
     37 N         -51.6897  -27.5516   16.3701 N.am      10 UNK        -0.4242 
     38 C         -51.0500  -27.4079   17.5394 C.2       10 UNK         0.5072 
     39 O         -51.3029  -28.0800   18.5399 O.2       10 UNK        -0.5224 
     40 CA        -49.9371  -26.3424   17.6246 C.3       9 UNK         0.0343 
     41 CB        -48.5620  -27.0131   17.7803 C.3       9 UNK        -0.2003 
     42 N         -49.8992  -25.4487   16.4635 N.am      9 UNK        -0.4272 
     43 C         -50.6970  -24.3820   16.2960 C.2       9 UNK         0.4988 
     44 O         -51.5061  -23.9971   17.1401 O.2       9 UNK        -0.5108 
     45 CA        -50.6271  -23.6550   14.9361 C.3       8 UNK         0.0248 
     46 CB        -49.6017  -22.5121   14.9887 C.3       8 UNK        -0.2001 
     47 N         -50.3067  -24.5445   13.8140 N.am      8 UNK        -0.4140 
     48 C         -51.0233  -25.6302   13.4853 C.2       8 UNK         0.5028 
     49 O         -52.0969  -25.9082   14.0162 O.2       8 UNK        -0.5428 
     50 CA        -50.4408  -26.6176   12.4621 C.3       7 UNK         0.0264 
     51 CB        -51.2030  -26.5198   11.1380 C.3       7 UNK        -0.1988 
     52 N         -49.0033  -26.4788   12.2207 N.am      7 UNK        -0.4454 
     53 C         -48.0424  -26.6005   13.1505 C.2       7 UNK         0.5027 
     54 O         -48.2692  -26.8580   14.3339 O.2       7 UNK        -0.5083 
     55 CA        -46.5877  -26.3515   12.6966 C.3       6 UNK         0.0844 
     56 C56       -45.8572  -27.6817   12.3849 C.3       14 UNK        -0.0967 
     57 S57       -46.5141  -28.5384   10.9090 S.3       14 UNK        -0.2604 
     58 C58       -47.4983  -29.8655   11.6815 C.3       14 UNK         0.0134 
     59 N         -46.4539  -25.3933   11.5926 N.am      6 UNK        -0.4116 
     60 C         -46.9365  -24.1461   11.5314 C.2       5 UNK         0.5034 
     61 O         -47.6275  -23.6395   12.4170 O.2       5 UNK        -0.5045 
     62 CA        -46.6271  -23.3221   10.2659 C.3       5 UNK         0.0224 
     63 CB        -45.4094  -22.4068   10.4953 C.3       5 UNK        -0.1978 
     64 N         -46.4865  -24.0908    9.0160 N.am      5 UNK        -0.4737 
     65 C         -45.5536  -24.9916    8.6641 C.2       4 UNK         0.5027 
     66 O         -44.6368  -25.3389    9.4084 O.2       4 UNK        -0.5211 
     67 CA        -45.6671  -25.6446    7.2725 C.3       4 UNK         0.0297 
     68 CB        -45.7198  -27.1785    7.3892 C.3       4 UNK        -0.1993 
     69 N         -46.8516  -25.1880    6.5428 N.am      4 UNK        -0.4486 
     70 C         -46.8636  -24.2061    5.6291 C.2       3 UNK         0.4961 
     71 O         -45.8514  -23.6231    5.2401 O.2       3 UNK        -0.5105 
     72 CA        -48.2331  -23.7794    5.0610 C.3       3 UNK         0.0299 
     73 CB        -48.4740  -24.4436    3.6965 C.3       3 UNK        -0.1972 
     74 N         -49.3592  -24.0792    5.9514 N.am      3 UNK        -0.4305 
     75 C         -49.5368  -23.5282    7.1636 C.2       2 UNK         0.5006 
     76 O         -48.8173  -22.6376    7.6150 O.2       2 UNK        -0.5106 
     77 CA        -50.6436  -24.1083    8.0647 C.3       2 UNK         0.0296 
     78 CB        -51.9100  -23.2407    8.0016 C.3       2 UNK        -0.2002 
     79 N         -50.9933  -25.4988    7.7594 N.am      2 UNK        -0.4032 
     80 C         -50.1438  -26.5387    7.7637 C.2       1 UNK         0.5000 
     81 O         -48.9771  -26.4405    8.1467 O.2       1 UNK        -0.5238 
     82 H82       -53.9461  -27.7699    4.8795 H         1 UNK         0.0889 
     83 H83       -53.0113  -27.5378    3.4009 H         1 UNK         0.0889 
     84 H84       -53.6400  -26.1391    4.2760 H         1 UNK         0.0889 
     85 H85       -52.6549  -28.2840    6.6199 H         1 UNK         0.3028 
     86 H86       -51.0170  -28.4322    8.0946 H         1 UNK         0.0864 
     87 H87       -49.1520  -28.2248    5.6718 H         1 UNK         0.0720 
     88 H88       -48.6948  -28.8470    7.2315 H         1 UNK         0.0720 
     89 H89       -48.2219  -31.4976    7.0031 H         1 UNK         0.0814 
     90 H90       -49.6389  -32.5139    7.0719 H         1 UNK         0.0814 
     91 H91       -47.4637  -30.6468    9.0677 H         1 UNK         0.1469 
     92 H92       -50.1318  -30.0642   12.3712 H         1 UNK         0.1381 
     93 H93       -51.6443  -31.4966    8.6235 H         1 UNK         0.1206 
     94 H94       -52.3851  -30.9866   12.2353 H         1 UNK         0.0813 
     95 H95       -52.9679  -31.7238   10.7608 H         1 UNK         0.0813 
     96 H96       -54.6685  -29.8663   12.7345 H         1 UNK         0.0638 
     97 H97       -55.3643  -30.5663   11.2890 H         1 UNK         0.0638 
     98 H98       -56.0899  -28.3028   10.5310 H         1 UNK         0.0568 
     99 H99       -58.7607  -28.2403   13.4672 H         1 UNK         0.3450 
    100 H100      -57.3910  -27.1582   13.4193 H         1 UNK         0.3450 
    101 H101      -54.8121  -27.3483   13.0180 H         1 UNK         0.2987 
    102 H102      -53.8391  -24.7737   12.1023 H         1 UNK         0.0766 
    103 H103      -55.0601  -22.6870   12.7596 H         1 UNK         0.0798 
    104 H104      -56.5989  -23.4968   12.4660 H         1 UNK         0.0798 
    105 H105      -55.4816  -23.2149   11.1398 H         1 UNK         0.0798 
    106 H106      -53.8275  -25.2604   14.2404 H         1 UNK         0.3198 
    107 H107      -55.1245  -24.7220   16.6565 H         1 UNK         0.0843 
    108 H108      -56.9653  -27.1732   16.5966 H         1 UNK         0.0831 
    109 H109      -57.4295  -25.5366   17.0365 H         1 UNK         0.0831 
    110 H110      -56.3115  -26.4276   18.0549 H         1 UNK         0.0831 
    111 H111      -53.4694  -26.1850   16.8596 H         1 UNK         0.3133 
    112 H112      -52.9318  -29.1577   16.9422 H         1 UNK         0.0566 
    113 H113      -52.3017  -28.8220   13.9624 H         1 UNK         0.0814 
    114 H114      -51.3537  -29.8344   15.0544 H         1 UNK         0.0814 
    115 H115      -53.0401  -30.2091   14.7443 H         1 UNK         0.0814 
    116 H116      -51.4787  -26.9093   15.6134 H         1 UNK         0.3091 
    117 H117      -50.1247  -25.7473   18.5209 H         1 UNK         0.0702 
    118 H118      -47.7668  -26.2731   17.8722 H         1 UNK         0.0785 
    119 H119      -48.3271  -27.6546   16.9300 H         1 UNK         0.0785 
    120 H120      -48.5293  -27.6354   18.6756 H         1 UNK         0.0785 
    121 H121      -49.2799  -25.7268   15.7079 H         1 UNK         0.2998 
    122 H122      -51.6121  -23.2252   14.7428 H         1 UNK         0.0697 
    123 H123      -48.5894  -22.8856   15.1494 H         1 UNK         0.0825 
    124 H124      -49.8285  -21.8192   15.8002 H         1 UNK         0.0825 
    125 H125      -49.6009  -21.9370   14.0624 H         1 UNK         0.0825 
    126 H126      -49.4336  -24.3687   13.3283 H         1 UNK         0.3029 
    127 H127      -50.5982  -27.6178   12.8678 H         1 UNK         0.0897 
    128 H128      -52.2766  -26.6285   11.2943 H         1 UNK         0.0792 
    129 H129      -50.8979  -27.3122   10.4554 H         1 UNK         0.0792 
    130 H130      -51.0426  -25.5581   10.6548 H         1 UNK         0.0792 
    131 H131      -48.7157  -26.2918   11.2700 H         1 UNK         0.3086 
    132 H132      -46.0811  -25.8943   13.5488 H         1 UNK         0.0583 
    133 H133      -44.7995  -27.4803   12.2073 H         1 UNK         0.1020 
    134 H134      -45.8785  -28.3474   13.2502 H         1 UNK         0.1020 
    135 H135      -46.8517  -30.7224   11.8744 H         1 UNK         0.0694 
    136 H136      -47.8649  -29.5305   12.6527 H         1 UNK         0.0694 
    137 H137      -45.8644  -25.6873   10.8191 H         1 UNK         0.2989 
    138 H138      -47.4938  -22.6766   10.1121 H         1 UNK         0.1055 
    139 H139      -45.5639  -21.7642   11.3634 H         1 UNK         0.0806 
    140 H140      -45.2364  -21.7558    9.6383 H         1 UNK         0.0806 
    141 H141      -44.4970  -22.9765   10.6741 H         1 UNK         0.0806 
    142 H142      -47.1983  -23.8822    8.3256 H         1 UNK         0.3061 
    143 H143      -44.7633  -25.3809    6.7196 H         1 UNK         0.0734 
    144 H144      -45.7907  -27.6503    6.4093 H         1 UNK         0.0832 
    145 H145      -44.8211  -27.5666    7.8705 H         1 UNK         0.0832 
    146 H146      -46.5713  -27.5107    7.9834 H         1 UNK         0.0832 
    147 H147      -47.7305  -25.5985    6.8457 H         1 UNK         0.3156 
    148 H148      -48.2050  -22.6978    4.9139 H         1 UNK         0.0589 
    149 H149      -48.5098  -25.5308    3.7787 H         1 UNK         0.0808 
    150 H150      -49.4125  -24.1112    3.2523 H         1 UNK         0.0808 
    151 H151      -47.6769  -24.1954    2.9943 H         1 UNK         0.0808 
    152 H152      -49.9899  -24.8153    5.6445 H         1 UNK         0.3098 
    153 H153      -50.2598  -24.0795    9.0857 H         1 UNK         0.0720 
    154 H154      -52.6624  -23.5833    8.7125 H         1 UNK         0.0791 
    155 H155      -52.3566  -23.2501    7.0064 H         1 UNK         0.0791 
    156 H156      -51.6842  -22.2020    8.2479 H         1 UNK         0.0791 
    157 H157      -51.9304  -25.6654    7.4228 H         1 UNK         0.3028 
@<TRIPOS>BOND
     1    1    2 1    
     2    1   82 1    
     3    1   83 1    
     4    1   84 1    
     5    2    3 2    
     6    2    4 am   BACKBONE|DICT|INTERRES
     7    4    5 1    
     8    4   85 1    
     9    5    6 1    
    10    5   80 1    
    11    5   86 1    
    12    6    7 1    
    13    6   87 1    
    14    6   88 1    
    15    7    8 1    
    16    8    9 1    
    17    8   89 1    
    18    8   90 1    
    19    9   10 ar   
    20    9   14 ar   
    21   10   11 ar   
    22   10   91 1    
    23   11   12 ar   
    24   11   58 1    
    25   12   13 ar   
    26   12   92 1    
    27   13   14 ar   
    28   13   15 1    
    29   14   93 1    
    30   15   16 1    
    31   15   94 1    
    32   15   95 1    
    33   16   17 1    
    34   17   18 1    
    35   17   96 1    
    36   17   97 1    
    37   18   19 1    
    38   18   22 1    
    39   18   98 1    
    40   19   20 am   BACKBONE|DICT|INTERRES
    41   19   21 2    
    42   20   99 1    
    43   20  100 1    
    44   22   23 am   BACKBONE|DICT|INTERRES
    45   22  101 1    
    46   23   24 2    
    47   23   25 1    
    48   25   26 1    
    49   25   27 1    
    50   25  102 1    
    51   26  103 1    
    52   26  104 1    
    53   26  105 1    
    54   27   28 am   BACKBONE|DICT|INTERRES
    55   27  106 1    
    56   28   29 2    
    57   28   30 1    
    58   30   31 1    
    59   30   32 1    
    60   30  107 1    
    61   31  108 1    
    62   31  109 1    
    63   31  110 1    
    64   32   33 am   BACKBONE|DICT|INTERRES
    65   32  111 1    
    66   33   34 2    
    67   33   35 1    
    68   35   36 1    
    69   35   37 1    
    70   35  112 1    
    71   36  113 1    
    72   36  114 1    
    73   36  115 1    
    74   37   38 am   BACKBONE|DICT|INTERRES
    75   37  116 1    
    76   38   39 2    
    77   38   40 1    
    78   40   41 1    
    79   40   42 1    
    80   40  117 1    
    81   41  118 1    
    82   41  119 1    
    83   41  120 1    
    84   42   43 am   BACKBONE|DICT|INTERRES
    85   42  121 1    
    86   43   44 2    
    87   43   45 1    
    88   45   46 1    
    89   45   47 1    
    90   45  122 1    
    91   46  123 1    
    92   46  124 1    
    93   46  125 1    
    94   47   48 am   BACKBONE|DICT|INTERRES
    95   47  126 1    
    96   48   49 2    
    97   48   50 1    
    98   50   51 1    
    99   50   52 1    
   100   50  127 1    
   101   51  128 1    
   102   51  129 1    
   103   51  130 1    
   104   52   53 am   BACKBONE|DICT|INTERRES
   105   52  131 1    
   106   53   54 2    
   107   53   55 1    
   108   55   56 1    
   109   55   59 1    
   110   55  132 1    
   111   56   57 1    
   112   56  133 1    
   113   56  134 1    
   114   57   58 1    
   115   58  135 1    
   116   58  136 1    
   117   59   60 am   BACKBONE|DICT|INTERRES
   118   59  137 1    
   119   60   61 2    
   120   60   62 1    
   121   62   63 1    
   122   62   64 1    
   123   62  138 1    
   124   63  139 1    
   125   63  140 1    
   126   63  141 1    
   127   64   65 am   BACKBONE|DICT|INTERRES
   128   64  142 1    
   129   65   66 2    
   130   65   67 1    
   131   67   68 1    
   132   67   69 1    
   133   67  143 1    
   134   68  144 1    
   135   68  145 1    
   136   68  146 1    
   137   69   70 am   BACKBONE|DICT|INTERRES
   138   69  147 1    
   139   70   71 2    
   140   70   72 1    
   141   72   73 1    
   142   72   74 1    
   143   72  148 1    
   144   73  149 1    
   145   73  150 1    
   146   73  151 1    
   147   74   75 am   BACKBONE|DICT|INTERRES
   148   74  152 1    
   149   75   76 2    
   150   75   77 1    
   151   77   78 1    
   152   77   79 1    
   153   77  153 1    
   154   78  154 1    
   155   78  155 1    
   156   78  156 1    
   157   79   80 am   BACKBONE|DICT|INTERRES
   158   79  157 1    
   159   80   81 2    
@<TRIPOS>SUBSTRUCTURE
     1 UNK         1 GROUP             0       ****    0 ROOT    
