@<TRIPOS>MOLECULE
3R207
157   159    1
SMALL
USER_CHARGES


@<TRIPOS>ATOM
      1 CA        -45.7418  -30.7295    2.1460 C.3       0 UNK        -0.1975 
      2 C         -46.8960  -29.9634    2.7757 C.2       0 UNK         0.4852 
      3 O         -47.7260  -29.4116    2.0529 O.2       0 UNK        -0.5216 
      4 N         -46.9540  -29.9371    4.1141 N.am      1 UNK        -0.4461 
      5 CA        -47.9619  -29.2320    4.9131 C.3       1 UNK         0.0864 
      6 C6        -47.8873  -29.6469    6.4067 C.3       14 UNK        -0.0898 
      7 S7        -48.7723  -31.2109    6.7202 S.3       14 UNK        -0.2598 
      8 C8        -49.7215  -30.8145    8.2306 C.3       14 UNK         0.0286 
      9 C9        -51.0874  -30.1818    7.9684 C.ar      14 UNK        -0.0844 
     10 C10       -51.2215  -29.0459    7.1635 C.ar      14 UNK        -0.0881 
     11 C11       -52.4574  -28.4141    7.0080 C.ar      14 UNK        -0.0643 
     12 C12       -53.5841  -28.9498    7.6356 C.ar      14 UNK        -0.0930 
     13 C13       -53.4725  -30.0906    8.4360 C.ar      14 UNK        -0.0827 
     14 C14       -52.2238  -30.6994    8.5996 C.ar      14 UNK        -0.1249 
     15 C15       -54.7017  -30.6559    9.1329 C.3       14 UNK         0.0141 
     16 S16       -55.3211  -29.5416   10.4327 S.3       14 UNK        -0.2313 
     17 C17       -53.9495  -29.5841   11.6347 C.3       14 UNK        -0.0915 
     18 CA        -54.3860  -29.0660   13.0288 C.3       13 UNK         0.0968 
     19 C         -53.2505  -29.2570   14.0696 C.2       13 UNK         0.5732 
     20 N         -53.2093  -30.4035   14.7343 N.am      13 UNK        -0.7310 
     21 O         -52.3826  -28.4045   14.2480 O.2       13 UNK        -0.5035 
     22 N         -54.8239  -27.6676   12.9642 N.am      13 UNK        -0.4233 
     23 C         -55.6449  -27.0833   13.8412 C.2       13 UNK         0.4989 
     24 O         -56.2493  -27.6817   14.7351 O.2       13 UNK        -0.4996 
     25 CA        -55.8400  -25.5632   13.6753 C.3       12 UNK         0.0216 
     26 CB        -57.2073  -25.2618   13.0400 C.3       12 UNK        -0.1964 
     27 N         -55.7078  -24.8085   14.9297 N.am      12 UNK        -0.4276 
     28 C         -54.6605  -24.8835   15.7608 C.2       12 UNK         0.5020 
     29 O         -53.7106  -25.6579   15.6031 O.2       12 UNK        -0.5489 
     30 CA        -54.6307  -23.9210   16.9579 C.3       11 UNK         0.0294 
     31 CB        -55.5431  -24.4175   18.0949 C.3       11 UNK        -0.2019 
     32 N         -53.2375  -23.9312   17.3706 N.am      11 UNK        -0.4493 
     33 C         -52.5769  -23.2532   18.3081 C.2       11 UNK         0.4932 
     34 O         -53.0733  -22.3749   19.0146 O.2       11 UNK        -0.5029 
     35 CA        -51.0911  -23.6485   18.4499 C.3       10 UNK         0.0280 
     36 CB        -50.5010  -23.3237   19.8388 C.3       10 UNK        -0.1976 
     37 N         -50.8558  -25.0505   18.0559 N.am      10 UNK        -0.4242 
     38 C         -51.3012  -26.1556   18.6819 C.2       10 UNK         0.5072 
     39 O         -51.8432  -26.1361   19.7880 O.2       10 UNK        -0.5224 
     40 CA        -51.1707  -27.5147   17.9577 C.3       9 UNK         0.0343 
     41 CB        -52.5277  -28.2391   17.8936 C.3       9 UNK        -0.2003 
     42 N         -50.6318  -27.4254   16.5986 N.am      9 UNK        -0.4272 
     43 C         -49.3364  -27.2699   16.2955 C.2       9 UNK         0.4988 
     44 O         -48.4396  -27.2210   17.1379 O.2       9 UNK        -0.5108 
     45 CA        -48.9756  -27.1202   14.8065 C.3       8 UNK         0.0248 
     46 CB        -48.5913  -28.4912   14.2261 C.3       8 UNK        -0.2001 
     47 N         -50.0296  -26.5183   13.9800 N.am      8 UNK        -0.4140 
     48 C         -50.5924  -25.3156   14.1777 C.2       8 UNK         0.5028 
     49 O         -50.2896  -24.5680   15.1113 O.2       8 UNK        -0.5428 
     50 CA        -51.6752  -24.8898   13.1715 C.3       7 UNK         0.0264 
     51 CB        -52.0037  -23.3865   13.2306 C.3       7 UNK        -0.1988 
     52 N         -51.2880  -25.2567   11.8124 N.am      7 UNK        -0.4454 
     53 C         -52.0764  -25.8904   10.9321 C.2       7 UNK         0.5027 
     54 O         -53.2603  -26.1520   11.1501 O.2       7 UNK        -0.5083 
     55 CA        -51.4562  -26.3142    9.5809 C.3       6 UNK         0.0844 
     56 C56       -52.0554  -25.4576    8.4336 C.3       14 UNK        -0.0967 
     57 S57       -51.3998  -25.8520    6.7769 S.3       14 UNK        -0.2604 
     58 C58       -52.5593  -27.1333    6.1912 C.3       14 UNK         0.0134 
     59 N         -49.9864  -26.3175    9.6041 N.am      6 UNK        -0.4116 
     60 C         -49.2401  -27.1468   10.3507 C.2       5 UNK         0.5034 
     61 O         -49.7105  -28.0666   11.0192 O.2       5 UNK        -0.5045 
     62 CA        -47.7298  -26.8682   10.4398 C.3       5 UNK         0.0224 
     63 CB        -46.9134  -27.8689    9.6077 C.3       5 UNK        -0.1978 
     64 N         -47.3790  -25.5017   10.0494 N.am      5 UNK        -0.4737 
     65 C         -47.5268  -24.4277   10.8365 C.2       4 UNK         0.5027 
     66 O         -47.9755  -24.4813   11.9805 O.2       4 UNK        -0.5211 
     67 CA        -47.1329  -23.0648   10.2397 C.3       4 UNK         0.0297 
     68 CB        -45.6399  -22.7873   10.4756 C.3       4 UNK        -0.1993 
     69 N         -47.4284  -22.9621    8.8081 N.am      4 UNK        -0.4486 
     70 C         -48.6664  -22.9173    8.2975 C.2       3 UNK         0.4961 
     71 O         -49.6871  -22.8980    8.9850 O.2       3 UNK        -0.5105 
     72 CA        -48.7934  -22.9238    6.7625 C.3       3 UNK         0.0299 
     73 CB        -48.7829  -21.4849    6.2221 C.3       3 UNK        -0.1972 
     74 N         -47.7871  -23.7211    6.0447 N.am      3 UNK        -0.4305 
     75 C         -47.5009  -25.0117    6.2701 C.2       2 UNK         0.5006 
     76 O         -47.9429  -25.6592    7.2203 O.2       2 UNK        -0.5106 
     77 CA        -46.5136  -25.6802    5.2952 C.3       2 UNK         0.0296 
     78 CB        -45.0665  -25.4229    5.7467 C.3       2 UNK        -0.2002 
     79 N         -46.7315  -27.1278    5.2027 N.am      2 UNK        -0.4032 
     80 C         -47.8542  -27.7027    4.7444 C.2       1 UNK         0.5000 
     81 O         -48.7766  -27.0825    4.2115 O.2       1 UNK        -0.5238 
     82 H82       -45.0883  -31.1743    2.8964 H         1 UNK         0.0889 
     83 H83       -45.1421  -30.0623    1.5274 H         1 UNK         0.0889 
     84 H84       -46.1240  -31.5298    1.5129 H         1 UNK         0.0889 
     85 H85       -46.2506  -30.4340    4.6417 H         1 UNK         0.3028 
     86 H86       -48.9449  -29.5108    4.5256 H         1 UNK         0.0864 
     87 H87       -46.8519  -29.7630    6.7316 H         1 UNK         0.0720 
     88 H88       -48.3002  -28.8750    7.0551 H         1 UNK         0.0720 
     89 H89       -49.1405  -30.1559    8.8771 H         1 UNK         0.0814 
     90 H90       -49.8446  -31.7432    8.7898 H         1 UNK         0.0814 
     91 H91       -50.3659  -28.6098    6.6760 H         1 UNK         0.1469 
     92 H92       -54.5459  -28.4679    7.5242 H         1 UNK         0.1381 
     93 H93       -52.1350  -31.5694    9.2359 H         1 UNK         0.1206 
     94 H94       -55.4907  -30.8100    8.3955 H         1 UNK         0.0813 
     95 H95       -54.4929  -31.6355    9.5655 H         1 UNK         0.0813 
     96 H96       -53.1189  -28.9942   11.2416 H         1 UNK         0.0638 
     97 H97       -53.5913  -30.6127   11.7066 H         1 UNK         0.0638 
     98 H98       -55.2364  -29.6687   13.3545 H         1 UNK         0.0568 
     99 H99       -52.4649  -30.5568   15.3945 H         1 UNK         0.3450 
    100 H100      -53.9050  -31.1177   14.5884 H         1 UNK         0.3450 
    101 H101      -54.3391  -27.0945   12.2765 H         1 UNK         0.2987 
    102 H102      -55.0661  -25.1886   13.0022 H         1 UNK         0.0766 
    103 H103      -57.3243  -24.1987   12.8290 H         1 UNK         0.0798 
    104 H104      -58.0287  -25.5706   13.6880 H         1 UNK         0.0798 
    105 H105      -57.3220  -25.7923   12.0935 H         1 UNK         0.0798 
    106 H106      -56.4556  -24.1668   15.1499 H         1 UNK         0.3198 
    107 H107      -54.9106  -22.9154   16.6390 H         1 UNK         0.0843 
    108 H108      -56.5849  -24.4539   17.7747 H         1 UNK         0.0831 
    109 H109      -55.4961  -23.7592   18.9623 H         1 UNK         0.0831 
    110 H110      -55.2655  -25.4208   18.4217 H         1 UNK         0.0831 
    111 H111      -52.7236  -24.6259   16.8347 H         1 UNK         0.3133 
    112 H112      -50.5511  -23.0450   17.7190 H         1 UNK         0.0566 
    113 H113      -49.4609  -23.6409   19.9128 H         1 UNK         0.0814 
    114 H114      -50.5266  -22.2500   20.0285 H         1 UNK         0.0814 
    115 H115      -51.0585  -23.8038   20.6431 H         1 UNK         0.0814 
    116 H116      -50.4470  -25.1644   17.1331 H         1 UNK         0.3091 
    117 H117      -50.4940  -28.1265   18.5576 H         1 UNK         0.0702 
    118 H118      -52.4273  -29.2287   17.4484 H         1 UNK         0.0785 
    119 H119      -53.2551  -27.6805   17.3035 H         1 UNK         0.0785 
    120 H120      -52.9519  -28.3777   18.8888 H         1 UNK         0.0785 
    121 H121      -51.3016  -27.4767   15.8362 H         1 UNK         0.2998 
    122 H122      -48.1054  -26.4636   14.7470 H         1 UNK         0.0697 
    123 H123      -49.4509  -29.1614   14.1777 H         1 UNK         0.0825 
    124 H124      -47.8308  -28.9784   14.8382 H         1 UNK         0.0825 
    125 H125      -48.1810  -28.4021   13.2221 H         1 UNK         0.0825 
    126 H126      -50.3824  -27.0897   13.2228 H         1 UNK         0.3029 
    127 H127      -52.5689  -25.4480   13.4461 H         1 UNK         0.0897 
    128 H128      -52.8029  -23.1292   12.5356 H         1 UNK         0.0792 
    129 H129      -52.3383  -23.0984   14.2281 H         1 UNK         0.0792 
    130 H130      -51.1330  -22.7773   12.9856 H         1 UNK         0.0792 
    131 H131      -50.3225  -25.0744   11.5669 H         1 UNK         0.3086 
    132 H132      -51.7695  -27.3474    9.4279 H         1 UNK         0.0583 
    133 H133      -53.1419  -25.5648    8.4094 H         1 UNK         0.1020 
    134 H134      -51.8671  -24.3982    8.6159 H         1 UNK         0.1020 
    135 H135      -53.5744  -26.7338    6.2071 H         1 UNK         0.0694 
    136 H136      -52.3311  -27.3621    5.1493 H         1 UNK         0.0694 
    137 H137      -49.5210  -25.6258    9.0306 H         1 UNK         0.2989 
    138 H138      -47.4480  -27.0045   11.4857 H         1 UNK         0.1055 
    139 H139      -47.1980  -28.8971    9.8346 H         1 UNK         0.0806 
    140 H140      -45.8481  -27.7758    9.8188 H         1 UNK         0.0806 
    141 H141      -47.0509  -27.7141    8.5397 H         1 UNK         0.0806 
    142 H142      -47.1219  -25.3674    9.0778 H         1 UNK         0.3061 
    143 H143      -47.7090  -22.2972   10.7613 H         1 UNK         0.0734 
    144 H144      -45.3988  -22.8366   11.5385 H         1 UNK         0.0832 
    145 H145      -45.0063  -23.5135    9.9647 H         1 UNK         0.0832 
    146 H146      -45.3605  -21.7924   10.1282 H         1 UNK         0.0832 
    147 H147      -46.6457  -22.9719    8.1705 H         1 UNK         0.3156 
    148 H148      -49.7653  -23.3603    6.5271 H         1 UNK         0.0589 
    149 H149      -47.8174  -21.0016    6.3770 H         1 UNK         0.0808 
    150 H150      -49.0062  -21.4583    5.1554 H         1 UNK         0.0808 
    151 H151      -49.5366  -20.8744    6.7221 H         1 UNK         0.0808 
    152 H152      -47.3474  -23.2691    5.2557 H         1 UNK         0.3098 
    153 H153      -46.6593  -25.2530    4.3009 H         1 UNK         0.0720 
    154 H154      -44.3499  -25.8641    5.0535 H         1 UNK         0.0791 
    155 H155      -44.8734  -25.8363    6.7378 H         1 UNK         0.0791 
    156 H156      -44.8520  -24.3543    5.7922 H         1 UNK         0.0791 
    157 H157      -46.0268  -27.7154    5.6216 H         1 UNK         0.3028 
@<TRIPOS>BOND
     1    1    2 1    
     2    1   82 1    
     3    1   83 1    
     4    1   84 1    
     5    2    3 2    
     6    2    4 am   BACKBONE|DICT|INTERRES
     7    4    5 1    
     8    4   85 1    
     9    5    6 1    
    10    5   80 1    
    11    5   86 1    
    12    6    7 1    
    13    6   87 1    
    14    6   88 1    
    15    7    8 1    
    16    8    9 1    
    17    8   89 1    
    18    8   90 1    
    19    9   10 ar   
    20    9   14 ar   
    21   10   11 ar   
    22   10   91 1    
    23   11   12 ar   
    24   11   58 1    
    25   12   13 ar   
    26   12   92 1    
    27   13   14 ar   
    28   13   15 1    
    29   14   93 1    
    30   15   16 1    
    31   15   94 1    
    32   15   95 1    
    33   16   17 1    
    34   17   18 1    
    35   17   96 1    
    36   17   97 1    
    37   18   19 1    
    38   18   22 1    
    39   18   98 1    
    40   19   20 am   BACKBONE|DICT|INTERRES
    41   19   21 2    
    42   20   99 1    
    43   20  100 1    
    44   22   23 am   BACKBONE|DICT|INTERRES
    45   22  101 1    
    46   23   24 2    
    47   23   25 1    
    48   25   26 1    
    49   25   27 1    
    50   25  102 1    
    51   26  103 1    
    52   26  104 1    
    53   26  105 1    
    54   27   28 am   BACKBONE|DICT|INTERRES
    55   27  106 1    
    56   28   29 2    
    57   28   30 1    
    58   30   31 1    
    59   30   32 1    
    60   30  107 1    
    61   31  108 1    
    62   31  109 1    
    63   31  110 1    
    64   32   33 am   BACKBONE|DICT|INTERRES
    65   32  111 1    
    66   33   34 2    
    67   33   35 1    
    68   35   36 1    
    69   35   37 1    
    70   35  112 1    
    71   36  113 1    
    72   36  114 1    
    73   36  115 1    
    74   37   38 am   BACKBONE|DICT|INTERRES
    75   37  116 1    
    76   38   39 2    
    77   38   40 1    
    78   40   41 1    
    79   40   42 1    
    80   40  117 1    
    81   41  118 1    
    82   41  119 1    
    83   41  120 1    
    84   42   43 am   BACKBONE|DICT|INTERRES
    85   42  121 1    
    86   43   44 2    
    87   43   45 1    
    88   45   46 1    
    89   45   47 1    
    90   45  122 1    
    91   46  123 1    
    92   46  124 1    
    93   46  125 1    
    94   47   48 am   BACKBONE|DICT|INTERRES
    95   47  126 1    
    96   48   49 2    
    97   48   50 1    
    98   50   51 1    
    99   50   52 1    
   100   50  127 1    
   101   51  128 1    
   102   51  129 1    
   103   51  130 1    
   104   52   53 am   BACKBONE|DICT|INTERRES
   105   52  131 1    
   106   53   54 2    
   107   53   55 1    
   108   55   56 1    
   109   55   59 1    
   110   55  132 1    
   111   56   57 1    
   112   56  133 1    
   113   56  134 1    
   114   57   58 1    
   115   58  135 1    
   116   58  136 1    
   117   59   60 am   BACKBONE|DICT|INTERRES
   118   59  137 1    
   119   60   61 2    
   120   60   62 1    
   121   62   63 1    
   122   62   64 1    
   123   62  138 1    
   124   63  139 1    
   125   63  140 1    
   126   63  141 1    
   127   64   65 am   BACKBONE|DICT|INTERRES
   128   64  142 1    
   129   65   66 2    
   130   65   67 1    
   131   67   68 1    
   132   67   69 1    
   133   67  143 1    
   134   68  144 1    
   135   68  145 1    
   136   68  146 1    
   137   69   70 am   BACKBONE|DICT|INTERRES
   138   69  147 1    
   139   70   71 2    
   140   70   72 1    
   141   72   73 1    
   142   72   74 1    
   143   72  148 1    
   144   73  149 1    
   145   73  150 1    
   146   73  151 1    
   147   74   75 am   BACKBONE|DICT|INTERRES
   148   74  152 1    
   149   75   76 2    
   150   75   77 1    
   151   77   78 1    
   152   77   79 1    
   153   77  153 1    
   154   78  154 1    
   155   78  155 1    
   156   78  156 1    
   157   79   80 am   BACKBONE|DICT|INTERRES
   158   79  157 1    
   159   80   81 2    
@<TRIPOS>SUBSTRUCTURE
     1 UNK         1 GROUP             0       ****    0 ROOT    
