@<TRIPOS>MOLECULE
3R207
157   159    1
SMALL
USER_CHARGES


@<TRIPOS>ATOM
      1 CA        -46.0268  -28.7792    2.5103 C.3       0 UNK        -0.1975 
      2 C         -47.4586  -28.6781    3.0156 C.2       0 UNK         0.4852 
      3 O         -48.1154  -27.6601    2.7920 O.2       0 UNK        -0.5216 
      4 N         -47.9493  -29.7275    3.6882 N.am      1 UNK        -0.4461 
      5 CA        -49.2717  -29.7686    4.3186 C.3       1 UNK         0.0864 
      6 C6        -49.6693  -31.2194    4.6825 C.3       14 UNK        -0.0898 
      7 S7        -51.4669  -31.4132    4.9277 S.3       14 UNK        -0.2598 
      8 C8        -51.5433  -32.2087    6.5644 C.3       14 UNK         0.0286 
      9 C9        -51.5323  -31.2052    7.7106 C.ar      14 UNK        -0.0844 
     10 C10       -50.3556  -30.9362    8.4163 C.ar      14 UNK        -0.0881 
     11 C11       -50.3747  -30.0849    9.5260 C.ar      14 UNK        -0.0643 
     12 C12       -51.5770  -29.4891    9.9205 C.ar      14 UNK        -0.0930 
     13 C13       -52.7596  -29.7354    9.2133 C.ar      14 UNK        -0.0827 
     14 C14       -52.7251  -30.5956    8.1106 C.ar      14 UNK        -0.1249 
     15 C15       -54.0987  -29.1471    9.6525 C.3       14 UNK         0.0141 
     16 S16       -54.0096  -27.4341   10.2771 S.3       14 UNK        -0.2313 
     17 C17       -55.7895  -27.0281   10.3901 C.3       14 UNK        -0.0915 
     18 CA        -56.3829  -27.0984   11.8263 C.3       13 UNK         0.0968 
     19 C         -56.5174  -28.5473   12.3699 C.2       13 UNK         0.5732 
     20 N         -56.1295  -28.8553   13.5991 N.am      13 UNK        -0.7310 
     21 O         -57.0206  -29.4193   11.6653 O.2       13 UNK        -0.5035 
     22 N         -55.7386  -26.1304   12.7304 N.am      13 UNK        -0.4233 
     23 C         -56.1359  -24.8569   12.8559 C.2       13 UNK         0.4989 
     24 O         -57.1733  -24.4127   12.3588 O.2       13 UNK        -0.4996 
     25 CA        -55.1934  -23.9036   13.6118 C.3       12 UNK         0.0216 
     26 CB        -55.8173  -22.5210   13.9055 C.3       12 UNK        -0.1964 
     27 N         -54.6052  -24.4926   14.8164 N.am      12 UNK        -0.4276 
     28 C         -55.2161  -24.8150   15.9640 C.2       12 UNK         0.5020 
     29 O         -56.4270  -24.6937   16.1604 O.2       12 UNK        -0.5489 
     30 CA        -54.2984  -25.3408   17.0870 C.3       11 UNK         0.0294 
     31 CB        -55.0775  -25.9330   18.2815 C.3       11 UNK        -0.2019 
     32 N         -53.2758  -26.2798   16.6083 N.am      11 UNK        -0.4493 
     33 C         -53.4862  -27.4721   16.0294 C.2       11 UNK         0.4932 
     34 O         -54.6112  -27.9223   15.8158 O.2       11 UNK        -0.5029 
     35 CA        -52.2645  -28.3078   15.5904 C.3       10 UNK         0.0280 
     36 CB        -52.4013  -28.7480   14.1206 C.3       10 UNK        -0.1976 
     37 N         -50.9820  -27.6207   15.7594 N.am      10 UNK        -0.4242 
     38 C         -50.3066  -27.4835   16.9082 C.2       10 UNK         0.5072 
     39 O         -50.6580  -27.9886   17.9747 O.2       10 UNK        -0.5224 
     40 CA        -49.0541  -26.5851   16.8723 C.3       9 UNK         0.0343 
     41 CB        -47.8083  -27.3946   16.4794 C.3       9 UNK        -0.2003 
     42 N         -49.1970  -25.4285   15.9788 N.am      9 UNK        -0.4272 
     43 C         -50.1073  -24.4553   16.1427 C.2       9 UNK         0.4988 
     44 O         -50.8904  -24.4044   17.0917 O.2       9 UNK        -0.5108 
     45 CA        -50.2084  -23.3942   15.0343 C.3       8 UNK         0.0248 
     46 CB        -49.0843  -22.3549   15.1661 C.3       8 UNK        -0.2001 
     47 N         -50.2058  -23.9788   13.6898 N.am      8 UNK        -0.4140 
     48 C         -51.1356  -24.8359   13.2397 C.2       8 UNK         0.5028 
     49 O         -52.1272  -25.1656   13.8867 O.2       8 UNK        -0.5428 
     50 CA        -50.8992  -25.4875   11.8711 C.3       7 UNK         0.0264 
     51 CB        -51.3003  -24.5439   10.7278 C.3       7 UNK        -0.1988 
     52 N         -49.5151  -25.9224   11.7022 N.am      7 UNK        -0.4454 
     53 C         -48.9038  -26.8530   12.4497 C.2       7 UNK         0.5027 
     54 O         -49.4662  -27.4883   13.3399 O.2       7 UNK        -0.5083 
     55 CA        -47.3961  -27.0729   12.2047 C.3       6 UNK         0.0844 
     56 C56       -47.0381  -28.1727   11.1605 C.3       14 UNK        -0.0967 
     57 S57       -48.1815  -28.3999    9.7508 S.3       14 UNK        -0.2604 
     58 C58       -49.1113  -29.8492   10.3370 C.3       14 UNK         0.0134 
     59 N         -46.7155  -25.8009   11.9501 N.am      6 UNK        -0.4116 
     60 C         -46.4727  -24.8843   12.8988 C.2       5 UNK         0.5034 
     61 O         -46.7925  -25.0202   14.0811 O.2       5 UNK        -0.5045 
     62 CA        -45.7736  -23.5894   12.4526 C.3       5 UNK         0.0224 
     63 CB        -44.2585  -23.8087   12.3151 C.3       5 UNK        -0.1978 
     64 N         -46.3090  -23.0496   11.2003 N.am      5 UNK        -0.4737 
     65 C         -47.5441  -22.5474   11.0697 C.2       4 UNK         0.5027 
     66 O         -48.3578  -22.4849   11.9903 O.2       4 UNK        -0.5211 
     67 CA        -47.9583  -22.0733    9.6654 C.3       4 UNK         0.0297 
     68 CB        -47.4177  -20.6600    9.3950 C.3       4 UNK        -0.1993 
     69 N         -47.5775  -22.9673    8.5618 N.am      4 UNK        -0.4486 
     70 C         -47.8235  -24.2834    8.5106 C.2       3 UNK         0.4961 
     71 O         -48.2437  -24.9406    9.4623 O.2       3 UNK        -0.5105 
     72 CA        -47.5382  -24.9997    7.1822 C.3       3 UNK         0.0299 
     73 CB        -46.1183  -25.5869    7.1828 C.3       3 UNK        -0.1972 
     74 N         -48.4996  -26.0835    6.9770 N.am      3 UNK        -0.4305 
     75 C         -49.8134  -25.9267    6.7763 C.2       2 UNK         0.5006 
     76 O         -50.3425  -24.8373    6.5441 O.2       2 UNK        -0.5106 
     77 CA        -50.6708  -27.2058    6.8430 C.3       2 UNK         0.0296 
     78 CB        -52.1796  -26.8991    6.8910 C.3       2 UNK        -0.2002 
     79 N         -50.4101  -28.1154    5.7265 N.am      2 UNK        -0.4032 
     80 C         -49.3031  -28.8504    5.5556 C.2       1 UNK         0.5000 
     81 O         -48.3396  -28.8457    6.3270 O.2       1 UNK        -0.5238 
     82 H82       -45.5718  -29.7369    2.7624 H         1 UNK         0.0889 
     83 H83       -45.4184  -27.9888    2.9492 H         1 UNK         0.0889 
     84 H84       -46.0023  -28.6670    1.4267 H         1 UNK         0.0889 
     85 H85       -47.3522  -30.5212    3.8708 H         1 UNK         0.3028 
     86 H86       -49.9860  -29.3901    3.5834 H         1 UNK         0.0864 
     87 H87       -49.3952  -31.8935    3.8693 H         1 UNK         0.0720 
     88 H88       -49.1176  -31.5707    5.5567 H         1 UNK         0.0720 
     89 H89       -50.7297  -32.9279    6.6702 H         1 UNK         0.0814 
     90 H90       -52.4613  -32.7963    6.6158 H         1 UNK         0.0814 
     91 H91       -49.4282  -31.4065    8.1194 H         1 UNK         0.1469 
     92 H92       -51.5902  -28.8453   10.7893 H         1 UNK         0.1381 
     93 H93       -53.6370  -30.8141    7.5715 H         1 UNK         0.1206 
     94 H94       -54.5184  -29.7882   10.4282 H         1 UNK         0.0813 
     95 H95       -54.7985  -29.1709    8.8158 H         1 UNK         0.0813 
     96 H96       -55.9133  -26.0167   10.0005 H         1 UNK         0.0638 
     97 H97       -56.3591  -27.6623    9.7089 H         1 UNK         0.0638 
     98 H98       -57.4294  -26.8035   11.7316 H         1 UNK         0.0568 
     99 H99       -55.7182  -28.1872   14.2406 H         1 UNK         0.3450 
    100 H100      -56.2533  -29.8051   13.9090 H         1 UNK         0.3450 
    101 H101      -54.8806  -26.4303   13.1693 H         1 UNK         0.2987 
    102 H102      -54.3552  -23.7330   12.9345 H         1 UNK         0.0766 
    103 H103      -56.7098  -22.6007   14.5267 H         1 UNK         0.0798 
    104 H104      -55.1099  -21.8668   14.4151 H         1 UNK         0.0798 
    105 H105      -56.1105  -22.0209   12.9817 H         1 UNK         0.0798 
    106 H106      -53.6129  -24.7196   14.7211 H         1 UNK         0.3198 
    107 H107      -53.7533  -24.4704   17.4556 H         1 UNK         0.0843 
    108 H108      -55.6993  -26.7774   17.9826 H         1 UNK         0.0831 
    109 H109      -55.7376  -25.1866   18.7248 H         1 UNK         0.0831 
    110 H110      -54.4021  -26.2737   19.0662 H         1 UNK         0.0831 
    111 H111      -52.3193  -25.9572   16.7025 H         1 UNK         0.3133 
    112 H112      -52.2548  -29.2069   16.2093 H         1 UNK         0.0566 
    113 H113      -51.5453  -29.3427   13.8013 H         1 UNK         0.0814 
    114 H114      -53.2899  -29.3623   13.9724 H         1 UNK         0.0814 
    115 H115      -52.4816  -27.8925   13.4501 H         1 UNK         0.0814 
    116 H116      -50.5694  -27.2355   14.9137 H         1 UNK         0.3091 
    117 H117      -48.9000  -26.1987   17.8819 H         1 UNK         0.0702 
    118 H118      -46.9105  -26.7763   16.4989 H         1 UNK         0.0785 
    119 H119      -47.8995  -27.8199   15.4802 H         1 UNK         0.0785 
    120 H120      -47.6483  -28.2222   17.1716 H         1 UNK         0.0785 
    121 H121      -48.5649  -25.3792   15.1868 H         1 UNK         0.2998 
    122 H122      -51.1615  -22.8765   15.1620 H         1 UNK         0.0697 
    123 H123      -48.1019  -22.7946   14.9921 H         1 UNK         0.0825 
    124 H124      -49.0738  -21.9139   16.1637 H         1 UNK         0.0825 
    125 H125      -49.2150  -21.5398   14.4542 H         1 UNK         0.0825 
    126 H126      -49.4480  -23.7004   13.0717 H         1 UNK         0.3029 
    127 H127      -51.5300  -26.3761   11.8124 H         1 UNK         0.0897 
    128 H128      -50.6945  -23.6375   10.7203 H         1 UNK         0.0792 
    129 H129      -52.3449  -24.2436   10.8192 H         1 UNK         0.0792 
    130 H130      -51.1860  -25.0296    9.7582 H         1 UNK         0.0792 
    131 H131      -48.9905  -25.4953   10.9370 H         1 UNK         0.3086 
    132 H132      -46.9966  -27.4365   13.1543 H         1 UNK         0.0583 
    133 H133      -46.0397  -27.9972   10.7571 H         1 UNK         0.1020 
    134 H134      -46.9533  -29.1293   11.6789 H         1 UNK         0.1020 
    135 H135      -48.4671  -30.7288   10.2959 H         1 UNK         0.0694 
    136 H136      -49.3764  -29.7126   11.3868 H         1 UNK         0.0694 
    137 H137      -46.5204  -25.5741   10.9852 H         1 UNK         0.2989 
    138 H138      -45.9393  -22.8459   13.2360 H         1 UNK         0.1055 
    139 H139      -43.8356  -24.1977   13.2426 H         1 UNK         0.0806 
    140 H140      -43.7415  -22.8749   12.0932 H         1 UNK         0.0806 
    141 H141      -44.0199  -24.5210   11.5243 H         1 UNK         0.0806 
    142 H142      -45.7114  -23.0752   10.3867 H         1 UNK         0.3061 
    143 H143      -49.0488  -22.0198    9.6597 H         1 UNK         0.0734 
    144 H144      -46.3293  -20.6488    9.3255 H         1 UNK         0.0832 
    145 H145      -47.8185  -20.2507    8.4675 H         1 UNK         0.0832 
    146 H146      -47.6997  -19.9745   10.1957 H         1 UNK         0.0832 
    147 H147      -47.2059  -22.5209    7.7353 H         1 UNK         0.3156 
    148 H148      -47.6351  -24.2895    6.3588 H         1 UNK         0.0589 
    149 H149      -45.9828  -26.3089    7.9898 H         1 UNK         0.0808 
    150 H150      -45.8989  -26.0928    6.2423 H         1 UNK         0.0808 
    151 H151      -45.3693  -24.8048    7.3133 H         1 UNK         0.0808 
    152 H152      -48.1675  -27.0325    7.1252 H         1 UNK         0.3098 
    153 H153      -50.4120  -27.7212    7.7698 H         1 UNK         0.0720 
    154 H154      -52.7666  -27.8105    7.0014 H         1 UNK         0.0791 
    155 H155      -52.5200  -26.3872    5.9903 H         1 UNK         0.0791 
    156 H156      -52.4183  -26.2600    7.7422 H         1 UNK         0.0791 
    157 H157      -51.1432  -28.1871    5.0364 H         1 UNK         0.3028 
@<TRIPOS>BOND
     1    1    2 1    
     2    1   82 1    
     3    1   83 1    
     4    1   84 1    
     5    2    3 2    
     6    2    4 am   BACKBONE|DICT|INTERRES
     7    4    5 1    
     8    4   85 1    
     9    5    6 1    
    10    5   80 1    
    11    5   86 1    
    12    6    7 1    
    13    6   87 1    
    14    6   88 1    
    15    7    8 1    
    16    8    9 1    
    17    8   89 1    
    18    8   90 1    
    19    9   10 ar   
    20    9   14 ar   
    21   10   11 ar   
    22   10   91 1    
    23   11   12 ar   
    24   11   58 1    
    25   12   13 ar   
    26   12   92 1    
    27   13   14 ar   
    28   13   15 1    
    29   14   93 1    
    30   15   16 1    
    31   15   94 1    
    32   15   95 1    
    33   16   17 1    
    34   17   18 1    
    35   17   96 1    
    36   17   97 1    
    37   18   19 1    
    38   18   22 1    
    39   18   98 1    
    40   19   20 am   BACKBONE|DICT|INTERRES
    41   19   21 2    
    42   20   99 1    
    43   20  100 1    
    44   22   23 am   BACKBONE|DICT|INTERRES
    45   22  101 1    
    46   23   24 2    
    47   23   25 1    
    48   25   26 1    
    49   25   27 1    
    50   25  102 1    
    51   26  103 1    
    52   26  104 1    
    53   26  105 1    
    54   27   28 am   BACKBONE|DICT|INTERRES
    55   27  106 1    
    56   28   29 2    
    57   28   30 1    
    58   30   31 1    
    59   30   32 1    
    60   30  107 1    
    61   31  108 1    
    62   31  109 1    
    63   31  110 1    
    64   32   33 am   BACKBONE|DICT|INTERRES
    65   32  111 1    
    66   33   34 2    
    67   33   35 1    
    68   35   36 1    
    69   35   37 1    
    70   35  112 1    
    71   36  113 1    
    72   36  114 1    
    73   36  115 1    
    74   37   38 am   BACKBONE|DICT|INTERRES
    75   37  116 1    
    76   38   39 2    
    77   38   40 1    
    78   40   41 1    
    79   40   42 1    
    80   40  117 1    
    81   41  118 1    
    82   41  119 1    
    83   41  120 1    
    84   42   43 am   BACKBONE|DICT|INTERRES
    85   42  121 1    
    86   43   44 2    
    87   43   45 1    
    88   45   46 1    
    89   45   47 1    
    90   45  122 1    
    91   46  123 1    
    92   46  124 1    
    93   46  125 1    
    94   47   48 am   BACKBONE|DICT|INTERRES
    95   47  126 1    
    96   48   49 2    
    97   48   50 1    
    98   50   51 1    
    99   50   52 1    
   100   50  127 1    
   101   51  128 1    
   102   51  129 1    
   103   51  130 1    
   104   52   53 am   BACKBONE|DICT|INTERRES
   105   52  131 1    
   106   53   54 2    
   107   53   55 1    
   108   55   56 1    
   109   55   59 1    
   110   55  132 1    
   111   56   57 1    
   112   56  133 1    
   113   56  134 1    
   114   57   58 1    
   115   58  135 1    
   116   58  136 1    
   117   59   60 am   BACKBONE|DICT|INTERRES
   118   59  137 1    
   119   60   61 2    
   120   60   62 1    
   121   62   63 1    
   122   62   64 1    
   123   62  138 1    
   124   63  139 1    
   125   63  140 1    
   126   63  141 1    
   127   64   65 am   BACKBONE|DICT|INTERRES
   128   64  142 1    
   129   65   66 2    
   130   65   67 1    
   131   67   68 1    
   132   67   69 1    
   133   67  143 1    
   134   68  144 1    
   135   68  145 1    
   136   68  146 1    
   137   69   70 am   BACKBONE|DICT|INTERRES
   138   69  147 1    
   139   70   71 2    
   140   70   72 1    
   141   72   73 1    
   142   72   74 1    
   143   72  148 1    
   144   73  149 1    
   145   73  150 1    
   146   73  151 1    
   147   74   75 am   BACKBONE|DICT|INTERRES
   148   74  152 1    
   149   75   76 2    
   150   75   77 1    
   151   77   78 1    
   152   77   79 1    
   153   77  153 1    
   154   78  154 1    
   155   78  155 1    
   156   78  156 1    
   157   79   80 am   BACKBONE|DICT|INTERRES
   158   79  157 1    
   159   80   81 2    
@<TRIPOS>SUBSTRUCTURE
     1 UNK         1 GROUP             0       ****    0 ROOT    
