@<TRIPOS>MOLECULE
3R207
157   159    1
SMALL
USER_CHARGES


@<TRIPOS>ATOM
      1 CA        -47.6743  -31.0517    2.7165 C.3       0 UNK        -0.1975 
      2 C         -47.6393  -30.1208    3.9197 C.2       0 UNK         0.4852 
      3 O         -46.5552  -29.7224    4.3473 O.2       0 UNK        -0.5216 
      4 N         -48.8169  -29.7792    4.4621 N.am      1 UNK        -0.4461 
      5 CA        -49.0368  -28.8842    5.6050 C.3       1 UNK         0.0864 
      6 C6        -48.4577  -29.4222    6.9474 C.3       14 UNK        -0.0898 
      7 S7        -49.3236  -30.9352    7.4998 S.3       14 UNK        -0.2598 
      8 C8        -49.5658  -30.6371    9.2908 C.3       14 UNK         0.0286 
      9 C9        -50.7935  -29.8011    9.6624 C.ar      14 UNK        -0.0844 
     10 C10       -51.2538  -28.7613    8.8490 C.ar      14 UNK        -0.0881 
     11 C11       -52.3219  -27.9527    9.2405 C.ar      14 UNK        -0.0643 
     12 C12       -52.9665  -28.2117   10.4523 C.ar      14 UNK        -0.0930 
     13 C13       -52.5235  -29.2443   11.2833 C.ar      14 UNK        -0.0827 
     14 C14       -51.4415  -30.0361   10.8812 C.ar      14 UNK        -0.1249 
     15 C15       -53.1816  -29.4622   12.6378 C.3       14 UNK         0.0141 
     16 S16       -54.7097  -30.4336   12.5040 S.3       14 UNK        -0.2313 
     17 C17       -55.3381  -30.3135   14.2153 C.3       14 UNK        -0.0915 
     18 CA        -56.8230  -29.8552   14.3008 C.3       13 UNK         0.0968 
     19 C         -57.3626  -29.9140   15.7554 C.2       13 UNK         0.5732 
     20 N         -57.4233  -31.0999   16.3465 N.am      13 UNK        -0.7310 
     21 O         -57.7367  -28.9070   16.3559 O.2       13 UNK        -0.5035 
     22 N         -57.0323  -28.5196   13.7224 N.am      13 UNK        -0.4233 
     23 C         -57.5664  -28.2723   12.5206 C.2       13 UNK         0.4989 
     24 O         -57.9346  -29.1572   11.7469 O.2       13 UNK        -0.4996 
     25 CA        -57.7233  -26.8017   12.0796 C.3       12 UNK         0.0216 
     26 CB        -59.1246  -26.5503   11.4921 C.3       12 UNK        -0.1964 
     27 N         -57.4874  -25.8102   13.1368 N.am      12 UNK        -0.4276 
     28 C         -56.3252  -25.2836   13.5482 C.2       12 UNK         0.5020 
     29 O         -56.3009  -24.3638   14.3673 O.2       12 UNK        -0.5489 
     30 CA        -54.9890  -25.8070   12.9696 C.3       11 UNK         0.0294 
     31 CB        -54.5907  -24.9793   11.7383 C.3       11 UNK        -0.2019 
     32 N         -53.8875  -25.7540   13.9381 N.am      11 UNK        -0.4493 
     33 C         -53.8978  -26.2868   15.1674 C.2       11 UNK         0.4932 
     34 O         -54.7927  -27.0218   15.5901 O.2       11 UNK        -0.5029 
     35 CA        -52.7074  -25.9083   16.0658 C.3       10 UNK         0.0280 
     36 CB        -52.9795  -26.1674   17.5632 C.3       10 UNK        -0.1976 
     37 N         -51.4546  -26.5387   15.6428 N.am      10 UNK        -0.4242 
     38 C         -51.1601  -27.8477   15.6104 C.2       10 UNK         0.5072 
     39 O         -51.9523  -28.7411   15.9112 O.2       10 UNK        -0.5224 
     40 CA        -49.7321  -28.2465   15.1886 C.3       9 UNK         0.0343 
     41 CB        -49.7538  -29.1447   13.9423 C.3       9 UNK        -0.2003 
     42 N         -48.8515  -27.1032   14.9337 N.am      9 UNK        -0.4272 
     43 C         -48.1846  -26.4260   15.8777 C.2       9 UNK         0.4988 
     44 O         -48.2444  -26.6886   17.0793 O.2       9 UNK        -0.5108 
     45 CA        -47.3058  -25.2541   15.4069 C.3       8 UNK         0.0248 
     46 CB        -45.9558  -25.7716   14.8854 C.3       8 UNK        -0.2001 
     47 N         -47.9371  -24.4070   14.3891 N.am      8 UNK        -0.4140 
     48 C         -49.0433  -23.6741   14.5872 C.2       8 UNK         0.5028 
     49 O         -49.6790  -23.6629   15.6417 O.2       8 UNK        -0.5428 
     50 CA        -49.5424  -22.8272   13.4035 C.3       7 UNK         0.0264 
     51 CB        -48.6413  -21.6036   13.1708 C.3       7 UNK        -0.1988 
     52 N         -49.6549  -23.6055   12.1699 N.am      7 UNK        -0.4454 
     53 C         -50.5231  -24.6129   11.9970 C.2       7 UNK         0.5027 
     54 O         -51.3728  -24.9301   12.8311 O.2       7 UNK        -0.5083 
     55 CA        -50.4107  -25.4179   10.6862 C.3       6 UNK         0.0844 
     56 C56       -51.2067  -24.7082    9.5590 C.3       14 UNK        -0.0967 
     57 S57       -51.3452  -25.6600    8.0106 S.3       14 UNK        -0.2604 
     58 C58       -52.7430  -26.7829    8.3609 C.3       14 UNK         0.0134 
     59 N         -49.0140  -25.7012   10.3290 N.am      6 UNK        -0.4116 
     60 C         -48.1455  -26.3669   11.1072 C.2       5 UNK         0.5034 
     61 O         -48.4423  -26.8798   12.1827 O.2       5 UNK        -0.5045 
     62 CA        -46.6752  -26.4032   10.6663 C.3       5 UNK         0.0224 
     63 CB        -46.4070  -27.5298    9.6568 C.3       5 UNK        -0.1978 
     64 N         -46.2398  -25.1151   10.1272 N.am      5 UNK        -0.4737 
     65 C         -46.0506  -24.0174   10.8728 C.2       4 UNK         0.5027 
     66 O         -46.1667  -23.9968   12.0976 O.2       4 UNK        -0.5211 
     67 CA        -45.7161  -22.7168   10.1232 C.3       4 UNK         0.0297 
     68 CB        -44.2039  -22.6141    9.8705 C.3       4 UNK        -0.1993 
     69 N         -46.4371  -22.5960    8.8534 N.am      4 UNK        -0.4486 
     70 C         -47.7661  -22.4524    8.7514 C.2       3 UNK         0.4961 
     71 O         -48.5188  -22.3460    9.7204 O.2       3 UNK        -0.5105 
     72 CA        -48.3585  -22.4883    7.3295 C.3       3 UNK         0.0299 
     73 CB        -48.3204  -21.0895    6.6946 C.3       3 UNK        -0.1972 
     74 N         -47.7125  -23.4581    6.4318 N.am      3 UNK        -0.4305 
     75 C         -47.6269  -24.7736    6.6741 C.2       2 UNK         0.5006 
     76 O         -48.0197  -25.2971    7.7162 O.2       2 UNK        -0.5106 
     77 CA        -46.9285  -25.6444    5.6178 C.3       2 UNK         0.0296 
     78 CB        -45.4077  -25.6337    5.8447 C.3       2 UNK        -0.2002 
     79 N         -47.4071  -27.0275    5.6903 N.am      2 UNK        -0.4032 
     80 C         -48.6086  -27.4400    5.2633 C.2       1 UNK         0.5000 
     81 O         -49.3797  -26.7300    4.6136 O.2       1 UNK        -0.5238 
     82 H82       -48.6920  -31.3323    2.4459 H         1 UNK         0.0889 
     83 H83       -47.1178  -31.9634    2.9324 H         1 UNK         0.0889 
     84 H84       -47.2152  -30.5679    1.8548 H         1 UNK         0.0889 
     85 H85       -49.6632  -30.1361    4.0408 H         1 UNK         0.3028 
     86 H86       -50.1204  -28.8318    5.7212 H         1 UNK         0.0864 
     87 H87       -47.3935  -29.6464    6.8657 H         1 UNK         0.0720 
     88 H88       -48.5464  -28.6665    7.7283 H         1 UNK         0.0720 
     89 H89       -48.6752  -30.1633    9.7053 H         1 UNK         0.0814 
     90 H90       -49.6396  -31.6135    9.7721 H         1 UNK         0.0814 
     91 H91       -50.7699  -28.5412    7.9133 H         1 UNK         0.1469 
     92 H92       -53.8006  -27.6005   10.7611 H         1 UNK         0.1381 
     93 H93       -51.0879  -30.8234   11.5329 H         1 UNK         0.1206 
     94 H94       -52.5027  -29.9786   13.3161 H         1 UNK         0.0813 
     95 H95       -53.3948  -28.4982   13.0992 H         1 UNK         0.0813 
     96 H96       -54.7046  -29.6395   14.7948 H         1 UNK         0.0638 
     97 H97       -55.2138  -31.2992   14.6661 H         1 UNK         0.0638 
     98 H98       -57.4281  -30.5760   13.7480 H         1 UNK         0.0568 
     99 H99       -57.1315  -31.9382   15.8689 H         1 UNK         0.3450 
    100 H100      -57.7736  -31.1574   17.2899 H         1 UNK         0.3450 
    101 H101      -56.8022  -27.7546   14.3433 H         1 UNK         0.2987 
    102 H102      -57.0067  -26.6420   11.2733 H         1 UNK         0.0766 
    103 H103      -59.2283  -25.5254   11.1351 H         1 UNK         0.0798 
    104 H104      -59.9093  -26.7310   12.2280 H         1 UNK         0.0798 
    105 H105      -59.3211  -27.2032   10.6403 H         1 UNK         0.0798 
    106 H106      -58.3256  -25.4527   13.5722 H         1 UNK         0.3198 
    107 H107      -55.0928  -26.8503   12.6780 H         1 UNK         0.0843 
    108 H108      -53.6774  -25.3664   11.2937 H         1 UNK         0.0831 
    109 H109      -54.4184  -23.9336   11.9968 H         1 UNK         0.0831 
    110 H110      -55.3622  -25.0008   10.9683 H         1 UNK         0.0831 
    111 H111      -53.0587  -25.2386   13.6495 H         1 UNK         0.3133 
    112 H112      -52.5560  -24.8339   15.9489 H         1 UNK         0.0566 
    113 H113      -52.1462  -25.8324   18.1809 H         1 UNK         0.0814 
    114 H114      -53.8676  -25.6274   17.8937 H         1 UNK         0.0814 
    115 H115      -53.1489  -27.2241   17.7723 H         1 UNK         0.0814 
    116 H116      -50.7336  -25.8961   15.3411 H         1 UNK         0.3091 
    117 H117      -49.3106  -28.8313   16.0088 H         1 UNK         0.0702 
    118 H118      -48.7459  -29.4205   13.6317 H         1 UNK         0.0785 
    119 H119      -50.2362  -28.6448   13.1021 H         1 UNK         0.0785 
    120 H120      -50.2950  -30.0710   14.1358 H         1 UNK         0.0785 
    121 H121      -48.7183  -26.8536   13.9536 H         1 UNK         0.2998 
    122 H122      -47.1099  -24.6234   16.2765 H         1 UNK         0.0697 
    123 H123      -46.0786  -26.3887   13.9950 H         1 UNK         0.0825 
    124 H124      -45.4522  -26.3798   15.6380 H         1 UNK         0.0825 
    125 H125      -45.2864  -24.9492   14.6323 H         1 UNK         0.0825 
    126 H126      -47.4538  -24.3334   13.4968 H         1 UNK         0.3029 
    127 H127      -50.5407  -22.4637   13.6576 H         1 UNK         0.0897 
    128 H128      -49.0360  -20.9675   12.3782 H         1 UNK         0.0792 
    129 H129      -48.5721  -20.9938   14.0726 H         1 UNK         0.0792 
    130 H130      -47.6271  -21.8896   12.8922 H         1 UNK         0.0792 
    131 H131      -49.0346  -23.3555   11.4053 H         1 UNK         0.3086 
    132 H132      -50.8770  -26.3819   10.8861 H         1 UNK         0.0583 
    133 H133      -52.2134  -24.4498    9.8862 H         1 UNK         0.1020 
    134 H134      -50.7350  -23.7561    9.3140 H         1 UNK         0.1020 
    135 H135      -53.5628  -26.2209    8.8105 H         1 UNK         0.0694 
    136 H136      -53.1197  -27.1766    7.4161 H         1 UNK         0.0694 
    137 H137      -48.6981  -25.3753    9.4177 H         1 UNK         0.2989 
    138 H138      -46.0776  -26.6132   11.5560 H         1 UNK         0.1055 
    139 H139      -46.7405  -28.4914   10.0490 H         1 UNK         0.0806 
    140 H140      -45.3424  -27.6203    9.4412 H         1 UNK         0.0806 
    141 H141      -46.9236  -27.3646    8.7144 H         1 UNK         0.0806 
    142 H142      -46.2195  -25.0279    9.1211 H         1 UNK         0.3061 
    143 H143      -46.0137  -21.8816   10.7612 H         1 UNK         0.0734 
    144 H144      -43.9417  -21.6615    9.4100 H         1 UNK         0.0832 
    145 H145      -43.6484  -22.6827   10.8070 H         1 UNK         0.0832 
    146 H146      -43.8451  -23.4132    9.2205 H         1 UNK         0.0832 
    147 H147      -45.8956  -22.6708    8.0047 H         1 UNK         0.3156 
    148 H148      -49.4045  -22.7872    7.4232 H         1 UNK         0.0589 
    149 H149      -47.2983  -20.7454    6.5312 H         1 UNK         0.0808 
    150 H150      -48.8384  -21.0741    5.7355 H         1 UNK         0.0808 
    151 H151      -48.8120  -20.3568    7.3366 H         1 UNK         0.0808 
    152 H152      -47.3496  -23.0985    5.5602 H         1 UNK         0.3098 
    153 H153      -47.1464  -25.2452    4.6250 H         1 UNK         0.0720 
    154 H154      -44.8935  -26.2440    5.1017 H         1 UNK         0.0791 
    155 H155      -45.1420  -26.0151    6.8317 H         1 UNK         0.0791 
    156 H156      -45.0042  -24.6234    5.7651 H         1 UNK         0.0791 
    157 H157      -46.8192  -27.6871    6.1772 H         1 UNK         0.3028 
@<TRIPOS>BOND
     1    1    2 1    
     2    1   82 1    
     3    1   83 1    
     4    1   84 1    
     5    2    3 2    
     6    2    4 am   BACKBONE|DICT|INTERRES
     7    4    5 1    
     8    4   85 1    
     9    5    6 1    
    10    5   80 1    
    11    5   86 1    
    12    6    7 1    
    13    6   87 1    
    14    6   88 1    
    15    7    8 1    
    16    8    9 1    
    17    8   89 1    
    18    8   90 1    
    19    9   10 ar   
    20    9   14 ar   
    21   10   11 ar   
    22   10   91 1    
    23   11   12 ar   
    24   11   58 1    
    25   12   13 ar   
    26   12   92 1    
    27   13   14 ar   
    28   13   15 1    
    29   14   93 1    
    30   15   16 1    
    31   15   94 1    
    32   15   95 1    
    33   16   17 1    
    34   17   18 1    
    35   17   96 1    
    36   17   97 1    
    37   18   19 1    
    38   18   22 1    
    39   18   98 1    
    40   19   20 am   BACKBONE|DICT|INTERRES
    41   19   21 2    
    42   20   99 1    
    43   20  100 1    
    44   22   23 am   BACKBONE|DICT|INTERRES
    45   22  101 1    
    46   23   24 2    
    47   23   25 1    
    48   25   26 1    
    49   25   27 1    
    50   25  102 1    
    51   26  103 1    
    52   26  104 1    
    53   26  105 1    
    54   27   28 am   BACKBONE|DICT|INTERRES
    55   27  106 1    
    56   28   29 2    
    57   28   30 1    
    58   30   31 1    
    59   30   32 1    
    60   30  107 1    
    61   31  108 1    
    62   31  109 1    
    63   31  110 1    
    64   32   33 am   BACKBONE|DICT|INTERRES
    65   32  111 1    
    66   33   34 2    
    67   33   35 1    
    68   35   36 1    
    69   35   37 1    
    70   35  112 1    
    71   36  113 1    
    72   36  114 1    
    73   36  115 1    
    74   37   38 am   BACKBONE|DICT|INTERRES
    75   37  116 1    
    76   38   39 2    
    77   38   40 1    
    78   40   41 1    
    79   40   42 1    
    80   40  117 1    
    81   41  118 1    
    82   41  119 1    
    83   41  120 1    
    84   42   43 am   BACKBONE|DICT|INTERRES
    85   42  121 1    
    86   43   44 2    
    87   43   45 1    
    88   45   46 1    
    89   45   47 1    
    90   45  122 1    
    91   46  123 1    
    92   46  124 1    
    93   46  125 1    
    94   47   48 am   BACKBONE|DICT|INTERRES
    95   47  126 1    
    96   48   49 2    
    97   48   50 1    
    98   50   51 1    
    99   50   52 1    
   100   50  127 1    
   101   51  128 1    
   102   51  129 1    
   103   51  130 1    
   104   52   53 am   BACKBONE|DICT|INTERRES
   105   52  131 1    
   106   53   54 2    
   107   53   55 1    
   108   55   56 1    
   109   55   59 1    
   110   55  132 1    
   111   56   57 1    
   112   56  133 1    
   113   56  134 1    
   114   57   58 1    
   115   58  135 1    
   116   58  136 1    
   117   59   60 am   BACKBONE|DICT|INTERRES
   118   59  137 1    
   119   60   61 2    
   120   60   62 1    
   121   62   63 1    
   122   62   64 1    
   123   62  138 1    
   124   63  139 1    
   125   63  140 1    
   126   63  141 1    
   127   64   65 am   BACKBONE|DICT|INTERRES
   128   64  142 1    
   129   65   66 2    
   130   65   67 1    
   131   67   68 1    
   132   67   69 1    
   133   67  143 1    
   134   68  144 1    
   135   68  145 1    
   136   68  146 1    
   137   69   70 am   BACKBONE|DICT|INTERRES
   138   69  147 1    
   139   70   71 2    
   140   70   72 1    
   141   72   73 1    
   142   72   74 1    
   143   72  148 1    
   144   73  149 1    
   145   73  150 1    
   146   73  151 1    
   147   74   75 am   BACKBONE|DICT|INTERRES
   148   74  152 1    
   149   75   76 2    
   150   75   77 1    
   151   77   78 1    
   152   77   79 1    
   153   77  153 1    
   154   78  154 1    
   155   78  155 1    
   156   78  156 1    
   157   79   80 am   BACKBONE|DICT|INTERRES
   158   79  157 1    
   159   80   81 2    
@<TRIPOS>SUBSTRUCTURE
     1 UNK         1 GROUP             0       ****    0 ROOT    
