@<TRIPOS>MOLECULE
3R207
157   159    1
SMALL
USER_CHARGES


@<TRIPOS>ATOM
      1 CA        -44.6796  -30.5407    7.3940 C.3       0 UNK        -0.1975 
      2 C         -45.7464  -30.6321    6.3124 C.2       0 UNK         0.4852 
      3 O         -46.0156  -31.7244    5.8106 O.2       0 UNK        -0.5216 
      4 N         -46.3457  -29.4937    5.9484 N.am      1 UNK        -0.4461 
      5 CA        -47.3898  -29.3797    4.9264 C.3       1 UNK         0.0864 
      6 C6        -48.7601  -29.9829    5.3435 C.3       14 UNK        -0.0898 
      7 S7        -49.3973  -29.3611    6.9372 S.3       14 UNK        -0.2598 
      8 C8        -51.1648  -29.7315    6.7683 C.3       14 UNK         0.0286 
      9 C9        -51.9392  -29.1803    7.9529 C.ar      14 UNK        -0.0844 
     10 C10       -52.5150  -27.9081    7.8831 C.ar      14 UNK        -0.0881 
     11 C11       -53.2383  -27.3961    8.9641 C.ar      14 UNK        -0.0643 
     12 C12       -53.3782  -28.1698   10.1201 C.ar      14 UNK        -0.0930 
     13 C13       -52.7943  -29.4358   10.2078 C.ar      14 UNK        -0.0827 
     14 C14       -52.0779  -29.9392    9.1189 C.ar      14 UNK        -0.1249 
     15 C15       -52.9323  -30.2483   11.4841 C.3       14 UNK         0.0141 
     16 S16       -54.3830  -31.3435   11.4086 S.3       14 UNK        -0.2313 
     17 C17       -55.0506  -31.2007   13.1024 C.3       14 UNK        -0.0915 
     18 CA        -56.3468  -30.3472   13.1533 C.3       13 UNK         0.0968 
     19 C         -57.0121  -30.3993   14.5608 C.2       13 UNK         0.5732 
     20 N         -57.2472  -29.2829   15.2418 N.am      13 UNK        -0.7310 
     21 O         -57.3356  -31.4821   15.0434 O.2       13 UNK        -0.5035 
     22 N         -56.1233  -28.9844   12.6459 N.am      13 UNK        -0.4233 
     23 C         -57.0618  -28.2201   12.0744 C.2       13 UNK         0.4989 
     24 O         -58.2079  -28.6088   11.8412 O.2       13 UNK        -0.4996 
     25 CA        -56.6484  -26.7795   11.6991 C.3       12 UNK         0.0216 
     26 CB        -57.8598  -25.8287   11.5933 C.3       12 UNK        -0.1964 
     27 N         -55.6162  -26.1835   12.5659 N.am      12 UNK        -0.4276 
     28 C         -55.6790  -26.0390   13.8974 C.2       12 UNK         0.5020 
     29 O         -56.5914  -26.4932   14.5960 O.2       12 UNK        -0.5489 
     30 CA        -54.5400  -25.2507   14.5605 C.3       11 UNK         0.0294 
     31 CB        -54.6107  -23.7632   14.1570 C.3       11 UNK        -0.2019 
     32 N         -54.7068  -25.4027   16.0044 N.am      11 UNK        -0.4493 
     33 C         -53.8391  -25.2349   17.0099 C.2       11 UNK         0.4932 
     34 O         -54.1884  -25.4240   18.1752 O.2       11 UNK        -0.5029 
     35 CA        -52.3818  -24.8089   16.7185 C.3       10 UNK         0.0280 
     36 CB        -51.6260  -24.3965   18.0009 C.3       10 UNK        -0.1976 
     37 N         -51.6109  -25.8205   15.9896 N.am      10 UNK        -0.4242 
     38 C         -51.3643  -27.0904   16.3452 C.2       10 UNK         0.5072 
     39 O         -51.8267  -27.6433   17.3438 O.2       10 UNK        -0.5224 
     40 CA        -50.3950  -27.8721   15.4402 C.3       9 UNK         0.0343 
     41 CB        -51.1328  -28.4580   14.2253 C.3       9 UNK        -0.2003 
     42 N         -49.2614  -27.0564   14.9916 N.am      9 UNK        -0.4272 
     43 C         -48.3075  -26.5680   15.8006 C.2       9 UNK         0.4988 
     44 O         -48.2261  -26.8302   17.0013 O.2       9 UNK        -0.5108 
     45 CA        -47.2738  -25.6148   15.1746 C.3       8 UNK         0.0248 
     46 CB        -46.1464  -26.4042   14.4908 C.3       8 UNK        -0.2001 
     47 N         -47.8748  -24.6703   14.2286 N.am      8 UNK        -0.4140 
     48 C         -48.7136  -23.6831   14.5783 C.2       8 UNK         0.5028 
     49 O         -48.9935  -23.4045   15.7437 O.2       8 UNK        -0.5428 
     50 CA        -49.3735  -22.8782   13.4452 C.3       7 UNK         0.0264 
     51 CB        -48.4794  -21.7028   13.0203 C.3       7 UNK        -0.1988 
     52 N         -49.7087  -23.6894   12.2729 N.am      7 UNK        -0.4454 
     53 C         -50.5885  -24.7017   12.2663 C.2       7 UNK         0.5027 
     54 O         -51.2405  -25.0431   13.2537 O.2       7 UNK        -0.5083 
     55 CA        -50.7128  -25.5039   10.9521 C.3       6 UNK         0.0844 
     56 C56       -51.5702  -24.7577    9.9000 C.3       14 UNK        -0.0967 
     57 S57       -53.3582  -24.9127   10.2308 S.3       14 UNK        -0.2604 
     58 C58       -53.8754  -26.0145    8.8739 C.3       14 UNK         0.0134 
     59 N         -49.3963  -25.8771   10.4252 N.am      6 UNK        -0.4116 
     60 C         -48.5052  -26.6429   11.0724 C.2       5 UNK         0.5034 
     61 O         -48.7313  -27.2038   12.1437 O.2       5 UNK        -0.5045 
     62 CA        -47.0985  -26.7395   10.4616 C.3       5 UNK         0.0224 
     63 CB        -47.0079  -27.8839    9.4424 C.3       5 UNK        -0.1978 
     64 N         -46.6896  -25.4769    9.8404 N.am      5 UNK        -0.4737 
     65 C         -46.3365  -24.3861   10.5356 C.2       4 UNK         0.5027 
     66 O         -46.2659  -24.3579   11.7632 O.2       4 UNK        -0.5211 
     67 CA        -46.0589  -23.1022    9.7336 C.3       4 UNK         0.0297 
     68 CB        -44.6063  -23.0838    9.2328 C.3       4 UNK        -0.1993 
     69 N         -46.9717  -22.9279    8.6005 N.am      4 UNK        -0.4486 
     70 C         -48.2962  -22.7505    8.7120 C.2       3 UNK         0.4961 
     71 O         -48.8800  -22.6447    9.7888 O.2       3 UNK        -0.5105 
     72 CA        -49.1209  -22.7445    7.4114 C.3       3 UNK         0.0299 
     73 CB        -49.3081  -21.3066    6.9035 C.3       3 UNK        -0.1972 
     74 N         -48.5577  -23.5754    6.3400 N.am      3 UNK        -0.4305 
     75 C         -48.3174  -24.8906    6.4321 C.2       2 UNK         0.5006 
     76 O         -48.5466  -25.5600    7.4440 O.2       2 UNK        -0.5106 
     77 CA        -47.6544  -25.5463    5.2149 C.3       2 UNK         0.0296 
     78 CB        -46.2179  -25.0195    5.0175 C.3       2 UNK        -0.2002 
     79 N         -47.6255  -26.9915    5.4156 N.am      2 UNK        -0.4032 
     80 C         -47.4878  -27.9177    4.4587 C.2       1 UNK         0.5000 
     81 O         -47.3871  -27.6547    3.2588 O.2       1 UNK        -0.5238 
     82 H82       -45.0162  -31.0526    8.2952 H         1 UNK         0.0889 
     83 H83       -44.4491  -29.5080    7.6549 H         1 UNK         0.0889 
     84 H84       -43.7592  -31.0157    7.0551 H         1 UNK         0.0889 
     85 H85       -46.0452  -28.6203    6.3567 H         1 UNK         0.3028 
     86 H86       -47.0436  -29.9442    4.0574 H         1 UNK         0.0864 
     87 H87       -48.6736  -31.0673    5.4241 H         1 UNK         0.0720 
     88 H88       -49.5008  -29.8062    4.5613 H         1 UNK         0.0720 
     89 H89       -51.3057  -30.8110    6.6940 H         1 UNK         0.0814 
     90 H90       -51.5438  -29.3033    5.8390 H         1 UNK         0.0814 
     91 H91       -52.3992  -27.3181    6.9841 H         1 UNK         0.1469 
     92 H92       -53.9308  -27.7789   10.9596 H         1 UNK         0.1381 
     93 H93       -51.6258  -30.9199    9.1795 H         1 UNK         0.1206 
     94 H94       -52.0359  -30.8463   11.6550 H         1 UNK         0.0813 
     95 H95       -53.0125  -29.5698   12.3327 H         1 UNK         0.0813 
     96 H96       -54.2938  -30.8006   13.7790 H         1 UNK         0.0638 
     97 H97       -55.2525  -32.2160   13.4486 H         1 UNK         0.0638 
     98 H98       -57.0639  -30.8311   12.4873 H         1 UNK         0.0568 
     99 H99       -57.0087  -28.3693   14.8678 H         1 UNK         0.3450 
    100 H100      -57.6847  -29.3488   16.1464 H         1 UNK         0.3450 
    101 H101      -55.2200  -28.5825   12.8355 H         1 UNK         0.2987 
    102 H102      -56.2102  -26.8549   10.7048 H         1 UNK         0.0766 
    103 H103      -58.5774  -26.1831   10.8522 H         1 UNK         0.0798 
    104 H104      -57.5528  -24.8281   11.2887 H         1 UNK         0.0798 
    105 H105      -58.3877  -25.7428   12.5438 H         1 UNK         0.0798 
    106 H106      -54.8317  -25.7662   12.0798 H         1 UNK         0.3198 
    107 H107      -53.5960  -25.6907   14.2405 H         1 UNK         0.0843 
    108 H108      -53.8266  -23.1648   14.6150 H         1 UNK         0.0831 
    109 H109      -55.5677  -23.3194   14.4347 H         1 UNK         0.0831 
    110 H110      -54.4988  -23.6427   13.0788 H         1 UNK         0.0831 
    111 H111      -55.6324  -25.7542   16.2249 H         1 UNK         0.3133 
    112 H112      -52.4111  -23.9287   16.0801 H         1 UNK         0.0566 
    113 H113      -50.6206  -24.0439   17.7731 H         1 UNK         0.0814 
    114 H114      -51.5345  -25.2247   18.7045 H         1 UNK         0.0814 
    115 H115      -52.1438  -23.5865   18.5159 H         1 UNK         0.0814 
    116 H116      -51.2424  -25.5120   15.0924 H         1 UNK         0.3091 
    117 H117      -49.9937  -28.7032   16.0239 H         1 UNK         0.0702 
    118 H118      -51.9576  -29.0959   14.5453 H         1 UNK         0.0785 
    119 H119      -51.5485  -27.6792   13.5857 H         1 UNK         0.0785 
    120 H120      -50.4670  -29.0683   13.6147 H         1 UNK         0.0785 
    121 H121      -49.2062  -26.8587   13.9963 H         1 UNK         0.2998 
    122 H122      -46.8292  -25.0317   15.9839 H         1 UNK         0.0697 
    123 H123      -46.5234  -27.0363   13.6876 H         1 UNK         0.0825 
    124 H124      -45.6410  -27.0556   15.2049 H         1 UNK         0.0825 
    125 H125      -45.3928  -25.7384   14.0696 H         1 UNK         0.0825 
    126 H126      -47.6158  -24.7669   13.2524 H         1 UNK         0.3029 
    127 H127      -50.3079  -22.4708   13.8374 H         1 UNK         0.0897 
    128 H128      -47.5329  -22.0464   12.6025 H         1 UNK         0.0792 
    129 H129      -48.9700  -21.0825   12.2698 H         1 UNK         0.0792 
    130 H130      -48.2475  -21.0611   13.8714 H         1 UNK         0.0792 
    131 H131      -49.2599  -23.4279   11.3962 H         1 UNK         0.3086 
    132 H132      -51.2118  -26.4450   11.1934 H         1 UNK         0.0583 
    133 H133      -51.3155  -23.6978    9.8494 H         1 UNK         0.1020 
    134 H134      -51.3643  -25.1526    8.9036 H         1 UNK         0.1020 
    135 H135      -54.9599  -26.1201    8.8907 H         1 UNK         0.0694 
    136 H136      -53.6346  -25.5352    7.9236 H         1 UNK         0.0694 
    137 H137      -49.1297  -25.4927    9.5269 H         1 UNK         0.2989 
    138 H138      -46.4026  -26.9621   11.2732 H         1 UNK         0.1055 
    139 H139      -47.6748  -27.7233    8.5980 H         1 UNK         0.0806 
    140 H140      -45.9941  -27.9927    9.0583 H         1 UNK         0.0806 
    141 H141      -47.2870  -28.8352    9.8978 H         1 UNK         0.0806 
    142 H142      -46.8044  -25.4030    8.8384 H         1 UNK         0.3061 
    143 H143      -46.1984  -22.2548   10.4084 H         1 UNK         0.0734 
    144 H144      -44.4075  -23.8953    8.5316 H         1 UNK         0.0832 
    145 H145      -44.3691  -22.1430    8.7356 H         1 UNK         0.0832 
    146 H146      -43.9077  -23.1935   10.0636 H         1 UNK         0.0832 
    147 H147      -46.5738  -22.9903    7.6752 H         1 UNK         0.3156 
    148 H148      -50.1059  -23.1497    7.6505 H         1 UNK         0.0589 
    149 H149      -49.9758  -21.2724    6.0425 H         1 UNK         0.0808 
    150 H150      -49.7485  -20.6746    7.6764 H         1 UNK         0.0808 
    151 H151      -48.3597  -20.8525    6.6132 H         1 UNK         0.0808 
    152 H152      -48.3368  -23.1036    5.4744 H         1 UNK         0.3098 
    153 H153      -48.2594  -25.3184    4.3349 H         1 UNK         0.0720 
    154 H154      -46.2053  -23.9429    4.8451 H         1 UNK         0.0791 
    155 H155      -45.7401  -25.4817    4.1534 H         1 UNK         0.0791 
    156 H156      -45.5923  -25.2202    5.8883 H         1 UNK         0.0791 
    157 H157      -47.8432  -27.2799    6.3628 H         1 UNK         0.3028 
@<TRIPOS>BOND
     1    1    2 1    
     2    1   82 1    
     3    1   83 1    
     4    1   84 1    
     5    2    3 2    
     6    2    4 am   BACKBONE|DICT|INTERRES
     7    4    5 1    
     8    4   85 1    
     9    5    6 1    
    10    5   80 1    
    11    5   86 1    
    12    6    7 1    
    13    6   87 1    
    14    6   88 1    
    15    7    8 1    
    16    8    9 1    
    17    8   89 1    
    18    8   90 1    
    19    9   10 ar   
    20    9   14 ar   
    21   10   11 ar   
    22   10   91 1    
    23   11   12 ar   
    24   11   58 1    
    25   12   13 ar   
    26   12   92 1    
    27   13   14 ar   
    28   13   15 1    
    29   14   93 1    
    30   15   16 1    
    31   15   94 1    
    32   15   95 1    
    33   16   17 1    
    34   17   18 1    
    35   17   96 1    
    36   17   97 1    
    37   18   19 1    
    38   18   22 1    
    39   18   98 1    
    40   19   20 am   BACKBONE|DICT|INTERRES
    41   19   21 2    
    42   20   99 1    
    43   20  100 1    
    44   22   23 am   BACKBONE|DICT|INTERRES
    45   22  101 1    
    46   23   24 2    
    47   23   25 1    
    48   25   26 1    
    49   25   27 1    
    50   25  102 1    
    51   26  103 1    
    52   26  104 1    
    53   26  105 1    
    54   27   28 am   BACKBONE|DICT|INTERRES
    55   27  106 1    
    56   28   29 2    
    57   28   30 1    
    58   30   31 1    
    59   30   32 1    
    60   30  107 1    
    61   31  108 1    
    62   31  109 1    
    63   31  110 1    
    64   32   33 am   BACKBONE|DICT|INTERRES
    65   32  111 1    
    66   33   34 2    
    67   33   35 1    
    68   35   36 1    
    69   35   37 1    
    70   35  112 1    
    71   36  113 1    
    72   36  114 1    
    73   36  115 1    
    74   37   38 am   BACKBONE|DICT|INTERRES
    75   37  116 1    
    76   38   39 2    
    77   38   40 1    
    78   40   41 1    
    79   40   42 1    
    80   40  117 1    
    81   41  118 1    
    82   41  119 1    
    83   41  120 1    
    84   42   43 am   BACKBONE|DICT|INTERRES
    85   42  121 1    
    86   43   44 2    
    87   43   45 1    
    88   45   46 1    
    89   45   47 1    
    90   45  122 1    
    91   46  123 1    
    92   46  124 1    
    93   46  125 1    
    94   47   48 am   BACKBONE|DICT|INTERRES
    95   47  126 1    
    96   48   49 2    
    97   48   50 1    
    98   50   51 1    
    99   50   52 1    
   100   50  127 1    
   101   51  128 1    
   102   51  129 1    
   103   51  130 1    
   104   52   53 am   BACKBONE|DICT|INTERRES
   105   52  131 1    
   106   53   54 2    
   107   53   55 1    
   108   55   56 1    
   109   55   59 1    
   110   55  132 1    
   111   56   57 1    
   112   56  133 1    
   113   56  134 1    
   114   57   58 1    
   115   58  135 1    
   116   58  136 1    
   117   59   60 am   BACKBONE|DICT|INTERRES
   118   59  137 1    
   119   60   61 2    
   120   60   62 1    
   121   62   63 1    
   122   62   64 1    
   123   62  138 1    
   124   63  139 1    
   125   63  140 1    
   126   63  141 1    
   127   64   65 am   BACKBONE|DICT|INTERRES
   128   64  142 1    
   129   65   66 2    
   130   65   67 1    
   131   67   68 1    
   132   67   69 1    
   133   67  143 1    
   134   68  144 1    
   135   68  145 1    
   136   68  146 1    
   137   69   70 am   BACKBONE|DICT|INTERRES
   138   69  147 1    
   139   70   71 2    
   140   70   72 1    
   141   72   73 1    
   142   72   74 1    
   143   72  148 1    
   144   73  149 1    
   145   73  150 1    
   146   73  151 1    
   147   74   75 am   BACKBONE|DICT|INTERRES
   148   74  152 1    
   149   75   76 2    
   150   75   77 1    
   151   77   78 1    
   152   77   79 1    
   153   77  153 1    
   154   78  154 1    
   155   78  155 1    
   156   78  156 1    
   157   79   80 am   BACKBONE|DICT|INTERRES
   158   79  157 1    
   159   80   81 2    
@<TRIPOS>SUBSTRUCTURE
     1 UNK         1 GROUP             0       ****    0 ROOT    
