@<TRIPOS>MOLECULE
3R207
157   159    1
SMALL
USER_CHARGES


@<TRIPOS>ATOM
      1 CA        -49.4659  -29.7652    6.8281 C.3       0 UNK        -0.1975 
      2 C         -49.2783  -28.2749    6.5792 C.2       0 UNK         0.4852 
      3 O         -48.1713  -27.8402    6.2524 O.2       0 UNK        -0.5216 
      4 N         -50.3651  -27.5029    6.7150 N.am      1 UNK        -0.4461 
      5 CA        -50.4628  -26.0683    6.4254 C.3       1 UNK         0.0864 
      6 C6        -51.8803  -25.5067    6.7007 C.3       14 UNK        -0.0898 
      7 S7        -53.1959  -26.4210    5.8191 S.3       14 UNK        -0.2598 
      8 C8        -54.3730  -26.8083    7.1568 C.3       14 UNK         0.0286 
      9 C9        -54.0764  -28.1397    7.8370 C.ar      14 UNK        -0.0844 
     10 C10       -52.9682  -28.2780    8.6731 C.ar      14 UNK        -0.0881 
     11 C11       -52.7088  -29.4758    9.3520 C.ar      14 UNK        -0.0643 
     12 C12       -53.5907  -30.5485    9.1750 C.ar      14 UNK        -0.0930 
     13 C13       -54.7014  -30.4303    8.3324 C.ar      14 UNK        -0.0827 
     14 C14       -54.9349  -29.2259    7.6639 C.ar      14 UNK        -0.1249 
     15 C15       -55.6527  -31.5980    8.1225 C.3       14 UNK         0.0141 
     16 S16       -57.2512  -31.3249    8.9523 S.3       14 UNK        -0.2313 
     17 C17       -56.9084  -31.8846   10.6526 C.3       14 UNK        -0.0915 
     18 CA        -57.0544  -30.7587   11.7098 C.3       13 UNK         0.0968 
     19 C         -57.0913  -31.3777   13.1389 C.2       13 UNK         0.5732 
     20 N         -56.0369  -31.2802   13.9399 N.am      13 UNK        -0.7310 
     21 O         -58.1023  -31.9590   13.5263 O.2       13 UNK        -0.5035 
     22 N         -56.0427  -29.7064   11.5263 N.am      13 UNK        -0.4233 
     23 C         -56.0429  -28.5269   12.1594 C.2       13 UNK         0.4989 
     24 O         -56.9651  -28.1170   12.8674 O.2       13 UNK        -0.4996 
     25 CA        -54.7655  -27.6814   12.0159 C.3       12 UNK         0.0216 
     26 CB        -55.0754  -26.2367   11.5893 C.3       12 UNK        -0.1964 
     27 N         -53.9789  -27.6700   13.2539 N.am      12 UNK        -0.4276 
     28 C         -53.4510  -28.7532   13.8445 C.2       12 UNK         0.5020 
     29 O         -53.5767  -29.8953   13.3997 O.2       12 UNK        -0.5489 
     30 CA        -52.6275  -28.5520   15.1267 C.3       11 UNK         0.0294 
     31 CB        -51.2052  -29.1107   14.9415 C.3       11 UNK        -0.2019 
     32 N         -52.5200  -27.1464   15.5199 N.am      11 UNK        -0.4493 
     33 C         -53.0461  -26.5973   16.6214 C.2       11 UNK         0.4932 
     34 O         -53.7909  -27.1925   17.4018 O.2       11 UNK        -0.5029 
     35 CA        -52.6333  -25.1361   16.8931 C.3       10 UNK         0.0280 
     36 CB        -53.0369  -24.6336   18.2954 C.3       10 UNK        -0.1976 
     37 N         -51.2018  -24.9242   16.6387 N.am      10 UNK        -0.4242 
     38 C         -50.1627  -25.5091   17.2572 C.2       10 UNK         0.5072 
     39 O         -50.2654  -26.2310   18.2499 O.2       10 UNK        -0.5224 
     40 CA        -48.7643  -25.2873   16.6474 C.3       9 UNK         0.0343 
     41 CB        -48.3231  -26.5385   15.8699 C.3       9 UNK        -0.2003 
     42 N         -48.6799  -24.1289   15.7550 N.am      9 UNK        -0.4272 
     43 C         -48.7190  -22.8495   16.1539 C.2       9 UNK         0.4988 
     44 O         -48.7886  -22.4969   17.3315 O.2       9 UNK        -0.5108 
     45 CA        -48.7020  -21.7862   15.0452 C.3       8 UNK         0.0248 
     46 CB        -47.2634  -21.5066   14.5813 C.3       8 UNK        -0.2001 
     47 N         -49.5241  -22.1847   13.8999 N.am      8 UNK        -0.4140 
     48 C         -50.8648  -22.1553   13.8856 C.2       8 UNK         0.5028 
     49 O         -51.5523  -21.7403   14.8183 O.2       8 UNK        -0.5428 
     50 CA        -51.5595  -22.7071   12.6289 C.3       7 UNK         0.0264 
     51 CB        -51.6839  -21.6170   11.5525 C.3       7 UNK        -0.1988 
     52 N         -50.8769  -23.8735   12.0647 N.am      7 UNK        -0.4454 
     53 C         -50.8178  -25.0750   12.6571 C.2       7 UNK         0.5027 
     54 O         -51.3594  -25.3367   13.7304 O.2       7 UNK        -0.5083 
     55 CA        -50.0216  -26.1771   11.9344 C.3       6 UNK         0.0844 
     56 C56       -50.9681  -26.9295   10.9783 C.3       14 UNK        -0.0967 
     57 S57       -50.1984  -28.3924   10.2083 S.3       14 UNK        -0.2604 
     58 C58       -51.5223  -29.6522   10.3083 C.3       14 UNK         0.0134 
     59 N         -48.8326  -25.6688   11.2411 N.am      6 UNK        -0.4116 
     60 C         -47.8146  -25.0125   11.8159 C.2       5 UNK         0.5034 
     61 O         -47.7961  -24.6862   13.0054 O.2       5 UNK        -0.5045 
     62 CA        -46.6414  -24.6395   10.8916 C.3       5 UNK         0.0224 
     63 CB        -45.4002  -24.1366   11.6582 C.3       5 UNK        -0.1978 
     64 N         -46.2873  -25.7233    9.9671 N.am      5 UNK        -0.4737 
     65 C         -45.8234  -26.9469   10.2643 C.2       4 UNK         0.5027 
     66 O         -45.5951  -27.3383   11.4088 O.2       4 UNK        -0.5211 
     67 CA        -45.5766  -27.9084    9.0849 C.3       4 UNK         0.0297 
     68 CB        -46.5673  -29.0785    9.1324 C.3       4 UNK        -0.1993 
     69 N         -45.6805  -27.2467    7.7794 N.am      4 UNK        -0.4486 
     70 C         -44.6799  -26.5658    7.2037 C.2       3 UNK         0.4961 
     71 O         -43.5366  -26.5068    7.6570 O.2       3 UNK        -0.5105 
     72 CA        -45.0270  -25.7797    5.9296 C.3       3 UNK         0.0299 
     73 CB        -45.1079  -26.7113    4.7093 C.3       3 UNK        -0.1972 
     74 N         -46.2754  -25.0237    6.0664 N.am      3 UNK        -0.4305 
     75 C         -46.4429  -23.9670    6.8784 C.2       2 UNK         0.5006 
     76 O         -45.5508  -23.5058    7.5890 O.2       2 UNK        -0.5106 
     77 CA        -47.8342  -23.3094    6.9256 C.3       2 UNK         0.0296 
     78 CB        -47.8452  -22.0168    6.0932 C.3       2 UNK        -0.2002 
     79 N         -48.9061  -24.1902    6.4598 N.am      2 UNK        -0.4032 
     80 C         -49.4010  -25.2205    7.1582 C.2       1 UNK         0.5000 
     81 O         -49.0618  -25.4950    8.3145 O.2       1 UNK        -0.5238 
     82 H82       -50.5167  -30.0243    6.9595 H         1 UNK         0.0889 
     83 H83       -48.9314  -30.0766    7.7234 H         1 UNK         0.0889 
     84 H84       -49.0802  -30.3370    5.9848 H         1 UNK         0.0889 
     85 H85       -51.2358  -27.9376    6.9838 H         1 UNK         0.3028 
     86 H86       -50.2722  -25.9763    5.3541 H         1 UNK         0.0864 
     87 H87       -51.9414  -24.4674    6.3719 H         1 UNK         0.0720 
     88 H88       -52.0865  -25.4842    7.7711 H         1 UNK         0.0720 
     89 H89       -55.3759  -26.8252    6.7275 H         1 UNK         0.0814 
     90 H90       -54.3839  -26.0069    7.8970 H         1 UNK         0.0814 
     91 H91       -52.3183  -27.4331    8.7890 H         1 UNK         0.1469 
     92 H92       -53.4093  -31.4800    9.6944 H         1 UNK         0.1381 
     93 H93       -55.7987  -29.1335    7.0193 H         1 UNK         0.1206 
     94 H94       -55.2093  -32.5373    8.4564 H         1 UNK         0.0813 
     95 H95       -55.8338  -31.7167    7.0532 H         1 UNK         0.0813 
     96 H96       -57.6114  -32.6949   10.8557 H         1 UNK         0.0638 
     97 H97       -55.9140  -32.3307   10.7092 H         1 UNK         0.0638 
     98 H98       -58.0295  -30.2900   11.5637 H         1 UNK         0.0568 
     99 H99       -56.0807  -31.6882   14.8594 H         1 UNK         0.3450 
    100 H100      -55.1874  -30.8110   13.6347 H         1 UNK         0.3450 
    101 H101      -55.2407  -29.9618   10.9692 H         1 UNK         0.2987 
    102 H102      -54.1464  -28.1279   11.2396 H         1 UNK         0.0766 
    103 H103      -54.1617  -25.6668   11.4187 H         1 UNK         0.0798 
    104 H104      -55.6652  -25.7101   12.3406 H         1 UNK         0.0798 
    105 H105      -55.6438  -26.2216   10.6583 H         1 UNK         0.0798 
    106 H106      -53.8613  -26.7785   13.7125 H         1 UNK         0.3198 
    107 H107      -53.1210  -29.1278   15.9124 H         1 UNK         0.0843 
    108 H108      -51.2289  -30.1770   14.7127 H         1 UNK         0.0831 
    109 H109      -50.6795  -28.6153   14.1249 H         1 UNK         0.0831 
    110 H110      -50.6107  -28.9890   15.8472 H         1 UNK         0.0831 
    111 H111      -51.9599  -26.5452   14.9158 H         1 UNK         0.3133 
    112 H112      -53.1635  -24.5267   16.1598 H         1 UNK         0.0566 
    113 H113      -52.7298  -23.5991   18.4484 H         1 UNK         0.0814 
    114 H114      -54.1190  -24.6734   18.4261 H         1 UNK         0.0814 
    115 H115      -52.5934  -25.2365   19.0882 H         1 UNK         0.0814 
    116 H116      -50.9926  -24.3951   15.8022 H         1 UNK         0.3091 
    117 H117      -48.0670  -25.1321   17.4732 H         1 UNK         0.0702 
    118 H118      -47.3138  -26.4254   15.4734 H         1 UNK         0.0785 
    119 H119      -48.9894  -26.7450   15.0322 H         1 UNK         0.0785 
    120 H120      -48.3233  -27.4202   16.5122 H         1 UNK         0.0785 
    121 H121      -48.5422  -24.3250   14.7670 H         1 UNK         0.2998 
    122 H122      -49.1103  -20.8614   15.4589 H         1 UNK         0.0697 
    123 H123      -46.7849  -22.4010   14.1819 H         1 UNK         0.0825 
    124 H124      -46.6499  -21.1552   15.4120 H         1 UNK         0.0825 
    125 H125      -47.2357  -20.7363   13.8105 H         1 UNK         0.0825 
    126 H126      -49.0392  -22.5834   13.1091 H         1 UNK         0.3029 
    127 H127      -52.5668  -23.0148   12.9199 H         1 UNK         0.0897 
    128 H128      -50.7084  -21.2800   11.1997 H         1 UNK         0.0792 
    129 H129      -52.2086  -20.7435   11.9424 H         1 UNK         0.0792 
    130 H130      -52.2489  -21.9730   10.6907 H         1 UNK         0.0792 
    131 H131      -50.4169  -23.7516   11.1740 H         1 UNK         0.3086 
    132 H132      -49.6724  -26.8766   12.6954 H         1 UNK         0.0583 
    133 H133      -51.8677  -27.2507   11.5032 H         1 UNK         0.1020 
    134 H134      -51.2917  -26.2450   10.1936 H         1 UNK         0.1020 
    135 H135      -51.0597  -30.6199   10.1090 H         1 UNK         0.0694 
    136 H136      -51.8909  -29.6987   11.3327 H         1 UNK         0.0694 
    137 H137      -48.7861  -25.8571   10.2429 H         1 UNK         0.2989 
    138 H138      -46.9971  -23.8152   10.2718 H         1 UNK         0.1055 
    139 H139      -45.6291  -23.2312   12.2203 H         1 UNK         0.0806 
    140 H140      -44.5854  -23.8944   10.9758 H         1 UNK         0.0806 
    141 H141      -45.0345  -24.8770   12.3704 H         1 UNK         0.0806 
    142 H142      -46.4502  -25.5289    8.9892 H         1 UNK         0.3061 
    143 H143      -44.5701  -28.3162    9.2011 H         1 UNK         0.0734 
    144 H144      -46.4742  -29.6360   10.0653 H         1 UNK         0.0832 
    145 H145      -46.4002  -29.7789    8.3141 H         1 UNK         0.0832 
    146 H146      -47.5925  -28.7197    9.0699 H         1 UNK         0.0832 
    147 H147      -46.5814  -27.2927    7.3077 H         1 UNK         0.3156 
    148 H148      -44.2215  -25.0640    5.7513 H         1 UNK         0.0589 
    149 H149      -45.9120  -27.4416    4.8053 H         1 UNK         0.0808 
    150 H150      -45.2743  -26.1482    3.7908 H         1 UNK         0.0808 
    151 H151      -44.1779  -27.2672    4.5827 H         1 UNK         0.0808 
    152 H152      -47.0669  -25.3593    5.5368 H         1 UNK         0.3098 
    153 H153      -48.0355  -23.0442    7.9658 H         1 UNK         0.0720 
    154 H154      -48.8023  -21.5009    6.1734 H         1 UNK         0.0791 
    155 H155      -47.6552  -22.2128    5.0371 H         1 UNK         0.0791 
    156 H156      -47.0767  -21.3237    6.4388 H         1 UNK         0.0791 
    157 H157      -49.2571  -24.0158    5.5286 H         1 UNK         0.3028 
@<TRIPOS>BOND
     1    1    2 1    
     2    1   82 1    
     3    1   83 1    
     4    1   84 1    
     5    2    3 2    
     6    2    4 am   BACKBONE|DICT|INTERRES
     7    4    5 1    
     8    4   85 1    
     9    5    6 1    
    10    5   80 1    
    11    5   86 1    
    12    6    7 1    
    13    6   87 1    
    14    6   88 1    
    15    7    8 1    
    16    8    9 1    
    17    8   89 1    
    18    8   90 1    
    19    9   10 ar   
    20    9   14 ar   
    21   10   11 ar   
    22   10   91 1    
    23   11   12 ar   
    24   11   58 1    
    25   12   13 ar   
    26   12   92 1    
    27   13   14 ar   
    28   13   15 1    
    29   14   93 1    
    30   15   16 1    
    31   15   94 1    
    32   15   95 1    
    33   16   17 1    
    34   17   18 1    
    35   17   96 1    
    36   17   97 1    
    37   18   19 1    
    38   18   22 1    
    39   18   98 1    
    40   19   20 am   BACKBONE|DICT|INTERRES
    41   19   21 2    
    42   20   99 1    
    43   20  100 1    
    44   22   23 am   BACKBONE|DICT|INTERRES
    45   22  101 1    
    46   23   24 2    
    47   23   25 1    
    48   25   26 1    
    49   25   27 1    
    50   25  102 1    
    51   26  103 1    
    52   26  104 1    
    53   26  105 1    
    54   27   28 am   BACKBONE|DICT|INTERRES
    55   27  106 1    
    56   28   29 2    
    57   28   30 1    
    58   30   31 1    
    59   30   32 1    
    60   30  107 1    
    61   31  108 1    
    62   31  109 1    
    63   31  110 1    
    64   32   33 am   BACKBONE|DICT|INTERRES
    65   32  111 1    
    66   33   34 2    
    67   33   35 1    
    68   35   36 1    
    69   35   37 1    
    70   35  112 1    
    71   36  113 1    
    72   36  114 1    
    73   36  115 1    
    74   37   38 am   BACKBONE|DICT|INTERRES
    75   37  116 1    
    76   38   39 2    
    77   38   40 1    
    78   40   41 1    
    79   40   42 1    
    80   40  117 1    
    81   41  118 1    
    82   41  119 1    
    83   41  120 1    
    84   42   43 am   BACKBONE|DICT|INTERRES
    85   42  121 1    
    86   43   44 2    
    87   43   45 1    
    88   45   46 1    
    89   45   47 1    
    90   45  122 1    
    91   46  123 1    
    92   46  124 1    
    93   46  125 1    
    94   47   48 am   BACKBONE|DICT|INTERRES
    95   47  126 1    
    96   48   49 2    
    97   48   50 1    
    98   50   51 1    
    99   50   52 1    
   100   50  127 1    
   101   51  128 1    
   102   51  129 1    
   103   51  130 1    
   104   52   53 am   BACKBONE|DICT|INTERRES
   105   52  131 1    
   106   53   54 2    
   107   53   55 1    
   108   55   56 1    
   109   55   59 1    
   110   55  132 1    
   111   56   57 1    
   112   56  133 1    
   113   56  134 1    
   114   57   58 1    
   115   58  135 1    
   116   58  136 1    
   117   59   60 am   BACKBONE|DICT|INTERRES
   118   59  137 1    
   119   60   61 2    
   120   60   62 1    
   121   62   63 1    
   122   62   64 1    
   123   62  138 1    
   124   63  139 1    
   125   63  140 1    
   126   63  141 1    
   127   64   65 am   BACKBONE|DICT|INTERRES
   128   64  142 1    
   129   65   66 2    
   130   65   67 1    
   131   67   68 1    
   132   67   69 1    
   133   67  143 1    
   134   68  144 1    
   135   68  145 1    
   136   68  146 1    
   137   69   70 am   BACKBONE|DICT|INTERRES
   138   69  147 1    
   139   70   71 2    
   140   70   72 1    
   141   72   73 1    
   142   72   74 1    
   143   72  148 1    
   144   73  149 1    
   145   73  150 1    
   146   73  151 1    
   147   74   75 am   BACKBONE|DICT|INTERRES
   148   74  152 1    
   149   75   76 2    
   150   75   77 1    
   151   77   78 1    
   152   77   79 1    
   153   77  153 1    
   154   78  154 1    
   155   78  155 1    
   156   78  156 1    
   157   79   80 am   BACKBONE|DICT|INTERRES
   158   79  157 1    
   159   80   81 2    
@<TRIPOS>SUBSTRUCTURE
     1 UNK         1 GROUP             0       ****    0 ROOT    
