@<TRIPOS>MOLECULE
3R207
157   159    1
SMALL
USER_CHARGES


@<TRIPOS>ATOM
      1 CA        -52.6138  -28.5690    2.3358 C.3       0 UNK        -0.1975 
      2 C         -52.2851  -27.7200    3.5543 C.2       0 UNK         0.4852 
      3 O         -52.7060  -26.5650    3.6314 O.2       0 UNK        -0.5216 
      4 N         -51.5165  -28.2701    4.5024 N.am      1 UNK        -0.4461 
      5 CA        -51.0977  -27.6460    5.7661 C.3       1 UNK         0.0864 
      6 C6        -50.7574  -28.7226    6.8310 C.3       14 UNK        -0.0898 
      7 S7        -49.4903  -29.9292    6.2975 S.3       14 UNK        -0.2598 
      8 C8        -50.0120  -31.4239    7.1960 C.3       14 UNK         0.0286 
      9 C9        -49.8972  -31.2493    8.7039 C.ar      14 UNK        -0.0844 
     10 C10       -48.6436  -31.2609    9.3197 C.ar      14 UNK        -0.0881 
     11 C11       -48.5300  -31.1178   10.7057 C.ar      14 UNK        -0.0643 
     12 C12       -49.6840  -30.9433   11.4782 C.ar      14 UNK        -0.0930 
     13 C13       -50.9467  -30.9341   10.8732 C.ar      14 UNK        -0.0827 
     14 C14       -51.0438  -31.0958    9.4868 C.ar      14 UNK        -0.1249 
     15 C15       -52.2114  -30.7900   11.7119 C.3       14 UNK         0.0141 
     16 S16       -53.2317  -29.3885   11.1598 S.3       14 UNK        -0.2313 
     17 C17       -54.7246  -29.6075   12.1797 C.3       14 UNK        -0.0915 
     18 CA        -55.7854  -28.5206   11.8714 C.3       13 UNK         0.0968 
     19 C         -57.1230  -28.8077   12.6071 C.2       13 UNK         0.5732 
     20 N         -57.9218  -29.7321   12.0905 N.am      13 UNK        -0.7310 
     21 O         -57.4331  -28.2342   13.6488 O.2       13 UNK        -0.5035 
     22 N         -55.2549  -27.1752   12.1283 N.am      13 UNK        -0.4233 
     23 C         -55.7884  -26.0379   11.6713 C.2       13 UNK         0.4989 
     24 O         -56.8062  -25.9813   10.9777 O.2       13 UNK        -0.4996 
     25 CA        -55.0164  -24.7565   12.0286 C.3       12 UNK         0.0216 
     26 CB        -55.7140  -23.4600   11.5616 C.3       12 UNK        -0.1964 
     27 N         -54.6636  -24.7036   13.4517 N.am      12 UNK        -0.4276 
     28 C         -55.4951  -24.5701   14.4958 C.2       12 UNK         0.5020 
     29 O         -56.7188  -24.4592   14.3972 O.2       12 UNK        -0.5489 
     30 CA        -54.8308  -24.5139   15.8836 C.3       11 UNK         0.0294 
     31 CB        -55.8396  -24.5642   17.0522 C.3       11 UNK        -0.2019 
     32 N         -53.7636  -25.5063   16.0523 N.am      11 UNK        -0.4493 
     33 C         -53.8833  -26.8419   16.1228 C.2       11 UNK         0.4932 
     34 O         -54.9576  -27.4345   16.0302 O.2       11 UNK        -0.5029 
     35 CA        -52.6016  -27.6758   16.3458 C.3       10 UNK         0.0280 
     36 CB        -52.4815  -28.8013   15.3039 C.3       10 UNK        -0.1976 
     37 N         -51.3685  -26.8847   16.3363 N.am      10 UNK        -0.4242 
     38 C         -50.9216  -26.1262   17.3469 C.2       10 UNK         0.5072 
     39 O         -51.4599  -26.0717   18.4529 O.2       10 UNK        -0.5224 
     40 CA        -49.6994  -25.2344   17.0590 C.3       9 UNK         0.0343 
     41 CB        -48.3969  -25.9861   17.3739 C.3       9 UNK        -0.2003 
     42 N         -49.6600  -24.7267   15.6817 N.am      9 UNK        -0.4272 
     43 C         -50.5890  -23.9266   15.1344 C.2       9 UNK         0.4988 
     44 O         -51.5621  -23.4913   15.7498 O.2       9 UNK        -0.5108 
     45 CA        -50.4525  -23.6126   13.6346 C.3       8 UNK         0.0248 
     46 CB        -49.3722  -22.5489   13.3842 C.3       8 UNK        -0.2001 
     47 N         -50.1685  -24.8092   12.8407 N.am      8 UNK        -0.4140 
     48 C         -50.9860  -25.8662   12.7331 C.2       8 UNK         0.5028 
     49 O         -52.1160  -25.9121   13.2206 O.2       8 UNK        -0.5428 
     50 CA        -50.4272  -27.0997   12.0109 C.3       7 UNK         0.0264 
     51 CB        -50.5828  -26.9819   10.4883 C.3       7 UNK        -0.1988 
     52 N         -49.0265  -27.3460   12.3519 N.am      7 UNK        -0.4454 
     53 C         -48.6132  -27.7902   13.5469 C.2       7 UNK         0.5027 
     54 O         -49.3781  -28.0691   14.4694 O.2       7 UNK        -0.5083 
     55 CA        -47.0922  -27.9050   13.7725 C.3       6 UNK         0.0844 
     56 C56       -46.5463  -29.2960   13.3724 C.3       14 UNK        -0.0967 
     57 S57       -46.4024  -29.5566   11.5665 S.3       14 UNK        -0.2604 
     58 C58       -47.1581  -31.1991   11.3577 C.3       14 UNK         0.0134 
     59 N         -46.3475  -26.8112   13.1460 N.am      6 UNK        -0.4116 
     60 C         -46.4155  -25.5289   13.5249 C.2       5 UNK         0.5034 
     61 O         -47.0780  -25.1297   14.4814 O.2       5 UNK        -0.5045 
     62 CA        -45.6559  -24.5125   12.6570 C.3       5 UNK         0.0224 
     63 CB        -44.1861  -24.4181   13.0957 C.3       5 UNK        -0.1978 
     64 N         -45.7256  -24.7961   11.2179 N.am      5 UNK        -0.4737 
     65 C         -46.8620  -24.8564   10.5111 C.2       4 UNK         0.5027 
     66 O         -47.9832  -24.7511   11.0123 O.2       4 UNK        -0.5211 
     67 CA        -46.7210  -25.1287    9.0041 C.3       4 UNK         0.0297 
     68 CB        -46.7561  -26.6434    8.7400 C.3       4 UNK        -0.1993 
     69 N         -47.7741  -24.4781    8.2181 N.am      4 UNK        -0.4486 
     70 C         -47.9810  -23.1521    8.1571 C.2       3 UNK         0.4961 
     71 O         -47.2467  -22.3234    8.6997 O.2       3 UNK        -0.5105 
     72 CA        -49.2122  -22.6709    7.3568 C.3       3 UNK         0.0299 
     73 CB        -49.1488  -21.1714    6.9936 C.3       3 UNK        -0.1972 
     74 N         -49.4892  -23.4846    6.1672 N.am      3 UNK        -0.4305 
     75 C         -48.6696  -23.7099    5.1281 C.2       2 UNK         0.5006 
     76 O         -47.5779  -23.1561    4.9844 O.2       2 UNK        -0.5106 
     77 CA        -49.1450  -24.7345    4.0740 C.3       2 UNK         0.0296 
     78 CB        -47.9613  -25.4546    3.3934 C.3       2 UNK        -0.2002 
     79 N         -50.1146  -25.7300    4.5594 N.am      2 UNK        -0.4032 
     80 C         -49.9838  -26.5809    5.5898 C.2       1 UNK         0.5000 
     81 O         -49.0462  -26.5288    6.3881 O.2       1 UNK        -0.5238 
     82 H82       -53.6930  -28.6847    2.2403 H         1 UNK         0.0889 
     83 H83       -52.1705  -29.5625    2.4000 H         1 UNK         0.0889 
     84 H84       -52.2409  -28.0884    1.4318 H         1 UNK         0.0889 
     85 H85       -51.1618  -29.2067    4.3661 H         1 UNK         0.3028 
     86 H86       -51.9564  -27.0926    6.1525 H         1 UNK         0.0864 
     87 H87       -51.6690  -29.2656    7.0846 H         1 UNK         0.0720 
     88 H88       -50.4275  -28.2624    7.7621 H         1 UNK         0.0720 
     89 H89       -49.3871  -32.2610    6.8814 H         1 UNK         0.0814 
     90 H90       -51.0326  -31.6827    6.9095 H         1 UNK         0.0814 
     91 H91       -47.7548  -31.3889    8.7169 H         1 UNK         0.1469 
     92 H92       -49.5975  -30.8310   12.5503 H         1 UNK         0.1381 
     93 H93       -52.0181  -31.0965    9.0175 H         1 UNK         0.1206 
     94 H94       -51.9665  -30.6551   12.7665 H         1 UNK         0.0813 
     95 H95       -52.7904  -31.7114   11.6381 H         1 UNK         0.0813 
     96 H96       -54.4470  -29.5872   13.2339 H         1 UNK         0.0638 
     97 H97       -55.1238  -30.6038   11.9811 H         1 UNK         0.0638 
     98 H98       -56.0040  -28.5694   10.8025 H         1 UNK         0.0568 
     99 H99       -58.7897  -29.9436   12.5573 H         1 UNK         0.3450 
    100 H100      -57.6785  -30.2181   11.2415 H         1 UNK         0.3450 
    101 H101      -54.4247  -27.1255   12.7006 H         1 UNK         0.2987 
    102 H102      -54.0692  -24.8203   11.4904 H         1 UNK         0.0766 
    103 H103      -55.1279  -22.5785   11.8212 H         1 UNK         0.0798 
    104 H104      -56.7050  -23.3469   12.0018 H         1 UNK         0.0798 
    105 H105      -55.8411  -23.4568   10.4784 H         1 UNK         0.0798 
    106 H106      -53.6823  -24.8965   13.6447 H         1 UNK         0.3198 
    107 H107      -54.3381  -23.5415   15.9319 H         1 UNK         0.0843 
    108 H108      -56.4347  -25.4777   17.0375 H         1 UNK         0.0831 
    109 H109      -56.5358  -23.7262   17.0007 H         1 UNK         0.0831 
    110 H110      -55.3345  -24.5061   18.0162 H         1 UNK         0.0831 
    111 H111      -52.8306  -25.1118   16.1011 H         1 UNK         0.3133 
    112 H112      -52.6968  -28.1435   17.3276 H         1 UNK         0.0566 
    113 H113      -51.5880  -29.4034   15.4691 H         1 UNK         0.0814 
    114 H114      -53.3359  -29.4766   15.3577 H         1 UNK         0.0814 
    115 H115      -52.4365  -28.4066   14.2891 H         1 UNK         0.0814 
    116 H116      -50.8208  -26.9223   15.4834 H         1 UNK         0.3091 
    117 H117      -49.7613  -24.3701   17.7234 H         1 UNK         0.0702 
    118 H118      -47.5266  -25.3415   17.2491 H         1 UNK         0.0785 
    119 H119      -48.2667  -26.8541   16.7275 H         1 UNK         0.0785 
    120 H120      -48.3910  -26.3427   18.4048 H         1 UNK         0.0785 
    121 H121      -48.8517  -24.9922   15.1240 H         1 UNK         0.2998 
    122 H122      -51.4081  -23.2114   13.2906 H         1 UNK         0.0697 
    123 H123      -48.3884  -22.8835   13.7122 H         1 UNK         0.0825 
    124 H124      -49.5999  -21.6285   13.9234 H         1 UNK         0.0825 
    125 H125      -49.3018  -22.2972   12.3256 H         1 UNK         0.0825 
    126 H126      -49.2833  -24.8328   12.3372 H         1 UNK         0.3029 
    127 H127      -51.0045  -27.9632   12.3436 H         1 UNK         0.0897 
    128 H128      -50.0175  -26.1460   10.0762 H         1 UNK         0.0792 
    129 H129      -51.6285  -26.8379   10.2138 H         1 UNK         0.0792 
    130 H130      -50.2424  -27.8952   10.0010 H         1 UNK         0.0792 
    131 H131      -48.3363  -27.0989   11.6578 H         1 UNK         0.3086 
    132 H132      -46.9392  -27.8084   14.8496 H         1 UNK         0.0583 
    133 H133      -45.5499  -29.4241   13.7985 H         1 UNK         0.1020 
    134 H134      -47.1535  -30.0792   13.8298 H         1 UNK         0.1020 
    135 H135      -46.4925  -31.8015   10.7376 H         1 UNK         0.0694 
    136 H136      -47.2243  -31.7283   12.3088 H         1 UNK         0.0694 
    137 H137      -45.7904  -27.0534   12.3397 H         1 UNK         0.2989 
    138 H138      -46.1231  -23.5388   12.8199 H         1 UNK         0.1055 
    139 H139      -44.1109  -24.1917   14.1604 H         1 UNK         0.0806 
    140 H140      -43.6624  -23.6249   12.5617 H         1 UNK         0.0806 
    141 H141      -43.6492  -25.3517   12.9225 H         1 UNK         0.0806 
    142 H142      -44.8453  -24.9043   10.7336 H         1 UNK         0.3061 
    143 H143      -45.7619  -24.7330    8.6643 H         1 UNK         0.0734 
    144 H144      -47.7134  -27.0823    9.0254 H         1 UNK         0.0832 
    145 H145      -46.5929  -26.8653    7.6851 H         1 UNK         0.0832 
    146 H146      -45.9788  -27.1628    9.3019 H         1 UNK         0.0832 
    147 H147      -48.3890  -25.0958    7.6972 H         1 UNK         0.3156 
    148 H148      -50.0670  -22.8086    8.0205 H         1 UNK         0.0589 
    149 H149      -48.2791  -20.9401    6.3778 H         1 UNK         0.0808 
    150 H150      -50.0390  -20.8562    6.4494 H         1 UNK         0.0808 
    151 H151      -49.0843  -20.5540    7.8904 H         1 UNK         0.0808 
    152 H152      -50.3626  -23.9916    6.1801 H         1 UNK         0.3098 
    153 H153      -49.6640  -24.1553    3.3091 H         1 UNK         0.0720 
    154 H154      -48.3067  -26.1523    2.6306 H         1 UNK         0.0791 
    155 H155      -47.3654  -26.0150    4.1150 H         1 UNK         0.0791 
    156 H156      -47.2956  -24.7448    2.9007 H         1 UNK         0.0791 
    157 H157      -50.9678  -25.8220    4.0132 H         1 UNK         0.3028 
@<TRIPOS>BOND
     1    1    2 1    
     2    1   82 1    
     3    1   83 1    
     4    1   84 1    
     5    2    3 2    
     6    2    4 am   BACKBONE|DICT|INTERRES
     7    4    5 1    
     8    4   85 1    
     9    5    6 1    
    10    5   80 1    
    11    5   86 1    
    12    6    7 1    
    13    6   87 1    
    14    6   88 1    
    15    7    8 1    
    16    8    9 1    
    17    8   89 1    
    18    8   90 1    
    19    9   10 ar   
    20    9   14 ar   
    21   10   11 ar   
    22   10   91 1    
    23   11   12 ar   
    24   11   58 1    
    25   12   13 ar   
    26   12   92 1    
    27   13   14 ar   
    28   13   15 1    
    29   14   93 1    
    30   15   16 1    
    31   15   94 1    
    32   15   95 1    
    33   16   17 1    
    34   17   18 1    
    35   17   96 1    
    36   17   97 1    
    37   18   19 1    
    38   18   22 1    
    39   18   98 1    
    40   19   20 am   BACKBONE|DICT|INTERRES
    41   19   21 2    
    42   20   99 1    
    43   20  100 1    
    44   22   23 am   BACKBONE|DICT|INTERRES
    45   22  101 1    
    46   23   24 2    
    47   23   25 1    
    48   25   26 1    
    49   25   27 1    
    50   25  102 1    
    51   26  103 1    
    52   26  104 1    
    53   26  105 1    
    54   27   28 am   BACKBONE|DICT|INTERRES
    55   27  106 1    
    56   28   29 2    
    57   28   30 1    
    58   30   31 1    
    59   30   32 1    
    60   30  107 1    
    61   31  108 1    
    62   31  109 1    
    63   31  110 1    
    64   32   33 am   BACKBONE|DICT|INTERRES
    65   32  111 1    
    66   33   34 2    
    67   33   35 1    
    68   35   36 1    
    69   35   37 1    
    70   35  112 1    
    71   36  113 1    
    72   36  114 1    
    73   36  115 1    
    74   37   38 am   BACKBONE|DICT|INTERRES
    75   37  116 1    
    76   38   39 2    
    77   38   40 1    
    78   40   41 1    
    79   40   42 1    
    80   40  117 1    
    81   41  118 1    
    82   41  119 1    
    83   41  120 1    
    84   42   43 am   BACKBONE|DICT|INTERRES
    85   42  121 1    
    86   43   44 2    
    87   43   45 1    
    88   45   46 1    
    89   45   47 1    
    90   45  122 1    
    91   46  123 1    
    92   46  124 1    
    93   46  125 1    
    94   47   48 am   BACKBONE|DICT|INTERRES
    95   47  126 1    
    96   48   49 2    
    97   48   50 1    
    98   50   51 1    
    99   50   52 1    
   100   50  127 1    
   101   51  128 1    
   102   51  129 1    
   103   51  130 1    
   104   52   53 am   BACKBONE|DICT|INTERRES
   105   52  131 1    
   106   53   54 2    
   107   53   55 1    
   108   55   56 1    
   109   55   59 1    
   110   55  132 1    
   111   56   57 1    
   112   56  133 1    
   113   56  134 1    
   114   57   58 1    
   115   58  135 1    
   116   58  136 1    
   117   59   60 am   BACKBONE|DICT|INTERRES
   118   59  137 1    
   119   60   61 2    
   120   60   62 1    
   121   62   63 1    
   122   62   64 1    
   123   62  138 1    
   124   63  139 1    
   125   63  140 1    
   126   63  141 1    
   127   64   65 am   BACKBONE|DICT|INTERRES
   128   64  142 1    
   129   65   66 2    
   130   65   67 1    
   131   67   68 1    
   132   67   69 1    
   133   67  143 1    
   134   68  144 1    
   135   68  145 1    
   136   68  146 1    
   137   69   70 am   BACKBONE|DICT|INTERRES
   138   69  147 1    
   139   70   71 2    
   140   70   72 1    
   141   72   73 1    
   142   72   74 1    
   143   72  148 1    
   144   73  149 1    
   145   73  150 1    
   146   73  151 1    
   147   74   75 am   BACKBONE|DICT|INTERRES
   148   74  152 1    
   149   75   76 2    
   150   75   77 1    
   151   77   78 1    
   152   77   79 1    
   153   77  153 1    
   154   78  154 1    
   155   78  155 1    
   156   78  156 1    
   157   79   80 am   BACKBONE|DICT|INTERRES
   158   79  157 1    
   159   80   81 2    
@<TRIPOS>SUBSTRUCTURE
     1 UNK         1 GROUP             0       ****    0 ROOT    
