@<TRIPOS>MOLECULE
3R207
157   159    1
SMALL
USER_CHARGES


@<TRIPOS>ATOM
      1 CA        -49.8290  -30.2238    0.9015 C.3       0 UNK        -0.1975 
      2 C         -49.8395  -29.9378    2.3960 C.2       0 UNK         0.4852 
      3 O         -50.7995  -30.2934    3.0805 O.2       0 UNK        -0.5216 
      4 N         -48.7822  -29.2979    2.9051 N.am      1 UNK        -0.4461 
      5 CA        -48.6163  -28.8994    4.3007 C.3       1 UNK         0.0864 
      6 C6        -48.1961  -30.0925    5.2030 C.3       14 UNK        -0.0898 
      7 S7        -48.6833  -29.8451    6.9400 S.3       14 UNK        -0.2598 
      8 C8        -50.4047  -30.4352    6.9057 C.3       14 UNK         0.0286 
      9 C9        -51.2653  -29.6607    7.8915 C.ar      14 UNK        -0.0844 
     10 C10       -51.6137  -28.3377    7.6126 C.ar      14 UNK        -0.0881 
     11 C11       -52.4034  -27.6054    8.5015 C.ar      14 UNK        -0.0643 
     12 C12       -52.8581  -28.2140    9.6752 C.ar      14 UNK        -0.0930 
     13 C13       -52.5525  -29.5556    9.9530 C.ar      14 UNK        -0.0827 
     14 C14       -51.7369  -30.2627    9.0616 C.ar      14 UNK        -0.1249 
     15 C15       -53.0932  -30.2834   11.1872 C.3       14 UNK         0.0141 
     16 S16       -54.6646  -29.6062   11.8254 S.3       14 UNK        -0.2313 
     17 C17       -55.3105  -30.9760   12.8499 C.3       14 UNK        -0.0915 
     18 CA        -55.3655  -30.6807   14.3766 C.3       13 UNK         0.0968 
     19 C         -54.0566  -31.0652   15.1277 C.2       13 UNK         0.5732 
     20 N         -53.4538  -30.1932   15.9264 N.am      13 UNK        -0.7310 
     21 O         -53.5909  -32.1956   15.0052 O.2       13 UNK        -0.5035 
     22 N         -55.8741  -29.3281   14.6452 N.am      13 UNK        -0.4233 
     23 C         -56.5144  -28.9306   15.7492 C.2       13 UNK         0.4989 
     24 O         -56.7957  -29.6839   16.6827 O.2       13 UNK        -0.4996 
     25 CA        -56.9085  -27.4448   15.8170 C.3       12 UNK         0.0216 
     26 CB        -56.8805  -26.9067   17.2601 C.3       12 UNK        -0.1964 
     27 N         -56.0196  -26.6183   14.9959 N.am      12 UNK        -0.4276 
     28 C         -56.3965  -25.7981   14.0041 C.2       12 UNK         0.5020 
     29 O         -57.5540  -25.7286   13.5869 O.2       12 UNK        -0.5489 
     30 CA        -55.3040  -24.9001   13.3711 C.3       11 UNK         0.0294 
     31 CB        -55.8707  -23.5743   12.8231 C.3       11 UNK        -0.2019 
     32 N         -54.1599  -24.6405   14.2562 N.am      11 UNK        -0.4493 
     33 C         -54.1859  -24.1317   15.4996 C.2       11 UNK         0.4932 
     34 O         -55.1852  -23.6263   16.0129 O.2       11 UNK        -0.5029 
     35 CA        -52.8910  -24.2638   16.3285 C.3       10 UNK         0.0280 
     36 CB        -53.1761  -24.4046   17.8382 C.3       10 UNK        -0.1976 
     37 N         -52.0055  -25.3479   15.8792 N.am      10 UNK        -0.4242 
     38 C         -52.2886  -26.6568   15.7620 C.2       10 UNK         0.5072 
     39 O         -53.3839  -27.1480   16.0473 O.2       10 UNK        -0.5224 
     40 CA        -51.2076  -27.5758   15.1600 C.3       9 UNK         0.0343 
     41 CB        -51.6803  -28.1240   13.8035 C.3       9 UNK        -0.2003 
     42 N         -49.9114  -26.9261   14.9638 N.am      9 UNK        -0.4272 
     43 C         -49.0383  -26.6177   15.9312 C.2       9 UNK         0.4988 
     44 O         -49.1844  -26.9277   17.1137 O.2       9 UNK        -0.5108 
     45 CA        -47.8195  -25.7760   15.5109 C.3       8 UNK         0.0248 
     46 CB        -46.6903  -26.6803   14.9928 C.3       8 UNK        -0.2001 
     47 N         -48.1445  -24.7562   14.5043 N.am      8 UNK        -0.4140 
     48 C         -49.0096  -23.7483   14.6990 C.2       8 UNK         0.5028 
     49 O         -49.5899  -23.5456   15.7650 O.2       8 UNK        -0.5428 
     50 CA        -49.3288  -22.8433   13.4993 C.3       7 UNK         0.0264 
     51 CB        -48.1996  -21.8295   13.2576 C.3       7 UNK        -0.1988 
     52 N         -49.5923  -23.5991   12.2743 N.am      7 UNK        -0.4454 
     53 C         -50.6260  -24.4363   12.0920 C.2       7 UNK         0.5027 
     54 O         -51.5136  -24.6292   12.9247 O.2       7 UNK        -0.5083 
     55 CA        -50.6596  -25.2089   10.7574 C.3       6 UNK         0.0844 
     56 C56       -51.2816  -24.3143    9.6571 C.3       14 UNK        -0.0967 
     57 S57       -51.3567  -25.0815    8.0075 S.3       14 UNK        -0.2604 
     58 C58       -52.8028  -26.1770    8.1561 C.3       14 UNK         0.0134 
     59 N         -49.3398  -25.7514   10.4085 N.am      6 UNK        -0.4116 
     60 C         -48.6527  -26.6177   11.1711 C.2       5 UNK         0.5034 
     61 O         -49.0812  -27.1039   12.2161 O.2       5 UNK        -0.5045 
     62 CA        -47.2129  -26.9404   10.7495 C.3       5 UNK         0.0224 
     63 CB        -47.1750  -28.0421    9.6813 C.3       5 UNK        -0.1978 
     64 N         -46.5101  -25.7463   10.2793 N.am      5 UNK        -0.4737 
     65 C         -46.1082  -24.7531   11.0855 C.2       4 UNK         0.5027 
     66 O         -46.2410  -24.7724   12.3084 O.2       4 UNK        -0.5211 
     67 CA        -45.4935  -23.5126   10.4157 C.3       4 UNK         0.0297 
     68 CB        -43.9853  -23.7102   10.1981 C.3       4 UNK        -0.1993 
     69 N         -46.1343  -23.1802    9.1417 N.am      4 UNK        -0.4486 
     70 C         -47.4128  -22.7984    9.0107 C.2       3 UNK         0.4961 
     71 O         -48.1752  -22.6200    9.9601 O.2       3 UNK        -0.5105 
     72 CA        -47.9440  -22.6428    7.5749 C.3       3 UNK         0.0299 
     73 CB        -47.7135  -21.2109    7.0674 C.3       3 UNK        -0.1972 
     74 N         -47.3658  -23.6041    6.6261 N.am      3 UNK        -0.4305 
     75 C         -47.4858  -24.9345    6.7306 C.2       2 UNK         0.5006 
     76 O         -48.0621  -25.5006    7.6610 O.2       2 UNK        -0.5106 
     77 CA        -46.8029  -25.7813    5.6553 C.3       2 UNK         0.0296 
     78 CB        -45.3760  -26.1629    6.0910 C.3       2 UNK        -0.2002 
     79 N         -47.6048  -26.9833    5.4497 N.am      2 UNK        -0.4032 
     80 C         -47.6176  -27.7272    4.3392 C.2       1 UNK         0.5000 
     81 O         -46.8906  -27.5134    3.3625 O.2       1 UNK        -0.5238 
     82 H82       -50.6818  -29.7443    0.4217 H         1 UNK         0.0889 
     83 H83       -49.8968  -31.2969    0.7248 H         1 UNK         0.0889 
     84 H84       -48.9205  -29.8582    0.4231 H         1 UNK         0.0889 
     85 H85       -48.0306  -28.9736    2.3069 H         1 UNK         0.3028 
     86 H86       -49.5787  -28.5070    4.6373 H         1 UNK         0.0864 
     87 H87       -47.1196  -30.2676    5.1537 H         1 UNK         0.0720 
     88 H88       -48.6575  -31.0204    4.8611 H         1 UNK         0.0720 
     89 H89       -50.8251  -30.3181    5.9057 H         1 UNK         0.0814 
     90 H90       -50.4221  -31.5043    7.1224 H         1 UNK         0.0814 
     91 H91       -51.2640  -27.8715    6.7017 H         1 UNK         0.1469 
     92 H92       -53.4733  -27.6430   10.3555 H         1 UNK         0.1381 
     93 H93       -51.4823  -31.2930    9.2704 H         1 UNK         0.1206 
     94 H94       -53.2528  -31.3325   10.9337 H         1 UNK         0.0813 
     95 H95       -52.3421  -30.2673   11.9763 H         1 UNK         0.0813 
     96 H96       -54.7671  -31.8982   12.6379 H         1 UNK         0.0638 
     97 H97       -56.3261  -31.1634   12.4985 H         1 UNK         0.0638 
     98 H98       -56.1042  -31.3728   14.7853 H         1 UNK         0.0568 
     99 H99       -52.6244  -30.4821   16.4181 H         1 UNK         0.3450 
    100 H100      -53.7978  -29.2479   16.0298 H         1 UNK         0.3450 
    101 H101      -55.6819  -28.6460   13.9266 H         1 UNK         0.2987 
    102 H102      -57.9342  -27.3810   15.4491 H         1 UNK         0.0766 
    103 H103      -57.5820  -27.4455   17.8982 H         1 UNK         0.0798 
    104 H104      -57.1575  -25.8526   17.2938 H         1 UNK         0.0798 
    105 H105      -55.8887  -27.0043   17.7039 H         1 UNK         0.0798 
    106 H106      -55.0395  -26.6359   15.2739 H         1 UNK         0.3198 
    107 H107      -54.9074  -25.4646   12.5257 H         1 UNK         0.0843 
    108 H108      -56.3380  -22.9805   13.6092 H         1 UNK         0.0831 
    109 H109      -56.6277  -23.7560   12.0593 H         1 UNK         0.0831 
    110 H110      -55.0891  -22.9688   12.3641 H         1 UNK         0.0831 
    111 H111      -53.2536  -24.9351   13.9014 H         1 UNK         0.3133 
    112 H112      -52.3380  -23.3362   16.1765 H         1 UNK         0.0566 
    113 H113      -53.7831  -25.2848   18.0531 H         1 UNK         0.0814 
    114 H114      -53.7145  -23.5364   18.2203 H         1 UNK         0.0814 
    115 H115      -52.2514  -24.4867   18.4094 H         1 UNK         0.0814 
    116 H116      -51.0823  -25.0395   15.5956 H         1 UNK         0.3091 
    117 H117      -51.0745  -28.4139   15.8462 H         1 UNK         0.0702 
    118 H118      -50.9784  -28.8604   13.4126 H         1 UNK         0.0785 
    119 H119      -51.7814  -27.3342   13.0595 H         1 UNK         0.0785 
    120 H120      -52.6510  -28.6100   13.8835 H         1 UNK         0.0785 
    121 H121      -49.6649  -26.7065   14.0017 H         1 UNK         0.2998 
    122 H122      -47.4570  -25.2548   16.3992 H         1 UNK         0.0697 
    123 H123      -45.7951  -26.1035   14.7596 H         1 UNK         0.0825 
    124 H124      -46.9861  -27.2180   14.0918 H         1 UNK         0.0825 
    125 H125      -46.4114  -27.4241   15.7404 H         1 UNK         0.0825 
    126 H126      -47.6577  -24.8227   13.6134 H         1 UNK         0.3029 
    127 H127      -50.2367  -22.2861   13.7408 H         1 UNK         0.0897 
    128 H128      -47.2628  -22.3204   12.9942 H         1 UNK         0.0792 
    129 H129      -48.0149  -21.2313   14.1509 H         1 UNK         0.0792 
    130 H130      -48.4523  -21.1399   12.4518 H         1 UNK         0.0792 
    131 H131      -48.9513  -23.4447   11.4991 H         1 UNK         0.3086 
    132 H132      -51.3194  -26.0659   10.9019 H         1 UNK         0.0583 
    133 H133      -52.2894  -24.0051    9.9419 H         1 UNK         0.1020 
    134 H134      -50.7113  -23.3898    9.5515 H         1 UNK         0.1020 
    135 H135      -53.5080  -25.7751    8.8849 H         1 UNK         0.0694 
    136 H136      -53.3280  -26.1866    7.2001 H         1 UNK         0.0694 
    137 H137      -48.9360  -25.4461    9.5289 H         1 UNK         0.2989 
    138 H138      -46.6880  -27.3157   11.6308 H         1 UNK         0.1055 
    139 H139      -47.6440  -28.9554   10.0500 H         1 UNK         0.0806 
    140 H140      -46.1523  -28.2924    9.4000 H         1 UNK         0.0806 
    141 H141      -47.7102  -27.7515    8.7791 H         1 UNK         0.0806 
    142 H142      -46.4482  -25.6208    9.2783 H         1 UNK         0.3061 
    143 H143      -45.6339  -22.6667   11.0919 H         1 UNK         0.0734 
    144 H144      -43.7781  -24.5315    9.5108 H         1 UNK         0.0832 
    145 H145      -43.5199  -22.8095    9.7975 H         1 UNK         0.0832 
    146 H146      -43.4842  -23.9398   11.1396 H         1 UNK         0.0832 
    147 H147      -45.5814  -23.2935    8.3049 H         1 UNK         0.3156 
    148 H148      -49.0207  -22.8227    7.6061 H         1 UNK         0.0589 
    149 H149      -48.1732  -21.0565    6.0910 H         1 UNK         0.0808 
    150 H150      -46.6517  -20.9766    6.9811 H         1 UNK         0.0808 
    151 H151      -48.1537  -20.4812    7.7487 H         1 UNK         0.0808 
    152 H152      -46.8653  -23.2189    5.8374 H         1 UNK         0.3098 
    153 H153      -46.7655  -25.2083    4.7262 H         1 UNK         0.0720 
    154 H154      -44.7678  -25.2756    6.2705 H         1 UNK         0.0791 
    155 H155      -44.8705  -26.7495    5.3237 H         1 UNK         0.0791 
    156 H156      -45.3803  -26.7508    7.0101 H         1 UNK         0.0791 
    157 H157      -48.2274  -27.2043    6.2184 H         1 UNK         0.3028 
@<TRIPOS>BOND
     1    1    2 1    
     2    1   82 1    
     3    1   83 1    
     4    1   84 1    
     5    2    3 2    
     6    2    4 am   BACKBONE|DICT|INTERRES
     7    4    5 1    
     8    4   85 1    
     9    5    6 1    
    10    5   80 1    
    11    5   86 1    
    12    6    7 1    
    13    6   87 1    
    14    6   88 1    
    15    7    8 1    
    16    8    9 1    
    17    8   89 1    
    18    8   90 1    
    19    9   10 ar   
    20    9   14 ar   
    21   10   11 ar   
    22   10   91 1    
    23   11   12 ar   
    24   11   58 1    
    25   12   13 ar   
    26   12   92 1    
    27   13   14 ar   
    28   13   15 1    
    29   14   93 1    
    30   15   16 1    
    31   15   94 1    
    32   15   95 1    
    33   16   17 1    
    34   17   18 1    
    35   17   96 1    
    36   17   97 1    
    37   18   19 1    
    38   18   22 1    
    39   18   98 1    
    40   19   20 am   BACKBONE|DICT|INTERRES
    41   19   21 2    
    42   20   99 1    
    43   20  100 1    
    44   22   23 am   BACKBONE|DICT|INTERRES
    45   22  101 1    
    46   23   24 2    
    47   23   25 1    
    48   25   26 1    
    49   25   27 1    
    50   25  102 1    
    51   26  103 1    
    52   26  104 1    
    53   26  105 1    
    54   27   28 am   BACKBONE|DICT|INTERRES
    55   27  106 1    
    56   28   29 2    
    57   28   30 1    
    58   30   31 1    
    59   30   32 1    
    60   30  107 1    
    61   31  108 1    
    62   31  109 1    
    63   31  110 1    
    64   32   33 am   BACKBONE|DICT|INTERRES
    65   32  111 1    
    66   33   34 2    
    67   33   35 1    
    68   35   36 1    
    69   35   37 1    
    70   35  112 1    
    71   36  113 1    
    72   36  114 1    
    73   36  115 1    
    74   37   38 am   BACKBONE|DICT|INTERRES
    75   37  116 1    
    76   38   39 2    
    77   38   40 1    
    78   40   41 1    
    79   40   42 1    
    80   40  117 1    
    81   41  118 1    
    82   41  119 1    
    83   41  120 1    
    84   42   43 am   BACKBONE|DICT|INTERRES
    85   42  121 1    
    86   43   44 2    
    87   43   45 1    
    88   45   46 1    
    89   45   47 1    
    90   45  122 1    
    91   46  123 1    
    92   46  124 1    
    93   46  125 1    
    94   47   48 am   BACKBONE|DICT|INTERRES
    95   47  126 1    
    96   48   49 2    
    97   48   50 1    
    98   50   51 1    
    99   50   52 1    
   100   50  127 1    
   101   51  128 1    
   102   51  129 1    
   103   51  130 1    
   104   52   53 am   BACKBONE|DICT|INTERRES
   105   52  131 1    
   106   53   54 2    
   107   53   55 1    
   108   55   56 1    
   109   55   59 1    
   110   55  132 1    
   111   56   57 1    
   112   56  133 1    
   113   56  134 1    
   114   57   58 1    
   115   58  135 1    
   116   58  136 1    
   117   59   60 am   BACKBONE|DICT|INTERRES
   118   59  137 1    
   119   60   61 2    
   120   60   62 1    
   121   62   63 1    
   122   62   64 1    
   123   62  138 1    
   124   63  139 1    
   125   63  140 1    
   126   63  141 1    
   127   64   65 am   BACKBONE|DICT|INTERRES
   128   64  142 1    
   129   65   66 2    
   130   65   67 1    
   131   67   68 1    
   132   67   69 1    
   133   67  143 1    
   134   68  144 1    
   135   68  145 1    
   136   68  146 1    
   137   69   70 am   BACKBONE|DICT|INTERRES
   138   69  147 1    
   139   70   71 2    
   140   70   72 1    
   141   72   73 1    
   142   72   74 1    
   143   72  148 1    
   144   73  149 1    
   145   73  150 1    
   146   73  151 1    
   147   74   75 am   BACKBONE|DICT|INTERRES
   148   74  152 1    
   149   75   76 2    
   150   75   77 1    
   151   77   78 1    
   152   77   79 1    
   153   77  153 1    
   154   78  154 1    
   155   78  155 1    
   156   78  156 1    
   157   79   80 am   BACKBONE|DICT|INTERRES
   158   79  157 1    
   159   80   81 2    
@<TRIPOS>SUBSTRUCTURE
     1 UNK         1 GROUP             0       ****    0 ROOT    
