@<TRIPOS>MOLECULE
3R207
157   159    1
SMALL
USER_CHARGES


@<TRIPOS>ATOM
      1 CA        -46.0055  -31.1374    4.6512 C.3       0 UNK        -0.1975 
      2 C         -46.9100  -30.0617    4.0685 C.2       0 UNK         0.4852 
      3 O         -46.7608  -29.7035    2.8997 O.2       0 UNK        -0.5216 
      4 N         -47.8467  -29.5450    4.8753 N.am      1 UNK        -0.4461 
      5 CA        -48.8127  -28.5076    4.4872 C.3       1 UNK         0.0864 
      6 C6        -49.9360  -28.3381    5.5387 C.3       14 UNK        -0.0898 
      7 S7        -50.8702  -29.8642    5.8963 S.3       14 UNK        -0.2598 
      8 C8        -50.4986  -30.1260    7.6679 C.3       14 UNK         0.0286 
      9 C9        -51.3287  -29.2897    8.6476 C.ar      14 UNK        -0.0844 
     10 C10       -51.7635  -27.9905    8.3518 C.ar      14 UNK        -0.0881 
     11 C11       -52.4752  -27.2346    9.2873 C.ar      14 UNK        -0.0643 
     12 C12       -52.7690  -27.7910   10.5332 C.ar      14 UNK        -0.0930 
     13 C13       -52.3618  -29.0912   10.8400 C.ar      14 UNK        -0.0827 
     14 C14       -51.6365  -29.8299    9.9009 C.ar      14 UNK        -0.1249 
     15 C15       -52.7120  -29.6902   12.1898 C.3       14 UNK         0.0141 
     16 S16       -54.4068  -30.3482   12.1931 S.3       14 UNK        -0.2313 
     17 C17       -54.6223  -30.6755   13.9723 C.3       14 UNK        -0.0915 
     18 CA        -56.1033  -30.5953   14.4259 C.3       13 UNK         0.0968 
     19 C         -56.2471  -31.0975   15.8933 C.2       13 UNK         0.5732 
     20 N         -56.5975  -30.2541   16.8577 N.am      13 UNK        -0.7310 
     21 O         -56.0430  -32.2797   16.1594 O.2       13 UNK        -0.5035 
     22 N         -56.7022  -29.2700   14.1730 N.am      13 UNK        -0.4233 
     23 C         -58.0263  -29.0483   14.1385 C.2       13 UNK         0.4989 
     24 O         -58.8632  -29.9478   14.2325 O.2       13 UNK        -0.4996 
     25 CA        -58.5329  -27.5976   14.0106 C.3       12 UNK         0.0216 
     26 CB        -59.1531  -27.1297   15.3387 C.3       12 UNK        -0.1964 
     27 N         -57.5037  -26.6384   13.6124 N.am      12 UNK        -0.4276 
     28 C         -57.0405  -26.4769   12.3667 C.2       12 UNK         0.5020 
     29 O         -57.4829  -27.0806   11.3890 O.2       12 UNK        -0.5489 
     30 CA        -55.8815  -25.4769   12.1768 C.3       11 UNK         0.0294 
     31 CB        -56.3979  -24.1569   11.5821 C.3       11 UNK        -0.2019 
     32 N         -55.1035  -25.1873   13.3918 N.am      11 UNK        -0.4493 
     33 C         -54.4216  -26.0978   14.0979 C.2       11 UNK         0.4932 
     34 O         -54.4283  -27.3036   13.8454 O.2       11 UNK        -0.5029 
     35 CA        -53.6456  -25.6014   15.3180 C.3       10 UNK         0.0280 
     36 CB        -54.5348  -25.6146   16.5748 C.3       10 UNK        -0.1976 
     37 N         -52.5116  -26.5005   15.4863 N.am      10 UNK        -0.4242 
     38 C         -51.3773  -26.2394   16.1408 C.2       10 UNK         0.5072 
     39 O         -51.1933  -25.2155   16.8016 O.2       10 UNK        -0.5224 
     40 CA        -50.2611  -27.2981   16.0574 C.3       9 UNK         0.0343 
     41 CB        -50.5990  -28.5179   15.1746 C.3       9 UNK        -0.2003 
     42 N         -49.0492  -26.6691   15.5382 N.am      9 UNK        -0.4272 
     43 C         -48.0345  -26.2220   16.2883 C.2       9 UNK         0.4988 
     44 O         -47.9547  -26.3724   17.5088 O.2       9 UNK        -0.5108 
     45 CA        -46.9067  -25.4849   15.5495 C.3       8 UNK         0.0248 
     46 CB        -45.9462  -26.4909   14.8943 C.3       8 UNK        -0.2001 
     47 N         -47.4036  -24.5398   14.5447 N.am      8 UNK        -0.4140 
     48 C         -48.0576  -23.4033   14.8308 C.2       8 UNK         0.5028 
     49 O         -48.2771  -23.0094   15.9769 O.2       8 UNK        -0.5428 
     50 CA        -48.5325  -22.5433   13.6466 C.3       7 UNK         0.0264 
     51 CB        -47.3885  -21.6591   13.1251 C.3       7 UNK        -0.1988 
     52 N         -49.0794  -23.3327   12.5429 N.am      7 UNK        -0.4454 
     53 C         -50.2448  -23.9970   12.5786 C.2       7 UNK         0.5027 
     54 O         -51.0199  -23.9776   13.5333 O.2       7 UNK        -0.5083 
     55 CA        -50.6025  -24.8279   11.3302 C.3       6 UNK         0.0844 
     56 C56       -51.3190  -23.9355   10.2835 C.3       14 UNK        -0.0967 
     57 S57       -51.5469  -24.7015    8.6425 S.3       14 UNK        -0.2604 
     58 C58       -52.9455  -25.8319    8.9269 C.3       14 UNK         0.0134 
     59 N         -49.4302  -25.5199   10.7924 N.am      6 UNK        -0.4116 
     60 C         -48.7333  -26.4682   11.4329 C.2       5 UNK         0.5034 
     61 O         -49.0010  -26.8866   12.5600 O.2       5 UNK        -0.5045 
     62 CA        -47.4829  -26.9865   10.7082 C.3       5 UNK         0.0224 
     63 CB        -47.8674  -28.0087    9.6259 C.3       5 UNK        -0.1978 
     64 N         -46.7076  -25.8908   10.1156 N.am      5 UNK        -0.4737 
     65 C         -46.0531  -24.9682   10.8398 C.2       4 UNK         0.5027 
     66 O         -46.0015  -24.9835   12.0676 O.2       4 UNK        -0.5211 
     67 CA        -45.3794  -23.8062   10.0886 C.3       4 UNK         0.0297 
     68 CB        -43.9354  -24.1764    9.7163 C.3       4 UNK        -0.1993 
     69 N         -46.1005  -23.3932    8.8852 N.am      4 UNK        -0.4486 
     70 C         -47.3696  -22.9627    8.8470 C.2       3 UNK         0.4961 
     71 O         -48.0567  -22.7696    9.8504 O.2       3 UNK        -0.5105 
     72 CA        -47.9931  -22.7647    7.4516 C.3       3 UNK         0.0299 
     73 CB        -47.9826  -21.2770    7.0680 C.3       3 UNK        -0.1972 
     74 N         -47.3537  -23.5506    6.3841 N.am      3 UNK        -0.4305 
     75 C         -47.2650  -24.8882    6.3662 C.2       2 UNK         0.5006 
     76 O         -47.6810  -25.6134    7.2740 O.2       2 UNK        -0.5106 
     77 CA        -46.5222  -25.5195    5.1782 C.3       2 UNK         0.0296 
     78 CB        -45.0172  -25.6136    5.4797 C.3       2 UNK        -0.2002 
     79 N         -47.0463  -26.8641    4.9505 N.am      2 UNK        -0.4032 
     80 C         -48.1624  -27.1266    4.2580 C.2       1 UNK         0.5000 
     81 O         -48.7129  -26.3140    3.5119 O.2       1 UNK        -0.5238 
     82 H82       -44.9649  -30.8169    4.6070 H         1 UNK         0.0889 
     83 H83       -46.1028  -32.0593    4.0785 H         1 UNK         0.0889 
     84 H84       -46.2488  -31.3573    5.6906 H         1 UNK         0.0889 
     85 H85       -47.9434  -29.9022    5.8146 H         1 UNK         0.3028 
     86 H86       -49.2685  -28.8125    3.5426 H         1 UNK         0.0864 
     87 H87       -50.6600  -27.5959    5.1955 H         1 UNK         0.0720 
     88 H88       -49.5168  -27.9437    6.4670 H         1 UNK         0.0720 
     89 H89       -49.4395  -29.9435    7.8516 H         1 UNK         0.0814 
     90 H90       -50.6605  -31.1852    7.8741 H         1 UNK         0.0814 
     91 H91       -51.5548  -27.5409    7.3952 H         1 UNK         0.1469 
     92 H92       -53.3250  -27.2239   11.2654 H         1 UNK         0.1381 
     93 H93       -51.3129  -30.8318   10.1486 H         1 UNK         0.1206 
     94 H94       -52.0116  -30.4831   12.4565 H         1 UNK         0.0813 
     95 H95       -52.6173  -28.9224   12.9553 H         1 UNK         0.0813 
     96 H96       -54.0200  -29.9717   14.5494 H         1 UNK         0.0638 
     97 H97       -54.2088  -31.6664   14.1696 H         1 UNK         0.0638 
     98 H98       -56.6566  -31.3153   13.8198 H         1 UNK         0.0568 
     99 H99       -56.7649  -29.2833   16.6530 H         1 UNK         0.3450 
    100 H100      -56.6908  -30.5963   17.8009 H         1 UNK         0.3450 
    101 H101      -56.0499  -28.5026   14.0520 H         1 UNK         0.2987 
    102 H102      -59.3180  -27.5971   13.2512 H         1 UNK         0.0766 
    103 H103      -59.9525  -27.8010   15.6563 H         1 UNK         0.0798 
    104 H104      -59.5898  -26.1352   15.2442 H         1 UNK         0.0798 
    105 H105      -58.4163  -27.0985   16.1424 H         1 UNK         0.0798 
    106 H106      -57.0813  -26.0890   14.3460 H         1 UNK         0.3198 
    107 H107      -55.2024  -25.9279   11.4530 H         1 UNK         0.0843 
    108 H108      -57.0638  -23.6364   12.2715 H         1 UNK         0.0831 
    109 H109      -56.9571  -24.3352   10.6623 H         1 UNK         0.0831 
    110 H110      -55.5769  -23.4845   11.3321 H         1 UNK         0.0831 
    111 H111      -55.0597  -24.2196   13.6800 H         1 UNK         0.3133 
    112 H112      -53.2807  -24.5904   15.1249 H         1 UNK         0.0566 
    113 H113      -54.9131  -26.6149   16.7900 H         1 UNK         0.0814 
    114 H114      -55.3957  -24.9560   16.4544 H         1 UNK         0.0814 
    115 H115      -53.9873  -25.2699   17.4521 H         1 UNK         0.0814 
    116 H116      -52.5962  -27.3563   14.9523 H         1 UNK         0.3091 
    117 H117      -50.0949  -27.6620   17.0733 H         1 UNK         0.0702 
    118 H118      -49.7861  -29.2441   15.1919 H         1 UNK         0.0785 
    119 H119      -50.7531  -28.2319   14.1341 H         1 UNK         0.0785 
    120 H120      -51.4922  -29.0364   15.5257 H         1 UNK         0.0785 
    121 H121      -49.0215  -26.5137   14.5347 H         1 UNK         0.2998 
    122 H122      -46.3421  -24.9163   16.2914 H         1 UNK         0.0697 
    123 H123      -45.0798  -25.9879   14.4645 H         1 UNK         0.0825 
    124 H124      -46.4340  -27.0550   14.0981 H         1 UNK         0.0825 
    125 H125      -45.5731  -27.2099   15.6248 H         1 UNK         0.0825 
    126 H126      -47.1784  -24.7491   13.5754 H         1 UNK         0.3029 
    127 H127      -49.3266  -21.8885   14.0125 H         1 UNK         0.0897 
    128 H128      -46.5544  -22.2559   12.7556 H         1 UNK         0.0792 
    129 H129      -47.0028  -21.0147   13.9162 H         1 UNK         0.0792 
    130 H130      -47.7233  -21.0130   12.3132 H         1 UNK         0.0792 
    131 H131      -48.5489  -23.3392   11.6757 H         1 UNK         0.3086 
    132 H132      -51.3047  -25.5999   11.6496 H         1 UNK         0.0583 
    133 H133      -52.2913  -23.6155   10.6633 H         1 UNK         0.1020 
    134 H134      -50.7535  -23.0163   10.1162 H         1 UNK         0.1020 
    135 H135      -53.6056  -25.4238    9.6928 H         1 UNK         0.0694 
    136 H136      -53.5383  -25.8877    8.0129 H         1 UNK         0.0694 
    137 H137      -49.1283  -25.2332    9.8722 H         1 UNK         0.2989 
    138 H138      -46.8538  -27.4886   11.4468 H         1 UNK         0.1055 
    139 H139      -46.9873  -28.4001    9.1159 H         1 UNK         0.0806 
    140 H140      -48.5277  -27.5756    8.8736 H         1 UNK         0.0806 
    141 H141      -48.3941  -28.8569   10.0657 H         1 UNK         0.0806 
    142 H142      -46.7690  -25.7805    9.1084 H         1 UNK         0.3061 
    143 H143      -45.3501  -22.9488   10.7635 H         1 UNK         0.0734 
    144 H144      -43.8991  -25.0127    9.0167 H         1 UNK         0.0832 
    145 H145      -43.4123  -23.3342    9.2632 H         1 UNK         0.0832 
    146 H146      -43.3686  -24.4683   10.6017 H         1 UNK         0.0832 
    147 H147      -45.6197  -23.5107    8.0062 H         1 UNK         0.3156 
    148 H148      -49.0328  -23.0920    7.5180 H         1 UNK         0.0589 
    149 H149      -48.5134  -21.1035    6.1318 H         1 UNK         0.0808 
    150 H150      -46.9670  -20.8949    6.9566 H         1 UNK         0.0808 
    151 H151      -48.4752  -20.6741    7.8326 H         1 UNK         0.0808 
    152 H152      -46.9716  -23.0286    5.6079 H         1 UNK         0.3098 
    153 H153      -46.6714  -24.9065    4.2866 H         1 UNK         0.0720 
    154 H154      -44.5817  -24.6235    5.6198 H         1 UNK         0.0791 
    155 H155      -44.4793  -26.0882    4.6587 H         1 UNK         0.0791 
    156 H156      -44.8193  -26.1889    6.3855 H         1 UNK         0.0791 
    157 H157      -46.6995  -27.5858    5.5647 H         1 UNK         0.3028 
@<TRIPOS>BOND
     1    1    2 1    
     2    1   82 1    
     3    1   83 1    
     4    1   84 1    
     5    2    3 2    
     6    2    4 am   BACKBONE|DICT|INTERRES
     7    4    5 1    
     8    4   85 1    
     9    5    6 1    
    10    5   80 1    
    11    5   86 1    
    12    6    7 1    
    13    6   87 1    
    14    6   88 1    
    15    7    8 1    
    16    8    9 1    
    17    8   89 1    
    18    8   90 1    
    19    9   10 ar   
    20    9   14 ar   
    21   10   11 ar   
    22   10   91 1    
    23   11   12 ar   
    24   11   58 1    
    25   12   13 ar   
    26   12   92 1    
    27   13   14 ar   
    28   13   15 1    
    29   14   93 1    
    30   15   16 1    
    31   15   94 1    
    32   15   95 1    
    33   16   17 1    
    34   17   18 1    
    35   17   96 1    
    36   17   97 1    
    37   18   19 1    
    38   18   22 1    
    39   18   98 1    
    40   19   20 am   BACKBONE|DICT|INTERRES
    41   19   21 2    
    42   20   99 1    
    43   20  100 1    
    44   22   23 am   BACKBONE|DICT|INTERRES
    45   22  101 1    
    46   23   24 2    
    47   23   25 1    
    48   25   26 1    
    49   25   27 1    
    50   25  102 1    
    51   26  103 1    
    52   26  104 1    
    53   26  105 1    
    54   27   28 am   BACKBONE|DICT|INTERRES
    55   27  106 1    
    56   28   29 2    
    57   28   30 1    
    58   30   31 1    
    59   30   32 1    
    60   30  107 1    
    61   31  108 1    
    62   31  109 1    
    63   31  110 1    
    64   32   33 am   BACKBONE|DICT|INTERRES
    65   32  111 1    
    66   33   34 2    
    67   33   35 1    
    68   35   36 1    
    69   35   37 1    
    70   35  112 1    
    71   36  113 1    
    72   36  114 1    
    73   36  115 1    
    74   37   38 am   BACKBONE|DICT|INTERRES
    75   37  116 1    
    76   38   39 2    
    77   38   40 1    
    78   40   41 1    
    79   40   42 1    
    80   40  117 1    
    81   41  118 1    
    82   41  119 1    
    83   41  120 1    
    84   42   43 am   BACKBONE|DICT|INTERRES
    85   42  121 1    
    86   43   44 2    
    87   43   45 1    
    88   45   46 1    
    89   45   47 1    
    90   45  122 1    
    91   46  123 1    
    92   46  124 1    
    93   46  125 1    
    94   47   48 am   BACKBONE|DICT|INTERRES
    95   47  126 1    
    96   48   49 2    
    97   48   50 1    
    98   50   51 1    
    99   50   52 1    
   100   50  127 1    
   101   51  128 1    
   102   51  129 1    
   103   51  130 1    
   104   52   53 am   BACKBONE|DICT|INTERRES
   105   52  131 1    
   106   53   54 2    
   107   53   55 1    
   108   55   56 1    
   109   55   59 1    
   110   55  132 1    
   111   56   57 1    
   112   56  133 1    
   113   56  134 1    
   114   57   58 1    
   115   58  135 1    
   116   58  136 1    
   117   59   60 am   BACKBONE|DICT|INTERRES
   118   59  137 1    
   119   60   61 2    
   120   60   62 1    
   121   62   63 1    
   122   62   64 1    
   123   62  138 1    
   124   63  139 1    
   125   63  140 1    
   126   63  141 1    
   127   64   65 am   BACKBONE|DICT|INTERRES
   128   64  142 1    
   129   65   66 2    
   130   65   67 1    
   131   67   68 1    
   132   67   69 1    
   133   67  143 1    
   134   68  144 1    
   135   68  145 1    
   136   68  146 1    
   137   69   70 am   BACKBONE|DICT|INTERRES
   138   69  147 1    
   139   70   71 2    
   140   70   72 1    
   141   72   73 1    
   142   72   74 1    
   143   72  148 1    
   144   73  149 1    
   145   73  150 1    
   146   73  151 1    
   147   74   75 am   BACKBONE|DICT|INTERRES
   148   74  152 1    
   149   75   76 2    
   150   75   77 1    
   151   77   78 1    
   152   77   79 1    
   153   77  153 1    
   154   78  154 1    
   155   78  155 1    
   156   78  156 1    
   157   79   80 am   BACKBONE|DICT|INTERRES
   158   79  157 1    
   159   80   81 2    
@<TRIPOS>SUBSTRUCTURE
     1 UNK         1 GROUP             0       ****    0 ROOT    
