@<TRIPOS>MOLECULE
3R207
157   159    1
SMALL
USER_CHARGES


@<TRIPOS>ATOM
      1 CA        -48.3753  -30.0849    4.2455 C.3       0 UNK        -0.1975 
      2 C         -48.9798  -28.7940    3.7147 C.2       0 UNK         0.4852 
      3 O         -48.6829  -28.3900    2.5901 O.2       0 UNK        -0.5216 
      4 N         -49.8042  -28.1208    4.5267 N.am      1 UNK        -0.4461 
      5 CA        -50.5100  -26.8648    4.2289 C.3       1 UNK         0.0864 
      6 C6        -51.7833  -26.7273    5.1105 C.3       14 UNK        -0.0898 
      7 S7        -51.4600  -26.8747    6.9057 S.3       14 UNK        -0.2598 
      8 C8        -52.0596  -28.5561    7.2518 C.3       14 UNK         0.0286 
      9 C9        -51.6190  -29.0382    8.6269 C.ar      14 UNK        -0.0844 
     10 C10       -50.3020  -29.4609    8.8344 C.ar      14 UNK        -0.0881 
     11 C11       -49.9010  -29.9621   10.0767 C.ar      14 UNK        -0.0643 
     12 C12       -50.8311  -30.0399   11.1176 C.ar      14 UNK        -0.0930 
     13 C13       -52.1528  -29.6211   10.9247 C.ar      14 UNK        -0.0827 
     14 C14       -52.5346  -29.1046    9.6812 C.ar      14 UNK        -0.1249 
     15 C15       -53.1544  -29.7108   12.0697 C.3       14 UNK         0.0141 
     16 S16       -54.6887  -30.5785   11.6132 S.3       14 UNK        -0.2313 
     17 C17       -55.6447  -30.4376   13.1633 C.3       14 UNK        -0.0915 
     18 CA        -56.6996  -29.2997   13.1045 C.3       13 UNK         0.0968 
     19 C         -57.7179  -29.3708   14.2805 C.2       13 UNK         0.5732 
     20 N         -58.0228  -28.2818   14.9791 N.am      13 UNK        -0.7310 
     21 O         -58.2713  -30.4345   14.5505 O.2       13 UNK        -0.5035 
     22 N         -56.0528  -27.9859   12.9968 N.am      13 UNK        -0.4233 
     23 C         -56.3471  -27.0476   12.0897 C.2       13 UNK         0.4989 
     24 O         -57.1632  -27.2075   11.1802 O.2       13 UNK        -0.4996 
     25 CA        -55.5981  -25.7034   12.2071 C.3       12 UNK         0.0216 
     26 CB        -56.4313  -24.5133   11.6862 C.3       12 UNK        -0.1964 
     27 N         -55.0762  -25.4180   13.5502 N.am      12 UNK        -0.4276 
     28 C         -55.7684  -25.3017   14.6914 C.2       12 UNK         0.5020 
     29 O         -56.9908  -25.4474   14.7669 O.2       12 UNK        -0.5489 
     30 CA        -54.9395  -25.0304   15.9639 C.3       11 UNK         0.0294 
     31 CB        -55.7969  -25.0725   17.2460 C.3       11 UNK        -0.2019 
     32 N         -53.7731  -25.9124   16.1188 N.am      11 UNK        -0.4493 
     33 C         -53.7533  -27.2552   16.0842 C.2       11 UNK         0.4932 
     34 O         -54.7324  -27.9421   15.7904 O.2       11 UNK        -0.5029 
     35 CA        -52.4304  -27.9646   16.4366 C.3       10 UNK         0.0280 
     36 CB        -52.1749  -29.1786   15.5325 C.3       10 UNK        -0.1976 
     37 N         -51.2667  -27.0801   16.3633 N.am      10 UNK        -0.4242 
     38 C         -50.7235  -26.4335   17.4021 C.2       10 UNK         0.5072 
     39 O         -51.1428  -26.5113   18.5575 O.2       10 UNK        -0.5224 
     40 CA        -49.5220  -25.5216   17.0977 C.3       9 UNK         0.0343 
     41 CB        -48.2207  -26.3381   17.0699 C.3       9 UNK        -0.2003 
     42 N         -49.6576  -24.7642   15.8485 N.am      9 UNK        -0.4272 
     43 C         -50.6331  -23.8762   15.6000 C.2       9 UNK         0.4988 
     44 O         -51.5437  -23.6161   16.3877 O.2       9 UNK        -0.5108 
     45 CA        -50.6084  -23.1802   14.2307 C.3       8 UNK         0.0248 
     46 CB        -49.5200  -22.0956   14.1889 C.3       8 UNK        -0.2001 
     47 N         -50.4202  -24.1218   13.1260 N.am      8 UNK        -0.4140 
     48 C         -51.2975  -25.0799   12.7949 C.2       8 UNK         0.5028 
     49 O         -52.3794  -25.2373   13.3571 O.2       8 UNK        -0.5428 
     50 CA        -50.8867  -26.0605   11.6865 C.3       7 UNK         0.0264 
     51 CB        -51.0199  -25.4151   10.3023 C.3       7 UNK        -0.1988 
     52 N         -49.5295  -26.5751   11.8679 N.am      7 UNK        -0.4454 
     53 C         -49.1289  -27.2772   12.9389 C.2       7 UNK         0.5027 
     54 O         -49.8697  -27.5916   13.8703 O.2       7 UNK        -0.5083 
     55 CA        -47.6363  -27.6362   13.0307 C.3       6 UNK         0.0844 
     56 C56       -47.3220  -29.0366   12.4491 C.3       14 UNK        -0.0967 
     57 S57       -47.3004  -29.1256   10.6266 S.3       14 UNK        -0.2604 
     58 C58       -48.4773  -30.4679   10.2669 C.3       14 UNK         0.0134 
     59 N         -46.7826  -26.5654   12.5062 N.am      6 UNK        -0.4116 
     60 C         -46.6376  -25.3737   13.1055 C.2       5 UNK         0.5034 
     61 O         -47.1865  -25.0658   14.1650 O.2       5 UNK        -0.5045 
     62 CA        -45.7627  -24.3366   12.3843 C.3       5 UNK         0.0224 
     63 CB        -44.2814  -24.7492   12.4043 C.3       5 UNK        -0.1978 
     64 N         -46.1882  -24.0820   11.0054 N.am      5 UNK        -0.4737 
     65 C         -47.3837  -23.5890   10.6510 C.2       4 UNK         0.5027 
     66 O         -48.2734  -23.3136   11.4530 O.2       4 UNK        -0.5211 
     67 CA        -47.6406  -23.3641    9.1511 C.3       4 UNK         0.0297 
     68 CB        -47.3198  -21.9118    8.7658 C.3       4 UNK        -0.1993 
     69 N         -46.9039  -24.2717    8.2689 N.am      4 UNK        -0.4486 
     70 C         -47.0356  -25.6032    8.2454 C.2       3 UNK         0.4961 
     71 O         -47.7690  -26.2281    9.0122 O.2       3 UNK        -0.5105 
     72 CA        -46.2177  -26.3370    7.1647 C.3       3 UNK         0.0299 
     73 CB        -46.2015  -27.8628    7.3650 C.3       3 UNK        -0.1972 
     74 N         -46.7337  -26.0482    5.8272 N.am      3 UNK        -0.4305 
     75 C         -46.5669  -24.9092    5.1385 C.2       2 UNK         0.5006 
     76 O         -45.8887  -23.9630    5.5427 O.2       2 UNK        -0.5106 
     77 CA        -47.2802  -24.8019    3.7759 C.3       2 UNK         0.0296 
     78 CB        -46.2870  -25.0465    2.6285 C.3       2 UNK        -0.2002 
     79 N         -48.4000  -25.7396    3.6496 N.am      2 UNK        -0.4032 
     80 C         -49.5711  -25.6322    4.2924 C.2       1 UNK         0.5000 
     81 O         -49.8899  -24.6307    4.9363 O.2       1 UNK        -0.5238 
     82 H82       -48.6458  -30.9184    3.5979 H         1 UNK         0.0889 
     83 H83       -48.7199  -30.3137    5.2539 H         1 UNK         0.0889 
     84 H84       -47.2884  -30.0094    4.2675 H         1 UNK         0.0889 
     85 H85       -49.9761  -28.4763    5.4556 H         1 UNK         0.3028 
     86 H86       -50.8503  -26.9154    3.1921 H         1 UNK         0.0864 
     87 H87       -52.5088  -27.4884    4.8192 H         1 UNK         0.0720 
     88 H88       -52.2821  -25.7743    4.9249 H         1 UNK         0.0720 
     89 H89       -51.6893  -29.2484    6.4948 H         1 UNK         0.0814 
     90 H90       -53.1476  -28.5691    7.1698 H         1 UNK         0.0814 
     91 H91       -49.5871  -29.4086    8.0254 H         1 UNK         0.1469 
     92 H92       -50.5249  -30.4326   12.0774 H         1 UNK         0.1381 
     93 H93       -53.5538  -28.7764    9.5293 H         1 UNK         0.1206 
     94 H94       -53.3852  -28.7045   12.4204 H         1 UNK         0.0813 
     95 H95       -52.7148  -30.2546   12.9052 H         1 UNK         0.0813 
     96 H96       -54.9706  -30.2961   14.0097 H         1 UNK         0.0638 
     97 H97       -56.1288  -31.4029   13.3209 H         1 UNK         0.0638 
     98 H98       -57.3056  -29.4762   12.2145 H         1 UNK         0.0568 
     99 H99       -57.5900  -27.3864   14.7793 H         1 UNK         0.3450 
    100 H100      -58.6904  -28.3551   15.7292 H         1 UNK         0.3450 
    101 H101      -55.4296  -27.7537   13.7612 H         1 UNK         0.2987 
    102 H102      -54.7216  -25.7977   11.5642 H         1 UNK         0.0766 
    103 H103      -55.8737  -23.5793   11.7548 H         1 UNK         0.0798 
    104 H104      -57.3582  -24.3935   12.2480 H         1 UNK         0.0798 
    105 H105      -56.7012  -24.6500   10.6383 H         1 UNK         0.0798 
    106 H106      -54.0563  -25.3260   13.5990 H         1 UNK         0.3198 
    107 H107      -54.5459  -24.0180   15.8598 H         1 UNK         0.0843 
    108 H108      -56.2364  -26.0583   17.4032 H         1 UNK         0.0831 
    109 H109      -56.6165  -24.3546   17.1937 H         1 UNK         0.0831 
    110 H110      -55.2057  -24.8238   18.1273 H         1 UNK         0.0831 
    111 H111      -52.8987  -25.4358   16.3053 H         1 UNK         0.3133 
    112 H112      -52.5437  -28.3375   17.4563 H         1 UNK         0.0566 
    113 H113      -51.2723  -29.7121   15.8305 H         1 UNK         0.0814 
    114 H114      -52.9996  -29.8913   15.5688 H         1 UNK         0.0814 
    115 H115      -52.0471  -28.8620   14.5001 H         1 UNK         0.0814 
    116 H116      -50.8294  -26.9936   15.4482 H         1 UNK         0.3091 
    117 H117      -49.4481  -24.7953   17.9097 H         1 UNK         0.0702 
    118 H118      -47.3512  -25.6958   16.9290 H         1 UNK         0.0785 
    119 H119      -48.2267  -27.0755   16.2671 H         1 UNK         0.0785 
    120 H120      -48.0774  -26.8771   18.0074 H         1 UNK         0.0785 
    121 H121      -48.9316  -24.9025   15.1511 H         1 UNK         0.2998 
    122 H122      -51.5757  -22.6936   14.0889 H         1 UNK         0.0697 
    123 H123      -48.5196  -22.5226   14.2709 H         1 UNK         0.0825 
    124 H124      -49.6425  -21.3850   15.0073 H         1 UNK         0.0825 
    125 H125      -49.5632  -21.5293   13.2583 H         1 UNK         0.0825 
    126 H126      -49.5669  -24.0185   12.5792 H         1 UNK         0.3029 
    127 H127      -51.5637  -26.9154   11.7289 H         1 UNK         0.0897 
    128 H128      -50.4610  -24.4830   10.2308 H         1 UNK         0.0792 
    129 H129      -52.0628  -25.1914   10.0750 H         1 UNK         0.0792 
    130 H130      -50.6509  -26.0844    9.5265 H         1 UNK         0.0792 
    131 H131      -48.8641  -26.3919   11.1263 H         1 UNK         0.3086 
    132 H132      -47.4163  -27.7056   14.0980 H         1 UNK         0.0583 
    133 H133      -46.3364  -29.3503   12.7964 H         1 UNK         0.1020 
    134 H134      -48.0144  -29.7769   12.8544 H         1 UNK         0.1020 
    135 H135      -48.1531  -30.9676    9.3528 H         1 UNK         0.0694 
    136 H136      -48.4351  -31.2278   11.0485 H         1 UNK         0.0694 
    137 H137      -46.3460  -26.7322   11.6109 H         1 UNK         0.2989 
    138 H138      -45.8594  -23.3979   12.9348 H         1 UNK         0.1055 
    139 H139      -43.9454  -24.9462   13.4234 H         1 UNK         0.0806 
    140 H140      -43.6455  -23.9590   12.0044 H         1 UNK         0.0806 
    141 H141      -44.0996  -25.6524   11.8207 H         1 UNK         0.0806 
    142 H142      -45.5227  -24.2796   10.2724 H         1 UNK         0.3061 
    143 H143      -48.7037  -23.5341    8.9728 H         1 UNK         0.0734 
    144 H144      -46.2602  -21.6851    8.8909 H         1 UNK         0.0832 
    145 H145      -47.5879  -21.7072    7.7290 H         1 UNK         0.0832 
    146 H146      -47.8789  -21.2110    9.3877 H         1 UNK         0.0832 
    147 H147      -46.3277  -23.8506    7.5471 H         1 UNK         0.3156 
    148 H148      -45.1870  -25.9814    7.2263 H         1 UNK         0.0589 
    149 H149      -47.2069  -28.2861    7.3621 H         1 UNK         0.0808 
    150 H150      -45.6231  -28.3623    6.5877 H         1 UNK         0.0808 
    151 H151      -45.7421  -28.1190    8.3198 H         1 UNK         0.0808 
    152 H152      -47.3322  -26.7517    5.4238 H         1 UNK         0.3098 
    153 H153      -47.6677  -23.7848    3.6858 H         1 UNK         0.0720 
    154 H154      -46.7623  -24.9095    1.6569 H         1 UNK         0.0791 
    155 H155      -45.8726  -26.0551    2.6604 H         1 UNK         0.0791 
    156 H156      -45.4507  -24.3478    2.6801 H         1 UNK         0.0791 
    157 H157      -48.2420  -26.5900    3.1144 H         1 UNK         0.3028 
@<TRIPOS>BOND
     1    1    2 1    
     2    1   82 1    
     3    1   83 1    
     4    1   84 1    
     5    2    3 2    
     6    2    4 am   BACKBONE|DICT|INTERRES
     7    4    5 1    
     8    4   85 1    
     9    5    6 1    
    10    5   80 1    
    11    5   86 1    
    12    6    7 1    
    13    6   87 1    
    14    6   88 1    
    15    7    8 1    
    16    8    9 1    
    17    8   89 1    
    18    8   90 1    
    19    9   10 ar   
    20    9   14 ar   
    21   10   11 ar   
    22   10   91 1    
    23   11   12 ar   
    24   11   58 1    
    25   12   13 ar   
    26   12   92 1    
    27   13   14 ar   
    28   13   15 1    
    29   14   93 1    
    30   15   16 1    
    31   15   94 1    
    32   15   95 1    
    33   16   17 1    
    34   17   18 1    
    35   17   96 1    
    36   17   97 1    
    37   18   19 1    
    38   18   22 1    
    39   18   98 1    
    40   19   20 am   BACKBONE|DICT|INTERRES
    41   19   21 2    
    42   20   99 1    
    43   20  100 1    
    44   22   23 am   BACKBONE|DICT|INTERRES
    45   22  101 1    
    46   23   24 2    
    47   23   25 1    
    48   25   26 1    
    49   25   27 1    
    50   25  102 1    
    51   26  103 1    
    52   26  104 1    
    53   26  105 1    
    54   27   28 am   BACKBONE|DICT|INTERRES
    55   27  106 1    
    56   28   29 2    
    57   28   30 1    
    58   30   31 1    
    59   30   32 1    
    60   30  107 1    
    61   31  108 1    
    62   31  109 1    
    63   31  110 1    
    64   32   33 am   BACKBONE|DICT|INTERRES
    65   32  111 1    
    66   33   34 2    
    67   33   35 1    
    68   35   36 1    
    69   35   37 1    
    70   35  112 1    
    71   36  113 1    
    72   36  114 1    
    73   36  115 1    
    74   37   38 am   BACKBONE|DICT|INTERRES
    75   37  116 1    
    76   38   39 2    
    77   38   40 1    
    78   40   41 1    
    79   40   42 1    
    80   40  117 1    
    81   41  118 1    
    82   41  119 1    
    83   41  120 1    
    84   42   43 am   BACKBONE|DICT|INTERRES
    85   42  121 1    
    86   43   44 2    
    87   43   45 1    
    88   45   46 1    
    89   45   47 1    
    90   45  122 1    
    91   46  123 1    
    92   46  124 1    
    93   46  125 1    
    94   47   48 am   BACKBONE|DICT|INTERRES
    95   47  126 1    
    96   48   49 2    
    97   48   50 1    
    98   50   51 1    
    99   50   52 1    
   100   50  127 1    
   101   51  128 1    
   102   51  129 1    
   103   51  130 1    
   104   52   53 am   BACKBONE|DICT|INTERRES
   105   52  131 1    
   106   53   54 2    
   107   53   55 1    
   108   55   56 1    
   109   55   59 1    
   110   55  132 1    
   111   56   57 1    
   112   56  133 1    
   113   56  134 1    
   114   57   58 1    
   115   58  135 1    
   116   58  136 1    
   117   59   60 am   BACKBONE|DICT|INTERRES
   118   59  137 1    
   119   60   61 2    
   120   60   62 1    
   121   62   63 1    
   122   62   64 1    
   123   62  138 1    
   124   63  139 1    
   125   63  140 1    
   126   63  141 1    
   127   64   65 am   BACKBONE|DICT|INTERRES
   128   64  142 1    
   129   65   66 2    
   130   65   67 1    
   131   67   68 1    
   132   67   69 1    
   133   67  143 1    
   134   68  144 1    
   135   68  145 1    
   136   68  146 1    
   137   69   70 am   BACKBONE|DICT|INTERRES
   138   69  147 1    
   139   70   71 2    
   140   70   72 1    
   141   72   73 1    
   142   72   74 1    
   143   72  148 1    
   144   73  149 1    
   145   73  150 1    
   146   73  151 1    
   147   74   75 am   BACKBONE|DICT|INTERRES
   148   74  152 1    
   149   75   76 2    
   150   75   77 1    
   151   77   78 1    
   152   77   79 1    
   153   77  153 1    
   154   78  154 1    
   155   78  155 1    
   156   78  156 1    
   157   79   80 am   BACKBONE|DICT|INTERRES
   158   79  157 1    
   159   80   81 2    
@<TRIPOS>SUBSTRUCTURE
     1 UNK         1 GROUP             0       ****    0 ROOT    
