@<TRIPOS>MOLECULE
3R207
157   159    1
SMALL
USER_CHARGES


@<TRIPOS>ATOM
      1 CA        -49.1676  -25.9467    2.7939 C.3       0 UNK        -0.1975 
      2 C         -48.8254  -25.6087    4.2363 C.2       0 UNK         0.4852 
      3 O         -47.9379  -26.2385    4.8100 O.2       0 UNK        -0.5216 
      4 N         -49.5076  -24.6076    4.8115 N.am      1 UNK        -0.4461 
      5 CA        -49.4058  -24.1463    6.2061 C.3       1 UNK         0.0864 
      6 C6        -50.1129  -25.0863    7.2172 C.3       14 UNK        -0.0898 
      7 S7        -51.8768  -25.3559    6.8349 S.3       14 UNK        -0.2598 
      8 C8        -51.9517  -27.1664    6.6316 C.3       14 UNK         0.0286 
      9 C9        -52.1320  -27.9019    7.9563 C.ar      14 UNK        -0.0844 
     10 C10       -51.1171  -28.7225    8.4625 C.ar      14 UNK        -0.0881 
     11 C11       -51.3059  -29.4447    9.6477 C.ar      14 UNK        -0.0643 
     12 C12       -52.5212  -29.3346   10.3285 C.ar      14 UNK        -0.0930 
     13 C13       -53.5500  -28.5344    9.8258 C.ar      14 UNK        -0.0827 
     14 C14       -53.3477  -27.8152    8.6440 C.ar      14 UNK        -0.1249 
     15 C15       -54.8961  -28.4967   10.5324 C.3       14 UNK         0.0141 
     16 S16       -54.9926  -27.1224   11.7132 S.3       14 UNK        -0.2313 
     17 C17       -56.5862  -27.4729   12.5303 C.3       14 UNK        -0.0915 
     18 CA        -56.4657  -27.6848   14.0703 C.3       13 UNK         0.0968 
     19 C         -57.8531  -27.8773   14.7561 C.2       13 UNK         0.5732 
     20 N         -57.9894  -28.7145   15.7793 N.am      13 UNK        -0.7310 
     21 O         -58.8267  -27.2309   14.3759 O.2       13 UNK        -0.5035 
     22 N         -55.4533  -28.6757   14.4680 N.am      13 UNK        -0.4233 
     23 C         -55.4391  -29.9776   14.1472 C.2       13 UNK         0.4989 
     24 O         -56.2301  -30.5089   13.3676 O.2       13 UNK        -0.4996 
     25 CA        -54.3782  -30.8553   14.8409 C.3       12 UNK         0.0216 
     26 CB        -53.1358  -30.9996   13.9469 C.3       12 UNK        -0.1964 
     27 N         -53.9685  -30.3602   16.1597 N.am      12 UNK        -0.4276 
     28 C         -54.7828  -30.1734   17.2094 C.2       12 UNK         0.5020 
     29 O         -55.9770  -30.4751   17.2108 O.2       12 UNK        -0.5489 
     30 CA        -54.1808  -29.4814   18.4472 C.3       11 UNK         0.0294 
     31 CB        -53.7543  -30.5269   19.4902 C.3       11 UNK        -0.2019 
     32 N         -53.0471  -28.5910   18.1584 N.am      11 UNK        -0.4493 
     33 C         -53.0815  -27.5287   17.3409 C.2       11 UNK         0.4932 
     34 O         -54.0721  -27.2011   16.6830 O.2       11 UNK        -0.5029 
     35 CA        -51.7634  -26.7565   17.1898 C.3       10 UNK         0.0280 
     36 CB        -50.8379  -27.4757   16.1919 C.3       10 UNK        -0.1976 
     37 N         -52.0182  -25.3984   16.7112 N.am      10 UNK        -0.4242 
     38 C         -52.2783  -24.3456   17.4999 C.2       10 UNK         0.5072 
     39 O         -52.2574  -24.3960   18.7311 O.2       10 UNK        -0.5224 
     40 CA        -52.6005  -22.9986   16.8197 C.3       9 UNK         0.0343 
     41 CB        -51.3490  -22.1064   16.7788 C.3       9 UNK        -0.2003 
     42 N         -53.1276  -23.1406   15.4614 N.am      9 UNK        -0.4272 
     43 C         -54.3467  -23.6081   15.1606 C.2       9 UNK         0.4988 
     44 O         -55.2122  -23.8426   16.0046 O.2       9 UNK        -0.5108 
     45 CA        -54.6685  -23.8631   13.6735 C.3       8 UNK         0.0248 
     46 CB        -55.5941  -22.7618   13.1305 C.3       8 UNK        -0.2001 
     47 N         -53.5220  -24.0124   12.7637 N.am      8 UNK        -0.4140 
     48 C         -52.4980  -24.8674   12.9000 C.2       8 UNK         0.5028 
     49 O         -52.3135  -25.5665   13.8994 O.2       8 UNK        -0.5428 
     50 CA        -51.4958  -24.9352   11.7408 C.3       7 UNK         0.0264 
     51 CB        -50.9106  -23.5465   11.4020 C.3       7 UNK        -0.1988 
     52 N         -50.4249  -25.8505   12.1250 N.am      7 UNK        -0.4454 
     53 C         -49.5446  -26.4127   11.2939 C.2       7 UNK         0.5027 
     54 O         -49.5642  -26.2602   10.0742 O.2       7 UNK        -0.5083 
     55 CA        -48.4336  -27.2681   11.9343 C.3       6 UNK         0.0844 
     56 C56       -48.8144  -28.7719   11.9953 C.3       14 UNK        -0.0967 
     57 S57       -48.6121  -29.6667   10.4133 S.3       14 UNK        -0.2604 
     58 C58       -50.2466  -30.4211   10.1478 C.3       14 UNK         0.0134 
     59 N         -47.1675  -27.0349   11.2325 N.am      6 UNK        -0.4116 
     60 C         -46.4974  -25.8759   11.2127 C.2       5 UNK         0.5034 
     61 O         -46.7237  -24.9501   11.9936 O.2       5 UNK        -0.5045 
     62 CA        -45.4232  -25.6782   10.1262 C.3       5 UNK         0.0224 
     63 CB        -44.0067  -25.9487   10.6710 C.3       5 UNK        -0.1978 
     64 N         -45.6777  -26.3956    8.8662 N.am      5 UNK        -0.4737 
     65 C         -45.5931  -27.7094    8.6103 C.2       4 UNK         0.5027 
     66 O         -45.2942  -28.5524    9.4551 O.2       4 UNK        -0.5211 
     67 CA        -45.9153  -28.1716    7.1790 C.3       4 UNK         0.0297 
     68 CB        -47.3856  -28.5986    7.0669 C.3       4 UNK        -0.1993 
     69 N         -45.6381  -27.1521    6.1664 N.am      4 UNK        -0.4486 
     70 C         -44.4121  -26.8252    5.7362 C.2       3 UNK         0.4961 
     71 O         -43.3748  -27.3390    6.1566 O.2       3 UNK        -0.5105 
     72 CA        -44.3299  -25.7466    4.6457 C.3       3 UNK         0.0299 
     73 CB        -44.7011  -26.3266    3.2705 C.3       3 UNK        -0.1972 
     74 N         -45.1901  -24.6026    4.9477 N.am      3 UNK        -0.4305 
     75 C         -44.8740  -23.6280    5.8121 C.2       2 UNK         0.5006 
     76 O         -43.8042  -23.5710    6.4194 O.2       2 UNK        -0.5106 
     77 CA        -45.9166  -22.5165    6.0344 C.3       2 UNK         0.0296 
     78 CB        -45.6194  -21.3133    5.1244 C.3       2 UNK        -0.2002 
     79 N         -47.3021  -22.9489    5.8270 N.am      2 UNK        -0.4032 
     80 C         -47.9511  -23.8166    6.6169 C.2       1 UNK         0.5000 
     81 O         -47.4298  -24.3623    7.5923 O.2       1 UNK        -0.5238 
     82 H82       -49.4954  -26.9834    2.7226 H         1 UNK         0.0889 
     83 H83       -48.2890  -25.8229    2.1615 H         1 UNK         0.0889 
     84 H84       -49.9619  -25.3117    2.4021 H         1 UNK         0.0889 
     85 H85       -50.2140  -24.1342    4.2654 H         1 UNK         0.3028 
     86 H86       -49.9356  -23.1929    6.2415 H         1 UNK         0.0864 
     87 H87       -49.5948  -26.0431    7.2868 H         1 UNK         0.0720 
     88 H88       -50.0733  -24.6421    8.2121 H         1 UNK         0.0720 
     89 H89       -51.0625  -27.5148    6.1036 H         1 UNK         0.0814 
     90 H90       -52.7964  -27.4050    5.9840 H         1 UNK         0.0814 
     91 H91       -50.1839  -28.8174    7.9266 H         1 UNK         0.1469 
     92 H92       -52.6837  -29.9028   11.2326 H         1 UNK         0.1381 
     93 H93       -54.1438  -27.1998    8.2475 H         1 UNK         0.1206 
     94 H94       -55.0679  -29.4382   11.0560 H         1 UNK         0.0813 
     95 H95       -55.7005  -28.4006    9.8016 H         1 UNK         0.0813 
     96 H96       -57.2402  -26.6252   12.3195 H         1 UNK         0.0638 
     97 H97       -57.0611  -28.3361   12.0618 H         1 UNK         0.0638 
     98 H98       -56.0981  -26.7497   14.4912 H         1 UNK         0.0568 
     99 H99       -57.2082  -29.2597   16.1259 H         1 UNK         0.3450 
    100 H100      -58.8940  -28.8116   16.2114 H         1 UNK         0.3450 
    101 H101      -54.7848  -28.3338   15.1501 H         1 UNK         0.2987 
    102 H102      -54.8171  -31.8448   14.9850 H         1 UNK         0.0766 
    103 H103      -52.3998  -31.6700   14.3913 H         1 UNK         0.0798 
    104 H104      -52.6525  -30.0378   13.7684 H         1 UNK         0.0798 
    105 H105      -53.4049  -31.4181   12.9762 H         1 UNK         0.0798 
    106 H106      -53.0037  -30.0820   16.2613 H         1 UNK         0.3198 
    107 H107      -54.9712  -28.8665   18.8831 H         1 UNK         0.0843 
    108 H108      -52.9399  -31.1541   19.1254 H         1 UNK         0.0831 
    109 H109      -54.5855  -31.1874   19.7424 H         1 UNK         0.0831 
    110 H110      -53.4279  -30.0550   20.4172 H         1 UNK         0.0831 
    111 H111      -52.1852  -28.7921   18.6461 H         1 UNK         0.3133 
    112 H112      -51.2628  -26.7130   18.1594 H         1 UNK         0.0566 
    113 H113      -49.9238  -26.9076   16.0184 H         1 UNK         0.0814 
    114 H114      -50.5410  -28.4558   16.5668 H         1 UNK         0.0814 
    115 H115      -51.3234  -27.6314   15.2276 H         1 UNK         0.0814 
    116 H116      -52.1453  -25.3077   15.7040 H         1 UNK         0.3091 
    117 H117      -53.3566  -22.4976   17.4279 H         1 UNK         0.0702 
    118 H118      -50.9462  -21.9535   17.7811 H         1 UNK         0.0785 
    119 H119      -50.5569  -22.5492   16.1734 H         1 UNK         0.0785 
    120 H120      -51.5761  -21.1218   16.3694 H         1 UNK         0.0785 
    121 H121      -52.4834  -22.9752   14.7025 H         1 UNK         0.2998 
    122 H122      -55.2159  -24.8044   13.6371 H         1 UNK         0.0697 
    123 H123      -55.0902  -21.7952   13.0916 H         1 UNK         0.0825 
    124 H124      -56.4763  -22.6440   13.7616 H         1 UNK         0.0825 
    125 H125      -55.9492  -22.9991   12.1274 H         1 UNK         0.0825 
    126 H126      -53.5707  -23.4727   11.9119 H         1 UNK         0.3029 
    127 H127      -52.0141  -25.3449   10.8702 H         1 UNK         0.0897 
    128 H128      -50.1718  -23.6088   10.6027 H         1 UNK         0.0792 
    129 H129      -50.4231  -23.0948   12.2669 H         1 UNK         0.0792 
    130 H130      -51.6823  -22.8567   11.0598 H         1 UNK         0.0792 
    131 H131      -50.4207  -26.0708   13.1138 H         1 UNK         0.3086 
    132 H132      -48.3011  -26.9208   12.9614 H         1 UNK         0.0583 
    133 H133      -48.1741  -29.2682   12.7260 H         1 UNK         0.1020 
    134 H134      -49.8316  -28.8998   12.3713 H         1 UNK         0.1020 
    135 H135      -50.1388  -31.2131    9.4056 H         1 UNK         0.0694 
    136 H136      -50.5643  -30.9125   11.0688 H         1 UNK         0.0694 
    137 H137      -46.9000  -27.7448   10.5616 H         1 UNK         0.2989 
    138 H138      -45.4685  -24.6216    9.8560 H         1 UNK         0.1055 
    139 H139      -43.7892  -25.3001   11.5206 H         1 UNK         0.0806 
    140 H140      -43.2473  -25.7563    9.9131 H         1 UNK         0.0806 
    141 H141      -43.8881  -26.9767   11.0140 H         1 UNK         0.0806 
    142 H142      -46.0510  -25.8069    8.1268 H         1 UNK         0.3061 
    143 H143      -45.2932  -29.0429    6.9629 H         1 UNK         0.0734 
    144 H144      -47.6459  -28.8793    6.0463 H         1 UNK         0.0832 
    145 H145      -47.5859  -29.4630    7.6993 H         1 UNK         0.0832 
    146 H146      -48.0570  -27.7978    7.3773 H         1 UNK         0.0832 
    147 H147      -46.4489  -26.7101    5.7330 H         1 UNK         0.3156 
    148 H148      -43.2950  -25.4014    4.5918 H         1 UNK         0.0589 
    149 H149      -44.0532  -27.1666    3.0161 H         1 UNK         0.0808 
    150 H150      -45.7289  -26.6903    3.2433 H         1 UNK         0.0808 
    151 H151      -44.5882  -25.5817    2.4826 H         1 UNK         0.0808 
    152 H152      -46.1084  -24.5986    4.5279 H         1 UNK         0.3098 
    153 H153      -45.8224  -22.1884    7.0720 H         1 UNK         0.0720 
    154 H154      -44.6018  -20.9505    5.2773 H         1 UNK         0.0791 
    155 H155      -46.2918  -20.4810    5.3335 H         1 UNK         0.0791 
    156 H156      -45.7182  -21.5699    4.0688 H         1 UNK         0.0791 
    157 H157      -47.7904  -22.5579    5.0339 H         1 UNK         0.3028 
@<TRIPOS>BOND
     1    1    2 1    
     2    1   82 1    
     3    1   83 1    
     4    1   84 1    
     5    2    3 2    
     6    2    4 am   BACKBONE|DICT|INTERRES
     7    4    5 1    
     8    4   85 1    
     9    5    6 1    
    10    5   80 1    
    11    5   86 1    
    12    6    7 1    
    13    6   87 1    
    14    6   88 1    
    15    7    8 1    
    16    8    9 1    
    17    8   89 1    
    18    8   90 1    
    19    9   10 ar   
    20    9   14 ar   
    21   10   11 ar   
    22   10   91 1    
    23   11   12 ar   
    24   11   58 1    
    25   12   13 ar   
    26   12   92 1    
    27   13   14 ar   
    28   13   15 1    
    29   14   93 1    
    30   15   16 1    
    31   15   94 1    
    32   15   95 1    
    33   16   17 1    
    34   17   18 1    
    35   17   96 1    
    36   17   97 1    
    37   18   19 1    
    38   18   22 1    
    39   18   98 1    
    40   19   20 am   BACKBONE|DICT|INTERRES
    41   19   21 2    
    42   20   99 1    
    43   20  100 1    
    44   22   23 am   BACKBONE|DICT|INTERRES
    45   22  101 1    
    46   23   24 2    
    47   23   25 1    
    48   25   26 1    
    49   25   27 1    
    50   25  102 1    
    51   26  103 1    
    52   26  104 1    
    53   26  105 1    
    54   27   28 am   BACKBONE|DICT|INTERRES
    55   27  106 1    
    56   28   29 2    
    57   28   30 1    
    58   30   31 1    
    59   30   32 1    
    60   30  107 1    
    61   31  108 1    
    62   31  109 1    
    63   31  110 1    
    64   32   33 am   BACKBONE|DICT|INTERRES
    65   32  111 1    
    66   33   34 2    
    67   33   35 1    
    68   35   36 1    
    69   35   37 1    
    70   35  112 1    
    71   36  113 1    
    72   36  114 1    
    73   36  115 1    
    74   37   38 am   BACKBONE|DICT|INTERRES
    75   37  116 1    
    76   38   39 2    
    77   38   40 1    
    78   40   41 1    
    79   40   42 1    
    80   40  117 1    
    81   41  118 1    
    82   41  119 1    
    83   41  120 1    
    84   42   43 am   BACKBONE|DICT|INTERRES
    85   42  121 1    
    86   43   44 2    
    87   43   45 1    
    88   45   46 1    
    89   45   47 1    
    90   45  122 1    
    91   46  123 1    
    92   46  124 1    
    93   46  125 1    
    94   47   48 am   BACKBONE|DICT|INTERRES
    95   47  126 1    
    96   48   49 2    
    97   48   50 1    
    98   50   51 1    
    99   50   52 1    
   100   50  127 1    
   101   51  128 1    
   102   51  129 1    
   103   51  130 1    
   104   52   53 am   BACKBONE|DICT|INTERRES
   105   52  131 1    
   106   53   54 2    
   107   53   55 1    
   108   55   56 1    
   109   55   59 1    
   110   55  132 1    
   111   56   57 1    
   112   56  133 1    
   113   56  134 1    
   114   57   58 1    
   115   58  135 1    
   116   58  136 1    
   117   59   60 am   BACKBONE|DICT|INTERRES
   118   59  137 1    
   119   60   61 2    
   120   60   62 1    
   121   62   63 1    
   122   62   64 1    
   123   62  138 1    
   124   63  139 1    
   125   63  140 1    
   126   63  141 1    
   127   64   65 am   BACKBONE|DICT|INTERRES
   128   64  142 1    
   129   65   66 2    
   130   65   67 1    
   131   67   68 1    
   132   67   69 1    
   133   67  143 1    
   134   68  144 1    
   135   68  145 1    
   136   68  146 1    
   137   69   70 am   BACKBONE|DICT|INTERRES
   138   69  147 1    
   139   70   71 2    
   140   70   72 1    
   141   72   73 1    
   142   72   74 1    
   143   72  148 1    
   144   73  149 1    
   145   73  150 1    
   146   73  151 1    
   147   74   75 am   BACKBONE|DICT|INTERRES
   148   74  152 1    
   149   75   76 2    
   150   75   77 1    
   151   77   78 1    
   152   77   79 1    
   153   77  153 1    
   154   78  154 1    
   155   78  155 1    
   156   78  156 1    
   157   79   80 am   BACKBONE|DICT|INTERRES
   158   79  157 1    
   159   80   81 2    
@<TRIPOS>SUBSTRUCTURE
     1 UNK         1 GROUP             0       ****    0 ROOT    
