@<TRIPOS>MOLECULE
3R207
157   159    1
SMALL
USER_CHARGES


@<TRIPOS>ATOM
      1 CA        -51.8193  -28.5314   12.3694 C.3       0 UNK        -0.1975 
      2 C         -50.8890  -28.9381   11.2413 C.2       0 UNK         0.4852 
      3 O         -50.7991  -30.1183   10.9048 O.2       0 UNK        -0.5216 
      4 N         -50.1981  -27.9525   10.6619 N.am      1 UNK        -0.4461 
      5 CA        -49.3013  -28.1005    9.5128 C.3       1 UNK         0.0864 
      6 C6        -49.5156  -26.9335    8.5100 C.3       14 UNK        -0.0898 
      7 S7        -49.6074  -27.4977    6.7775 S.3       14 UNK        -0.2598 
      8 C8        -51.2512  -28.2924    6.7249 C.3       14 UNK         0.0286 
      9 C9        -52.3637  -27.3002    7.0201 C.ar      14 UNK        -0.0844 
     10 C10       -52.7736  -26.4003    6.0352 C.ar      14 UNK        -0.0881 
     11 C11       -53.7237  -25.4189    6.3267 C.ar      14 UNK        -0.0643 
     12 C12       -54.3036  -25.3756    7.5999 C.ar      14 UNK        -0.0930 
     13 C13       -53.9148  -26.2843    8.5906 C.ar      14 UNK        -0.0827 
     14 C14       -52.9455  -27.2460    8.2901 C.ar      14 UNK        -0.1249 
     15 C15       -54.4982  -26.1852    9.9963 C.3       14 UNK         0.0141 
     16 S16       -55.2268  -27.7598   10.5546 S.3       14 UNK        -0.2313 
     17 C17       -56.1874  -27.2391   12.0183 C.3       14 UNK        -0.0915 
     18 CA        -55.5639  -27.6279   13.3984 C.3       13 UNK         0.0968 
     19 C         -56.4421  -27.1893   14.6094 C.2       13 UNK         0.5732 
     20 N         -57.0481  -26.0096   14.5602 N.am      13 UNK        -0.7310 
     21 O         -56.5554  -27.8833   15.6179 O.2       13 UNK        -0.5035 
     22 N         -55.1208  -29.0284   13.5084 N.am      13 UNK        -0.4233 
     23 C         -55.8469  -30.1269   13.2534 C.2       13 UNK         0.4989 
     24 O         -56.9983  -30.1197   12.8162 O.2       13 UNK        -0.4996 
     25 CA        -55.1697  -31.4810   13.5396 C.3       12 UNK         0.0216 
     26 CB        -54.3356  -31.9379   12.3309 C.3       12 UNK        -0.1964 
     27 N         -54.3287  -31.4549   14.7399 N.am      12 UNK        -0.4276 
     28 C         -54.8034  -31.3242   15.9862 C.2       12 UNK         0.5020 
     29 O         -56.0048  -31.3371   16.2584 O.2       12 UNK        -0.5489 
     30 CA        -53.7888  -31.1622   17.1354 C.3       11 UNK         0.0294 
     31 CB        -53.7426  -32.4415   17.9890 C.3       11 UNK        -0.2019 
     32 N         -52.4151  -30.7975   16.7602 N.am      11 UNK        -0.4493 
     33 C         -52.0341  -29.6980   16.0976 C.2       11 UNK         0.4932 
     34 O         -52.8086  -28.9168   15.5363 O.2       11 UNK        -0.5029 
     35 CA        -50.5241  -29.4368   16.0486 C.3       10 UNK         0.0280 
     36 CB        -49.8142  -30.3363   15.0193 C.3       10 UNK        -0.1976 
     37 N         -50.3228  -28.0295   15.7265 N.am      10 UNK        -0.4242 
     38 C         -49.2516  -27.2884   16.0278 C.2       10 UNK         0.5072 
     39 O         -48.2463  -27.7437   16.5754 O.2       10 UNK        -0.5224 
     40 CA        -49.3091  -25.7897   15.6668 C.3       9 UNK         0.0343 
     41 CB        -47.9517  -25.2475   15.1811 C.3       9 UNK        -0.2003 
     42 N         -50.3157  -25.4837   14.6477 N.am      9 UNK        -0.4272 
     43 C         -51.5815  -25.1111   14.8699 C.2       9 UNK         0.4988 
     44 O         -52.0813  -25.0434   15.9928 O.2       9 UNK        -0.5108 
     45 CA        -52.4120  -24.7422   13.6213 C.3       8 UNK         0.0248 
     46 CB        -53.7676  -24.1023   13.9741 C.3       8 UNK        -0.2001 
     47 N         -51.6765  -23.8437   12.7239 N.am      8 UNK        -0.4140 
     48 C         -50.7304  -24.2272   11.8582 C.2       8 UNK         0.5028 
     49 O         -50.4041  -25.4048   11.6896 O.2       8 UNK        -0.5428 
     50 CA        -49.9757  -23.1179   11.1126 C.3       7 UNK         0.0264 
     51 CB        -48.4889  -23.1268   11.5014 C.3       7 UNK        -0.1988 
     52 N         -50.1009  -23.2772    9.6653 N.am      7 UNK        -0.4454 
     53 C         -51.2405  -23.0653    8.9877 C.2       7 UNK         0.5027 
     54 O         -52.2771  -22.6799    9.5332 O.2       7 UNK        -0.5083 
     55 CA        -51.2308  -23.3268    7.4620 C.3       6 UNK         0.0844 
     56 C56       -52.3761  -22.5803    6.7136 C.3       14 UNK        -0.0967 
     57 S57       -52.6418  -23.2240    5.0256 S.3       14 UNK        -0.2604 
     58 C58       -54.0522  -24.3559    5.2884 C.3       14 UNK         0.0134 
     59 N         -49.9075  -23.1342    6.8557 N.am      6 UNK        -0.4116 
     60 C         -49.2063  -21.9922    6.8151 C.2       5 UNK         0.5034 
     61 O         -49.6398  -20.9107    7.2164 O.2       5 UNK        -0.5045 
     62 CA        -47.7730  -22.0700    6.2442 C.3       5 UNK         0.0224 
     63 CB        -46.8396  -21.0214    6.8865 C.3       5 UNK        -0.1978 
     64 N         -47.1413  -23.4000    6.3060 N.am      5 UNK        -0.4737 
     65 C         -46.9256  -24.1559    7.3946 C.2       4 UNK         0.5027 
     66 O         -47.3783  -23.8866    8.5083 O.2       4 UNK        -0.5211 
     67 CA        -46.1214  -25.4588    7.1908 C.3       4 UNK         0.0297 
     68 CB        -45.2081  -25.4411    5.9430 C.3       4 UNK        -0.1993 
     69 N         -45.3571  -25.8553    8.3807 N.am      4 UNK        -0.4486 
     70 C         -44.3713  -25.1679    8.9825 C.2       3 UNK         0.4961 
     71 O         -43.9737  -24.0664    8.5984 O.2       3 UNK        -0.5105 
     72 CA        -43.6540  -25.8437   10.1738 C.3       3 UNK         0.0299 
     73 CB        -43.1846  -24.8311   11.2419 C.3       3 UNK        -0.1972 
     74 N         -44.3979  -26.9633   10.7682 N.am      3 UNK        -0.4305 
     75 C         -45.5224  -26.8987   11.4946 C.2       2 UNK         0.5006 
     76 O         -46.0579  -25.8561   11.8716 O.2       2 UNK        -0.5106 
     77 CA        -46.1972  -28.2440   11.8097 C.3       2 UNK         0.0296 
     78 CB        -46.2585  -28.5146   13.3220 C.3       2 UNK        -0.2002 
     79 N         -47.5473  -28.2669   11.2480 N.am      2 UNK        -0.4032 
     80 C         -47.8228  -28.2356    9.9353 C.2       1 UNK         0.5000 
     81 O         -46.9477  -28.2921    9.0675 O.2       1 UNK        -0.5238 
     82 H82       -52.6719  -27.9844   11.9726 H         1 UNK         0.0889 
     83 H83       -51.3019  -27.8929   13.0825 H         1 UNK         0.0889 
     84 H84       -52.1904  -29.4071   12.8979 H         1 UNK         0.0889 
     85 H85       -50.3031  -26.9956   11.0093 H         1 UNK         0.3028 
     86 H86       -49.5392  -29.0421    9.0151 H         1 UNK         0.0864 
     87 H87       -48.7299  -26.1835    8.5950 H         1 UNK         0.0720 
     88 H88       -50.4269  -26.3792    8.7338 H         1 UNK         0.0720 
     89 H89       -51.2840  -29.1260    7.4276 H         1 UNK         0.0814 
     90 H90       -51.4025  -28.7258    5.7353 H         1 UNK         0.0814 
     91 H91       -52.3062  -26.4212    5.0599 H         1 UNK         0.1469 
     92 H92       -55.0290  -24.6076    7.8308 H         1 UNK         0.1381 
     93 H93       -52.6241  -27.9365    9.0567 H         1 UNK         0.1206 
     94 H94       -53.7122  -25.8829   10.6899 H         1 UNK         0.0813 
     95 H95       -55.2608  -25.4059   10.0307 H         1 UNK         0.0813 
     96 H96       -57.1855  -27.6685   11.9213 H         1 UNK         0.0638 
     97 H97       -56.3322  -26.1598   11.9628 H         1 UNK         0.0638 
     98 H98       -54.6451  -27.0525   13.5060 H         1 UNK         0.0568 
     99 H99       -57.6049  -25.7185   15.3482 H         1 UNK         0.3450 
    100 H100      -56.9747  -25.4119   13.7532 H         1 UNK         0.3450 
    101 H101      -54.2373  -29.1503   13.9879 H         1 UNK         0.2987 
    102 H102      -55.9607  -32.2169   13.7001 H         1 UNK         0.0766 
    103 H103      -54.9528  -31.9920   11.4329 H         1 UNK         0.0798 
    104 H104      -53.9131  -32.9299   12.4914 H         1 UNK         0.0798 
    105 H105      -53.5146  -31.2533   12.1163 H         1 UNK         0.0798 
    106 H106      -53.3280  -31.4597   14.6103 H         1 UNK         0.3198 
    107 H107      -54.1682  -30.3523   17.7622 H         1 UNK         0.0843 
    108 H108      -53.3345  -33.2843   17.4296 H         1 UNK         0.0831 
    109 H109      -54.7412  -32.7271   18.3235 H         1 UNK         0.0831 
    110 H110      -53.1349  -32.3034   18.8834 H         1 UNK         0.0831 
    111 H111      -51.6894  -31.3831   17.1494 H         1 UNK         0.3133 
    112 H112      -50.1158  -29.6319   17.0426 H         1 UNK         0.0566 
    113 H113      -48.7393  -30.1552   15.0128 H         1 UNK         0.0814 
    114 H114      -50.1824  -30.1741   14.0078 H         1 UNK         0.0814 
    115 H115      -49.9580  -31.3919   15.2523 H         1 UNK         0.0814 
    116 H116      -51.1508  -27.5720   15.3662 H         1 UNK         0.3091 
    117 H117      -49.5612  -25.2638   16.5899 H         1 UNK         0.0702 
    118 H118      -47.1510  -25.4736   15.8865 H         1 UNK         0.0785 
    119 H119      -47.9815  -24.1634   15.0714 H         1 UNK         0.0785 
    120 H120      -47.6700  -25.6653   14.2149 H         1 UNK         0.0785 
    121 H121      -50.0134  -25.5385   13.6805 H         1 UNK         0.2998 
    122 H122      -52.6179  -25.6734   13.0911 H         1 UNK         0.0697 
    123 H123      -53.6413  -23.1516   14.4934 H         1 UNK         0.0825 
    124 H124      -54.3522  -24.7513   14.6270 H         1 UNK         0.0825 
    125 H125      -54.3648  -23.9210   13.0802 H         1 UNK         0.0825 
    126 H126      -51.8708  -22.8573   12.8224 H         1 UNK         0.3029 
    127 H127      -50.3934  -22.1472   11.3886 H         1 UNK         0.0897 
    128 H128      -48.0092  -24.0692   11.2322 H         1 UNK         0.0792 
    129 H129      -48.3612  -22.9925   12.5762 H         1 UNK         0.0792 
    130 H130      -47.9430  -22.3248   11.0041 H         1 UNK         0.0792 
    131 H131      -49.2656  -23.5781    9.1709 H         1 UNK         0.3086 
    132 H132      -51.4180  -24.3960    7.3827 H         1 UNK         0.0583 
    133 H133      -53.3216  -22.6566    7.2524 H         1 UNK         0.1020 
    134 H134      -52.1651  -21.5119    6.6530 H         1 UNK         0.1020 
    135 H135      -54.9288  -23.7778    5.5853 H         1 UNK         0.0694 
    136 H136      -54.3054  -24.8372    4.3427 H         1 UNK         0.0694 
    137 H137      -49.4656  -23.9672    6.4957 H         1 UNK         0.2989 
    138 H138      -47.8665  -21.8235    5.1853 H         1 UNK         0.1055 
    139 H139      -46.7462  -21.1735    7.9627 H         1 UNK         0.0806 
    140 H140      -47.2137  -20.0086    6.7313 H         1 UNK         0.0806 
    141 H141      -45.8393  -21.0628    6.4555 H         1 UNK         0.0806 
    142 H142      -46.7635  -23.7359    5.4303 H         1 UNK         0.3061 
    143 H143      -46.8576  -26.2482    7.0396 H         1 UNK         0.0734 
    144 H144      -44.5139  -24.5998    5.9583 H         1 UNK         0.0832 
    145 H145      -44.6171  -26.3547    5.8769 H         1 UNK         0.0832 
    146 H146      -45.7882  -25.3788    5.0219 H         1 UNK         0.0832 
    147 H147      -45.6503  -26.7357    8.7925 H         1 UNK         0.3156 
    148 H148      -42.7553  -26.2929    9.7488 H         1 UNK         0.0589 
    149 H149      -42.6920  -25.3305   12.0760 H         1 UNK         0.0808 
    150 H150      -42.4686  -24.1244   10.8209 H         1 UNK         0.0808 
    151 H151      -44.0141  -24.2464   11.6405 H         1 UNK         0.0808 
    152 H152      -44.0599  -27.8811   10.5106 H         1 UNK         0.3098 
    153 H153      -45.6251  -29.0511   11.3469 H         1 UNK         0.0720 
    154 H154      -45.2626  -28.4781   13.7655 H         1 UNK         0.0791 
    155 H155      -46.6693  -29.5024   13.5307 H         1 UNK         0.0791 
    156 H156      -46.8733  -27.7827   13.8438 H         1 UNK         0.0791 
    157 H157      -48.3163  -28.1798   11.8944 H         1 UNK         0.3028 
@<TRIPOS>BOND
     1    1    2 1    
     2    1   82 1    
     3    1   83 1    
     4    1   84 1    
     5    2    3 2    
     6    2    4 am   BACKBONE|DICT|INTERRES
     7    4    5 1    
     8    4   85 1    
     9    5    6 1    
    10    5   80 1    
    11    5   86 1    
    12    6    7 1    
    13    6   87 1    
    14    6   88 1    
    15    7    8 1    
    16    8    9 1    
    17    8   89 1    
    18    8   90 1    
    19    9   10 ar   
    20    9   14 ar   
    21   10   11 ar   
    22   10   91 1    
    23   11   12 ar   
    24   11   58 1    
    25   12   13 ar   
    26   12   92 1    
    27   13   14 ar   
    28   13   15 1    
    29   14   93 1    
    30   15   16 1    
    31   15   94 1    
    32   15   95 1    
    33   16   17 1    
    34   17   18 1    
    35   17   96 1    
    36   17   97 1    
    37   18   19 1    
    38   18   22 1    
    39   18   98 1    
    40   19   20 am   BACKBONE|DICT|INTERRES
    41   19   21 2    
    42   20   99 1    
    43   20  100 1    
    44   22   23 am   BACKBONE|DICT|INTERRES
    45   22  101 1    
    46   23   24 2    
    47   23   25 1    
    48   25   26 1    
    49   25   27 1    
    50   25  102 1    
    51   26  103 1    
    52   26  104 1    
    53   26  105 1    
    54   27   28 am   BACKBONE|DICT|INTERRES
    55   27  106 1    
    56   28   29 2    
    57   28   30 1    
    58   30   31 1    
    59   30   32 1    
    60   30  107 1    
    61   31  108 1    
    62   31  109 1    
    63   31  110 1    
    64   32   33 am   BACKBONE|DICT|INTERRES
    65   32  111 1    
    66   33   34 2    
    67   33   35 1    
    68   35   36 1    
    69   35   37 1    
    70   35  112 1    
    71   36  113 1    
    72   36  114 1    
    73   36  115 1    
    74   37   38 am   BACKBONE|DICT|INTERRES
    75   37  116 1    
    76   38   39 2    
    77   38   40 1    
    78   40   41 1    
    79   40   42 1    
    80   40  117 1    
    81   41  118 1    
    82   41  119 1    
    83   41  120 1    
    84   42   43 am   BACKBONE|DICT|INTERRES
    85   42  121 1    
    86   43   44 2    
    87   43   45 1    
    88   45   46 1    
    89   45   47 1    
    90   45  122 1    
    91   46  123 1    
    92   46  124 1    
    93   46  125 1    
    94   47   48 am   BACKBONE|DICT|INTERRES
    95   47  126 1    
    96   48   49 2    
    97   48   50 1    
    98   50   51 1    
    99   50   52 1    
   100   50  127 1    
   101   51  128 1    
   102   51  129 1    
   103   51  130 1    
   104   52   53 am   BACKBONE|DICT|INTERRES
   105   52  131 1    
   106   53   54 2    
   107   53   55 1    
   108   55   56 1    
   109   55   59 1    
   110   55  132 1    
   111   56   57 1    
   112   56  133 1    
   113   56  134 1    
   114   57   58 1    
   115   58  135 1    
   116   58  136 1    
   117   59   60 am   BACKBONE|DICT|INTERRES
   118   59  137 1    
   119   60   61 2    
   120   60   62 1    
   121   62   63 1    
   122   62   64 1    
   123   62  138 1    
   124   63  139 1    
   125   63  140 1    
   126   63  141 1    
   127   64   65 am   BACKBONE|DICT|INTERRES
   128   64  142 1    
   129   65   66 2    
   130   65   67 1    
   131   67   68 1    
   132   67   69 1    
   133   67  143 1    
   134   68  144 1    
   135   68  145 1    
   136   68  146 1    
   137   69   70 am   BACKBONE|DICT|INTERRES
   138   69  147 1    
   139   70   71 2    
   140   70   72 1    
   141   72   73 1    
   142   72   74 1    
   143   72  148 1    
   144   73  149 1    
   145   73  150 1    
   146   73  151 1    
   147   74   75 am   BACKBONE|DICT|INTERRES
   148   74  152 1    
   149   75   76 2    
   150   75   77 1    
   151   77   78 1    
   152   77   79 1    
   153   77  153 1    
   154   78  154 1    
   155   78  155 1    
   156   78  156 1    
   157   79   80 am   BACKBONE|DICT|INTERRES
   158   79  157 1    
   159   80   81 2    
@<TRIPOS>SUBSTRUCTURE
     1 UNK         1 GROUP             0       ****    0 ROOT    
