@<TRIPOS>MOLECULE
3R207
157   159    1
SMALL
USER_CHARGES


@<TRIPOS>ATOM
      1 CA        -52.0021  -23.8152   10.2274 C.3       0 UNK        -0.1975 
      2 C         -52.4815  -23.4224    8.8322 C.2       0 UNK         0.4852 
      3 O         -53.2997  -22.5133    8.7122 O.2       0 UNK        -0.5216 
      4 N         -52.0071  -24.0603    7.7504 N.am      1 UNK        -0.4461 
      5 CA        -51.0317  -25.1614    7.7054 C.3       1 UNK         0.0864 
      6 C6        -50.9956  -25.8514    6.3192 C.3       14 UNK        -0.0898 
      7 S7        -52.6348  -26.4145    5.7493 S.3       14 UNK        -0.2598 
      8 C8        -52.5208  -28.2198    5.9539 C.3       14 UNK         0.0286 
      9 C9        -52.7947  -28.6544    7.3866 C.ar      14 UNK        -0.0844 
     10 C10       -51.7491  -29.0655    8.2214 C.ar      14 UNK        -0.0881 
     11 C11       -52.0186  -29.5244    9.5154 C.ar      14 UNK        -0.0643 
     12 C12       -53.3367  -29.5580    9.9722 C.ar      14 UNK        -0.0930 
     13 C13       -54.3871  -29.1368    9.1551 C.ar      14 UNK        -0.0827 
     14 C14       -54.1107  -28.6875    7.8612 C.ar      14 UNK        -0.1249 
     15 C15       -55.8132  -29.1803    9.6782 C.3       14 UNK         0.0141 
     16 S16       -56.4215  -30.8922    9.7603 S.3       14 UNK        -0.2313 
     17 C17       -57.5121  -30.8160   11.2238 C.3       14 UNK        -0.0915 
     18 CA        -56.8764  -31.4147   12.5089 C.3       13 UNK         0.0968 
     19 C         -56.7462  -32.9662   12.4384 C.2       13 UNK         0.5732 
     20 N         -55.5512  -33.5410   12.5105 N.am      13 UNK        -0.7310 
     21 O         -57.7537  -33.6617   12.3310 O.2       13 UNK        -0.5035 
     22 N         -55.6516  -30.6947   12.8994 N.am      13 UNK        -0.4233 
     23 C         -55.1294  -30.6881   14.1326 C.2       13 UNK         0.4989 
     24 O         -55.6302  -31.2839   15.0872 O.2       13 UNK        -0.4996 
     25 CA        -53.8214  -29.9011   14.3556 C.3       12 UNK         0.0216 
     26 CB        -52.6166  -30.8499   14.2351 C.3       12 UNK        -0.1964 
     27 N         -53.5935  -28.7337   13.4916 N.am      12 UNK        -0.4276 
     28 C         -54.4243  -27.6951   13.3205 C.2       12 UNK         0.5020 
     29 O         -55.5726  -27.6516   13.7637 O.2       12 UNK        -0.5489 
     30 CA        -53.8455  -26.4951   12.5472 C.3       11 UNK         0.0294 
     31 CB        -54.8824  -25.8223   11.6206 C.3       11 UNK        -0.2019 
     32 N         -53.2380  -25.5351   13.4788 N.am      11 UNK        -0.4493 
     33 C         -53.8537  -24.7692   14.3973 C.2       11 UNK         0.4932 
     34 O         -55.0752  -24.6509   14.5036 O.2       11 UNK        -0.5029 
     35 CA        -52.9340  -23.9922   15.3627 C.3       10 UNK         0.0280 
     36 CB        -53.6834  -23.3994   16.5750 C.3       10 UNK        -0.1976 
     37 N         -51.7767  -24.7779   15.8027 N.am      10 UNK        -0.4242 
     38 C         -51.7752  -25.9544   16.4517 C.2       10 UNK         0.5072 
     39 O         -52.7916  -26.5122   16.8666 O.2       10 UNK        -0.5224 
     40 CA        -50.4148  -26.6519   16.6507 C.3       9 UNK         0.0343 
     41 CB        -50.3975  -28.0065   15.9203 C.3       9 UNK        -0.2003 
     42 N         -49.2949  -25.8448   16.1603 N.am      9 UNK        -0.4272 
     43 C         -48.5690  -24.9962   16.9022 C.2       9 UNK         0.4988 
     44 O         -48.7057  -24.8577   18.1178 O.2       9 UNK        -0.5108 
     45 CA        -47.5277  -24.1362   16.1588 C.3       8 UNK         0.0248 
     46 CB        -46.1533  -24.8246   16.1734 C.3       8 UNK        -0.2001 
     47 N         -47.9031  -23.8378   14.7726 N.am      8 UNK        -0.4140 
     48 C         -48.9575  -23.0900   14.4095 C.2       8 UNK         0.5028 
     49 O         -49.6934  -22.5145   15.2094 O.2       8 UNK        -0.5428 
     50 CA        -49.3031  -23.0414   12.9099 C.3       7 UNK         0.0264 
     51 CB        -48.6348  -21.8365   12.2306 C.3       7 UNK        -0.1988 
     52 N         -48.9357  -24.2699   12.2003 N.am      7 UNK        -0.4454 
     53 C         -49.4441  -25.4847   12.4572 C.2       7 UNK         0.5027 
     54 O         -50.3658  -25.6693   13.2526 O.2       7 UNK        -0.5083 
     55 CA        -48.8113  -26.6946   11.7412 C.3       6 UNK         0.0844 
     56 C56       -49.8480  -27.4555   10.8781 C.3       14 UNK        -0.0967 
     57 S57       -50.6152  -28.8327   11.7881 S.3       14 UNK        -0.2604 
     58 C58       -50.9024  -30.0063   10.4287 C.3       14 UNK         0.0134 
     59 N         -47.6210  -26.3422   10.9635 N.am      6 UNK        -0.4116 
     60 C         -46.4000  -26.1172   11.4695 C.2       5 UNK         0.5034 
     61 O         -46.1713  -26.0720   12.6793 O.2       5 UNK        -0.5045 
     62 CA        -45.2584  -25.8580   10.4644 C.3       5 UNK         0.0224 
     63 CB        -43.9083  -26.4283   10.9475 C.3       5 UNK        -0.1978 
     64 N         -45.5661  -26.2972    9.0942 N.am      5 UNK        -0.4737 
     65 C         -45.7854  -27.5499    8.6572 C.2       4 UNK         0.5027 
     66 O         -45.6661  -28.5487    9.3664 O.2       4 UNK        -0.5211 
     67 CA        -46.2646  -27.7241    7.2019 C.3       4 UNK         0.0297 
     68 CB        -47.5334  -28.5955    7.1423 C.3       4 UNK        -0.1993 
     69 N         -46.5603  -26.4382    6.5673 N.am      4 UNK        -0.4486 
     70 C         -45.7473  -25.7794    5.7302 C.2       3 UNK         0.4961 
     71 O         -44.6703  -26.2217    5.3305 O.2       3 UNK        -0.5105 
     72 CA        -46.1986  -24.3778    5.2715 C.3       3 UNK         0.0299 
     73 CB        -46.8409  -24.4545    3.8770 C.3       3 UNK        -0.1972 
     74 N         -47.1315  -23.7199    6.1938 N.am      3 UNK        -0.4305 
     75 C         -46.8458  -23.3573    7.4533 C.2       2 UNK         0.5006 
     76 O         -45.7403  -23.5029    7.9732 O.2       2 UNK        -0.5106 
     77 CA        -48.0070  -22.8121    8.3029 C.3       2 UNK         0.0296 
     78 CB        -48.1020  -21.2840    8.1729 C.3       2 UNK        -0.2002 
     79 N         -49.3071  -23.4142    7.9840 N.am      2 UNK        -0.4032 
     80 C         -49.6021  -24.7202    8.0845 C.2       1 UNK         0.5000 
     81 O         -48.7868  -25.5709    8.4456 O.2       1 UNK        -0.5238 
     82 H82       -50.9704  -23.5046   10.3796 H         1 UNK         0.0889 
     83 H83       -52.6061  -23.3235   10.9898 H         1 UNK         0.0889 
     84 H84       -52.0820  -24.8882   10.3903 H         1 UNK         0.0889 
     85 H85       -52.3803  -23.7968    6.8489 H         1 UNK         0.3028 
     86 H86       -51.3429  -25.9144    8.4302 H         1 UNK         0.0864 
     87 H87       -50.3107  -26.7018    6.3325 H         1 UNK         0.0720 
     88 H88       -50.6080  -25.1680    5.5609 H         1 UNK         0.0720 
     89 H89       -51.5480  -28.5770    5.6124 H         1 UNK         0.0814 
     90 H90       -53.2554  -28.6880    5.2970 H         1 UNK         0.0814 
     91 H91       -50.7311  -29.0485    7.8578 H         1 UNK         0.1469 
     92 H92       -53.5407  -29.9272   10.9654 H         1 UNK         0.1381 
     93 H93       -54.9197  -28.3720    7.2163 H         1 UNK         0.1206 
     94 H94       -55.8423  -28.7236   10.6673 H         1 UNK         0.0813 
     95 H95       -56.4812  -28.5911    9.0480 H         1 UNK         0.0813 
     96 H96       -58.4407  -31.3356   10.9808 H         1 UNK         0.0638 
     97 H97       -57.8055  -29.7810   11.4058 H         1 UNK         0.0638 
     98 H98       -57.5989  -31.2393   13.3084 H         1 UNK         0.0568 
     99 H99       -55.4851  -34.5456   12.4695 H         1 UNK         0.3450 
    100 H100      -54.7188  -32.9827   12.5986 H         1 UNK         0.3450 
    101 H101      -55.1848  -30.1860   12.1676 H         1 UNK         0.2987 
    102 H102      -53.8535  -29.5242   15.3801 H         1 UNK         0.0766 
    103 H103      -52.5017  -31.2300   13.2193 H         1 UNK         0.0798 
    104 H104      -52.7277  -31.7115   14.8952 H         1 UNK         0.0798 
    105 H105      -51.6861  -30.3546   14.5115 H         1 UNK         0.0798 
    106 H106      -52.6671  -28.6668   13.0887 H         1 UNK         0.3198 
    107 H107      -53.0352  -26.8564   11.9118 H         1 UNK         0.0843 
    108 H108      -55.8026  -25.5666   12.1467 H         1 UNK         0.0831 
    109 H109      -55.1545  -26.4827   10.7985 H         1 UNK         0.0831 
    110 H110      -54.4940  -24.9065   11.1788 H         1 UNK         0.0831 
    111 H111      -52.2196  -25.5533   13.5024 H         1 UNK         0.3133 
    112 H112      -52.5300  -23.1579   14.7874 H         1 UNK         0.0566 
    113 H113      -53.0080  -22.8416   17.2237 H         1 UNK         0.0814 
    114 H114      -54.4646  -22.7098   16.2532 H         1 UNK         0.0814 
    115 H115      -54.1612  -24.1751   17.1743 H         1 UNK         0.0814 
    116 H116      -50.8802  -24.3976   15.5294 H         1 UNK         0.3091 
    117 H117      -50.2959  -26.8392   17.7199 H         1 UNK         0.0702 
    118 H118      -49.4492  -28.5243   16.0645 H         1 UNK         0.0785 
    119 H119      -50.5572  -27.8905   14.8477 H         1 UNK         0.0785 
    120 H120      -51.1835  -28.6622   16.2972 H         1 UNK         0.0785 
    121 H121      -49.1336  -25.8789   15.1631 H         1 UNK         0.2998 
    122 H122      -47.4423  -23.1881   16.6940 H         1 UNK         0.0697 
    123 H123      -46.1676  -25.7686   15.6264 H         1 UNK         0.0825 
    124 H124      -45.8365  -25.0434   17.1942 H         1 UNK         0.0825 
    125 H125      -45.3868  -24.1910   15.7268 H         1 UNK         0.0825 
    126 H126      -47.3524  -24.2828   14.0505 H         1 UNK         0.3029 
    127 H127      -50.3860  -22.9208   12.8332 H         1 UNK         0.0897 
    128 H128      -47.5474  -21.9218   12.2272 H         1 UNK         0.0792 
    129 H129      -48.8872  -20.9090   12.7467 H         1 UNK         0.0792 
    130 H130      -48.9693  -21.7288   11.1992 H         1 UNK         0.0792 
    131 H131      -48.1829  -24.2048   11.5324 H         1 UNK         0.3086 
    132 H132      -48.4680  -27.3623   12.5347 H         1 UNK         0.0583 
    133 H133      -50.6320  -26.8024   10.4953 H         1 UNK         0.1020 
    134 H134      -49.3632  -27.8728    9.9944 H         1 UNK         0.1020 
    135 H135      -49.9773  -30.1677    9.8729 H         1 UNK         0.0694 
    136 H136      -51.1760  -30.9742   10.8512 H         1 UNK         0.0694 
    137 H137      -47.7515  -26.2809    9.9584 H         1 UNK         0.2989 
    138 H138      -45.1525  -24.7731   10.4136 H         1 UNK         0.1055 
    139 H139      -43.6076  -25.9746   11.8928 H         1 UNK         0.0806 
    140 H140      -43.1136  -26.2300   10.2284 H         1 UNK         0.0806 
    141 H141      -43.9551  -27.5056   11.1085 H         1 UNK         0.0806 
    142 H142      -45.6693  -25.5406    8.4262 H         1 UNK         0.3061 
    143 H143      -45.4701  -28.2404    6.6593 H         1 UNK         0.0734 
    144 H144      -47.8717  -28.7331    6.1152 H         1 UNK         0.0832 
    145 H145      -47.3495  -29.5882    7.5553 H         1 UNK         0.0832 
    146 H146      -48.3533  -28.1541    7.7087 H         1 UNK         0.0832 
    147 H147      -47.4096  -25.9841    6.8814 H         1 UNK         0.3156 
    148 H148      -45.3049  -23.7540    5.2032 H         1 UNK         0.0589 
    149 H149      -47.7545  -25.0504    3.8841 H         1 UNK         0.0808 
    150 H150      -47.0876  -23.4628    3.4971 H         1 UNK         0.0808 
    151 H151      -46.1596  -24.9128    3.1584 H         1 UNK         0.0808 
    152 H152      -48.0643  -23.5488    5.8479 H         1 UNK         0.3098 
    153 H153      -47.7833  -23.0516    9.3442 H         1 UNK         0.0720 
    154 H154      -48.8694  -20.8740    8.8296 H         1 UNK         0.0791 
    155 H155      -48.3361  -20.9780    7.1524 H         1 UNK         0.0791 
    156 H156      -47.1580  -20.8101    8.4465 H         1 UNK         0.0791 
    157 H157      -50.0318  -22.7870    7.6640 H         1 UNK         0.3028 
@<TRIPOS>BOND
     1    1    2 1    
     2    1   82 1    
     3    1   83 1    
     4    1   84 1    
     5    2    3 2    
     6    2    4 am   BACKBONE|DICT|INTERRES
     7    4    5 1    
     8    4   85 1    
     9    5    6 1    
    10    5   80 1    
    11    5   86 1    
    12    6    7 1    
    13    6   87 1    
    14    6   88 1    
    15    7    8 1    
    16    8    9 1    
    17    8   89 1    
    18    8   90 1    
    19    9   10 ar   
    20    9   14 ar   
    21   10   11 ar   
    22   10   91 1    
    23   11   12 ar   
    24   11   58 1    
    25   12   13 ar   
    26   12   92 1    
    27   13   14 ar   
    28   13   15 1    
    29   14   93 1    
    30   15   16 1    
    31   15   94 1    
    32   15   95 1    
    33   16   17 1    
    34   17   18 1    
    35   17   96 1    
    36   17   97 1    
    37   18   19 1    
    38   18   22 1    
    39   18   98 1    
    40   19   20 am   BACKBONE|DICT|INTERRES
    41   19   21 2    
    42   20   99 1    
    43   20  100 1    
    44   22   23 am   BACKBONE|DICT|INTERRES
    45   22  101 1    
    46   23   24 2    
    47   23   25 1    
    48   25   26 1    
    49   25   27 1    
    50   25  102 1    
    51   26  103 1    
    52   26  104 1    
    53   26  105 1    
    54   27   28 am   BACKBONE|DICT|INTERRES
    55   27  106 1    
    56   28   29 2    
    57   28   30 1    
    58   30   31 1    
    59   30   32 1    
    60   30  107 1    
    61   31  108 1    
    62   31  109 1    
    63   31  110 1    
    64   32   33 am   BACKBONE|DICT|INTERRES
    65   32  111 1    
    66   33   34 2    
    67   33   35 1    
    68   35   36 1    
    69   35   37 1    
    70   35  112 1    
    71   36  113 1    
    72   36  114 1    
    73   36  115 1    
    74   37   38 am   BACKBONE|DICT|INTERRES
    75   37  116 1    
    76   38   39 2    
    77   38   40 1    
    78   40   41 1    
    79   40   42 1    
    80   40  117 1    
    81   41  118 1    
    82   41  119 1    
    83   41  120 1    
    84   42   43 am   BACKBONE|DICT|INTERRES
    85   42  121 1    
    86   43   44 2    
    87   43   45 1    
    88   45   46 1    
    89   45   47 1    
    90   45  122 1    
    91   46  123 1    
    92   46  124 1    
    93   46  125 1    
    94   47   48 am   BACKBONE|DICT|INTERRES
    95   47  126 1    
    96   48   49 2    
    97   48   50 1    
    98   50   51 1    
    99   50   52 1    
   100   50  127 1    
   101   51  128 1    
   102   51  129 1    
   103   51  130 1    
   104   52   53 am   BACKBONE|DICT|INTERRES
   105   52  131 1    
   106   53   54 2    
   107   53   55 1    
   108   55   56 1    
   109   55   59 1    
   110   55  132 1    
   111   56   57 1    
   112   56  133 1    
   113   56  134 1    
   114   57   58 1    
   115   58  135 1    
   116   58  136 1    
   117   59   60 am   BACKBONE|DICT|INTERRES
   118   59  137 1    
   119   60   61 2    
   120   60   62 1    
   121   62   63 1    
   122   62   64 1    
   123   62  138 1    
   124   63  139 1    
   125   63  140 1    
   126   63  141 1    
   127   64   65 am   BACKBONE|DICT|INTERRES
   128   64  142 1    
   129   65   66 2    
   130   65   67 1    
   131   67   68 1    
   132   67   69 1    
   133   67  143 1    
   134   68  144 1    
   135   68  145 1    
   136   68  146 1    
   137   69   70 am   BACKBONE|DICT|INTERRES
   138   69  147 1    
   139   70   71 2    
   140   70   72 1    
   141   72   73 1    
   142   72   74 1    
   143   72  148 1    
   144   73  149 1    
   145   73  150 1    
   146   73  151 1    
   147   74   75 am   BACKBONE|DICT|INTERRES
   148   74  152 1    
   149   75   76 2    
   150   75   77 1    
   151   77   78 1    
   152   77   79 1    
   153   77  153 1    
   154   78  154 1    
   155   78  155 1    
   156   78  156 1    
   157   79   80 am   BACKBONE|DICT|INTERRES
   158   79  157 1    
   159   80   81 2    
@<TRIPOS>SUBSTRUCTURE
     1 UNK         1 GROUP             0       ****    0 ROOT    
