@<TRIPOS>MOLECULE
3R207
157   159    1
SMALL
USER_CHARGES


@<TRIPOS>ATOM
      1 CA        -45.2305  -29.9813    4.3363 C.3       0 UNK        -0.1975 
      2 C         -45.6221  -30.2952    5.7787 C.2       0 UNK         0.4852 
      3 O         -44.9197  -31.0588    6.4397 O.2       0 UNK        -0.5216 
      4 N         -46.7304  -29.7573    6.3074 N.am      1 UNK        -0.4461 
      5 CA        -47.6455  -28.7924    5.6804 C.3       1 UNK         0.0864 
      6 C6        -49.0025  -28.6927    6.4348 C.3       14 UNK        -0.0898 
      7 S7        -49.7573  -30.2943    6.8814 S.3       14 UNK        -0.2598 
      8 C8        -50.0086  -30.0886    8.6795 C.3       14 UNK         0.0286 
      9 C9        -51.3514  -29.4512    9.0299 C.ar      14 UNK        -0.0844 
     10 C10       -51.7125  -28.1951    8.5281 C.ar      14 UNK        -0.0881 
     11 C11       -52.9297  -27.6053    8.8814 C.ar      14 UNK        -0.0643 
     12 C12       -53.7954  -28.2808    9.7455 C.ar      14 UNK        -0.0930 
     13 C13       -53.4483  -29.5345   10.2566 C.ar      14 UNK        -0.0827 
     14 C14       -52.2280  -30.1134    9.8956 C.ar      14 UNK        -0.1249 
     15 C15       -54.3863  -30.2569   11.2093 C.3       14 UNK         0.0141 
     16 S16       -54.2251  -29.5872   12.8882 S.3       14 UNK        -0.2313 
     17 C17       -55.3071  -30.7103   13.8338 C.3       14 UNK        -0.0915 
     18 CA        -56.7942  -30.2709   13.8338 C.3       13 UNK         0.0968 
     19 C         -57.6464  -31.2167   14.7231 C.2       13 UNK         0.5732 
     20 N         -58.1494  -32.3083   14.1628 N.am      13 UNK        -0.7310 
     21 O         -57.8181  -30.9936   15.9206 O.2       13 UNK        -0.5035 
     22 N         -56.9309  -28.8549   14.1931 N.am      13 UNK        -0.4233 
     23 C         -58.0512  -28.1301   14.1078 C.2       13 UNK         0.4989 
     24 O         -59.1431  -28.5804   13.7573 O.2       13 UNK        -0.4996 
     25 CA        -57.9284  -26.6335   14.4428 C.3       12 UNK         0.0216 
     26 CB        -58.2902  -26.3815   15.9155 C.3       12 UNK        -0.1964 
     27 N         -56.6036  -26.0643   14.1698 N.am      12 UNK        -0.4276 
     28 C         -56.0225  -25.9522   12.9694 C.2       12 UNK         0.5020 
     29 O         -56.5401  -26.3598   11.9287 O.2       12 UNK        -0.5489 
     30 CA        -54.6512  -25.2493   12.8859 C.3       11 UNK         0.0294 
     31 CB        -54.8349  -23.7556   12.5609 C.3       11 UNK        -0.2019 
     32 N         -53.7223  -25.4079   14.0174 N.am      11 UNK        -0.4493 
     33 C         -53.8672  -25.0906   15.3127 C.2       11 UNK         0.4932 
     34 O         -54.9190  -24.6755   15.8014 O.2       11 UNK        -0.5029 
     35 CA        -52.6243  -25.2203   16.2158 C.3       10 UNK         0.0280 
     36 CB        -52.9811  -25.5743   17.6757 C.3       10 UNK        -0.1976 
     37 N         -51.5803  -26.1072   15.6876 N.am      10 UNK        -0.4242 
     38 C         -51.6225  -27.4411   15.5389 C.2       10 UNK         0.5072 
     39 O         -52.5917  -28.1307   15.8575 O.2       10 UNK        -0.5224 
     40 CA        -50.3826  -28.1376   14.9354 C.3       9 UNK         0.0343 
     41 CB        -50.7395  -28.8656   13.6292 C.3       9 UNK        -0.2003 
     42 N         -49.2641  -27.2290   14.6714 N.am      9 UNK        -0.4272 
     43 C         -48.4049  -26.7728   15.5929 C.2       9 UNK         0.4988 
     44 O         -48.4171  -27.1221   16.7735 O.2       9 UNK        -0.5108 
     45 CA        -47.3844  -25.7165   15.1284 C.3       8 UNK         0.0248 
     46 CB        -46.1358  -26.3923   14.5414 C.3       8 UNK        -0.2001 
     47 N         -47.9373  -24.7593   14.1613 N.am      8 UNK        -0.4140 
     48 C         -48.9590  -23.9284   14.4213 C.2       8 UNK         0.5028 
     49 O         -49.5190  -23.8571   15.5151 O.2       8 UNK        -0.5428 
     50 CA        -49.4865  -23.0690   13.2618 C.3       7 UNK         0.0264 
     51 CB        -48.5930  -21.8383   13.0418 C.3       7 UNK        -0.1988 
     52 N         -49.6216  -23.8174   12.0108 N.am      7 UNK        -0.4454 
     53 C         -50.4346  -24.8704   11.8326 C.2       7 UNK         0.5027 
     54 O         -51.1839  -25.3101   12.7054 O.2       7 UNK        -0.5083 
     55 CA        -50.3451  -25.5983   10.4747 C.3       6 UNK         0.0844 
     56 C56       -51.0689  -24.8304    9.3410 C.3       14 UNK        -0.0967 
     57 S57       -52.8868  -24.8948    9.4782 S.3       14 UNK        -0.2604 
     58 C58       -53.3123  -26.2403    8.3278 C.3       14 UNK         0.0134 
     59 N         -48.9569  -25.9048   10.1192 N.am      6 UNK        -0.4116 
     60 C         -48.1336  -26.6685   10.8540 C.2       5 UNK         0.5034 
     61 O         -48.4768  -27.2747   11.8669 O.2       5 UNK        -0.5045 
     62 CA        -46.6617  -26.7254   10.4223 C.3       5 UNK         0.0224 
     63 CB        -46.4292  -27.8569    9.4155 C.3       5 UNK        -0.1978 
     64 N         -46.1983  -25.4502    9.8703 N.am      5 UNK        -0.4737 
     65 C         -45.9940  -24.3576   10.6198 C.2       4 UNK         0.5027 
     66 O         -46.1564  -24.3270   11.8400 O.2       4 UNK        -0.5211 
     67 CA        -45.5818  -23.0768    9.8776 C.3       4 UNK         0.0297 
     68 CB        -44.1095  -23.1465    9.4414 C.3       4 UNK        -0.1993 
     69 N         -46.4305  -22.7929    8.7173 N.am      4 UNK        -0.4486 
     70 C         -47.7436  -22.5312    8.7829 C.2       3 UNK         0.4961 
     71 O         -48.3884  -22.5125    9.8297 O.2       3 UNK        -0.5105 
     72 CA        -48.4752  -22.2683    7.4568 C.3       3 UNK         0.0299 
     73 CB        -48.4122  -20.7751    7.0986 C.3       3 UNK        -0.1972 
     74 N         -47.9885  -23.0654    6.3265 N.am      3 UNK        -0.4305 
     75 C         -47.9859  -24.4044    6.2718 C.2       2 UNK         0.5006 
     76 O         -48.3318  -25.1243    7.2151 O.2       2 UNK        -0.5106 
     77 CA        -47.5577  -25.0161    4.9201 C.3       2 UNK         0.0296 
     78 CB        -46.1321  -24.5859    4.5061 C.3       2 UNK        -0.2002 
     79 N         -47.7214  -26.4763    4.8945 N.am      2 UNK        -0.4032 
     80 C         -47.0149  -27.3831    5.5859 C.2       1 UNK         0.5000 
     81 O         -45.9615  -27.1331    6.1785 O.2       1 UNK        -0.5238 
     82 H82       -44.3971  -30.6104    4.0240 H         1 UNK         0.0889 
     83 H83       -44.9149  -28.9434    4.2369 H         1 UNK         0.0889 
     84 H84       -46.0555  -30.1697    3.6506 H         1 UNK         0.0889 
     85 H85       -46.9620  -29.9961    7.2594 H         1 UNK         0.3028 
     86 H86       -47.8558  -29.1349    4.6659 H         1 UNK         0.0864 
     87 H87       -48.8898  -28.0919    7.3377 H         1 UNK         0.0720 
     88 H88       -49.7328  -28.1607    5.8226 H         1 UNK         0.0720 
     89 H89       -49.2014  -29.5006    9.1177 H         1 UNK         0.0814 
     90 H90       -49.9339  -31.0768    9.1358 H         1 UNK         0.0814 
     91 H91       -51.0466  -27.6626    7.8677 H         1 UNK         0.1469 
     92 H92       -54.7336  -27.8245   10.0328 H         1 UNK         0.1381 
     93 H93       -51.9571  -31.0787   10.3012 H         1 UNK         0.1206 
     94 H94       -55.4177  -30.1476   10.8708 H         1 UNK         0.0813 
     95 H95       -54.1709  -31.3265   11.2187 H         1 UNK         0.0813 
     96 H96       -55.2029  -31.7224   13.4387 H         1 UNK         0.0638 
     97 H97       -54.9230  -30.7428   14.8553 H         1 UNK         0.0638 
     98 H98       -57.1663  -30.3617   12.8115 H         1 UNK         0.0568 
     99 H99       -58.6918  -32.9423   14.7285 H         1 UNK         0.3450 
    100 H100      -58.0045  -32.5091   13.1856 H         1 UNK         0.3450 
    101 H101      -56.0818  -28.3946   14.4843 H         1 UNK         0.2987 
    102 H102      -58.6476  -26.1013   13.8169 H         1 UNK         0.0766 
    103 H103      -58.2982  -25.3159   16.1456 H         1 UNK         0.0798 
    104 H104      -57.5843  -26.8653   16.5921 H         1 UNK         0.0798 
    105 H105      -59.2832  -26.7698   16.1466 H         1 UNK         0.0798 
    106 H106      -56.1064  -25.6382   14.9520 H         1 UNK         0.3198 
    107 H107      -54.1372  -25.7092   12.0406 H         1 UNK         0.0843 
    108 H108      -55.3163  -23.2187   13.3789 H         1 UNK         0.0831 
    109 H109      -55.4537  -23.6227   11.6723 H         1 UNK         0.0831 
    110 H110      -53.8765  -23.2766   12.3594 H         1 UNK         0.0831 
    111 H111      -52.7864  -25.6869   13.7306 H         1 UNK         0.3133 
    112 H112      -52.1751  -24.2266   16.2293 H         1 UNK         0.0566 
    113 H113      -52.0875  -25.6513   18.2950 H         1 UNK         0.0814 
    114 H114      -53.6157  -24.8069   18.1206 H         1 UNK         0.0814 
    115 H115      -53.5215  -26.5187   17.7446 H         1 UNK         0.0814 
    116 H116      -50.7390  -25.6287   15.3854 H         1 UNK         0.3091 
    117 H117      -50.0526  -28.8875   15.6571 H         1 UNK         0.0702 
    118 H118      -51.4710  -29.6522   13.8128 H         1 UNK         0.0785 
    119 H119      -51.1636  -28.1856   12.8885 H         1 UNK         0.0785 
    120 H120      -49.8655  -29.3412   13.1841 H         1 UNK         0.0785 
    121 H121      -49.1391  -26.9440   13.7038 H         1 UNK         0.2998 
    122 H122      -47.0779  -25.1467   16.0081 H         1 UNK         0.0697 
    123 H123      -46.3795  -27.0003   13.6706 H         1 UNK         0.0825 
    124 H124      -45.6683  -27.0499   15.2755 H         1 UNK         0.0825 
    125 H125      -45.3883  -25.6578   14.2409 H         1 UNK         0.0825 
    126 H126      -47.4904  -24.7156   13.2491 H         1 UNK         0.3029 
    127 H127      -50.4828  -22.7193   13.5409 H         1 UNK         0.0897 
    128 H128      -49.0158  -21.1728   12.2889 H         1 UNK         0.0792 
    129 H129      -47.5917  -22.1186   12.7128 H         1 UNK         0.0792 
    130 H130      -48.4870  -21.2618   13.9618 H         1 UNK         0.0792 
    131 H131      -49.0613  -23.4869   11.2263 H         1 UNK         0.3086 
    132 H132      -50.8415  -26.5616   10.6053 H         1 UNK         0.0583 
    133 H133      -50.7615  -23.7839    9.3205 H         1 UNK         0.1020 
    134 H134      -50.7836  -25.2344    8.3690 H         1 UNK         0.1020 
    135 H135      -54.3873  -26.2123    8.1432 H         1 UNK         0.0694 
    136 H136      -52.8360  -26.0664    7.3616 H         1 UNK         0.0694 
    137 H137      -48.5928  -25.4671    9.2800 H         1 UNK         0.2989 
    138 H138      -46.0659  -26.9450   11.3106 H         1 UNK         0.1055 
    139 H139      -46.7212  -28.8208    9.8343 H         1 UNK         0.0806 
    140 H140      -45.3801  -27.9295    9.1281 H         1 UNK         0.0806 
    141 H141      -47.0125  -27.7001    8.5127 H         1 UNK         0.0806 
    142 H142      -46.0813  -25.3925    8.8678 H         1 UNK         0.3061 
    143 H143      -45.6890  -22.2446   10.5770 H         1 UNK         0.0734 
    144 H144      -43.7798  -22.2033    9.0055 H         1 UNK         0.0832 
    145 H145      -43.4607  -23.3504   10.2945 H         1 UNK         0.0832 
    146 H146      -43.9382  -23.9345    8.7069 H         1 UNK         0.0832 
    147 H147      -45.9883  -22.7946    7.8099 H         1 UNK         0.3156 
    148 H148      -49.5236  -22.5323    7.6076 H         1 UNK         0.0589 
    149 H149      -47.3915  -20.4501    6.8926 H         1 UNK         0.0808 
    150 H150      -49.0209  -20.5498    6.2227 H         1 UNK         0.0808 
    151 H151      -48.7899  -20.1615    7.9180 H         1 UNK         0.0808 
    152 H152      -47.6978  -22.5501    5.5079 H         1 UNK         0.3098 
    153 H153      -48.2519  -24.6318    4.1712 H         1 UNK         0.0720 
    154 H154      -45.8045  -25.1120    3.6094 H         1 UNK         0.0791 
    155 H155      -45.4002  -24.7774    5.2913 H         1 UNK         0.0791 
    156 H156      -46.0893  -23.5197    4.2821 H         1 UNK         0.0791 
    157 H157      -48.5714  -26.7905    4.4479 H         1 UNK         0.3028 
@<TRIPOS>BOND
     1    1    2 1    
     2    1   82 1    
     3    1   83 1    
     4    1   84 1    
     5    2    3 2    
     6    2    4 am   BACKBONE|DICT|INTERRES
     7    4    5 1    
     8    4   85 1    
     9    5    6 1    
    10    5   80 1    
    11    5   86 1    
    12    6    7 1    
    13    6   87 1    
    14    6   88 1    
    15    7    8 1    
    16    8    9 1    
    17    8   89 1    
    18    8   90 1    
    19    9   10 ar   
    20    9   14 ar   
    21   10   11 ar   
    22   10   91 1    
    23   11   12 ar   
    24   11   58 1    
    25   12   13 ar   
    26   12   92 1    
    27   13   14 ar   
    28   13   15 1    
    29   14   93 1    
    30   15   16 1    
    31   15   94 1    
    32   15   95 1    
    33   16   17 1    
    34   17   18 1    
    35   17   96 1    
    36   17   97 1    
    37   18   19 1    
    38   18   22 1    
    39   18   98 1    
    40   19   20 am   BACKBONE|DICT|INTERRES
    41   19   21 2    
    42   20   99 1    
    43   20  100 1    
    44   22   23 am   BACKBONE|DICT|INTERRES
    45   22  101 1    
    46   23   24 2    
    47   23   25 1    
    48   25   26 1    
    49   25   27 1    
    50   25  102 1    
    51   26  103 1    
    52   26  104 1    
    53   26  105 1    
    54   27   28 am   BACKBONE|DICT|INTERRES
    55   27  106 1    
    56   28   29 2    
    57   28   30 1    
    58   30   31 1    
    59   30   32 1    
    60   30  107 1    
    61   31  108 1    
    62   31  109 1    
    63   31  110 1    
    64   32   33 am   BACKBONE|DICT|INTERRES
    65   32  111 1    
    66   33   34 2    
    67   33   35 1    
    68   35   36 1    
    69   35   37 1    
    70   35  112 1    
    71   36  113 1    
    72   36  114 1    
    73   36  115 1    
    74   37   38 am   BACKBONE|DICT|INTERRES
    75   37  116 1    
    76   38   39 2    
    77   38   40 1    
    78   40   41 1    
    79   40   42 1    
    80   40  117 1    
    81   41  118 1    
    82   41  119 1    
    83   41  120 1    
    84   42   43 am   BACKBONE|DICT|INTERRES
    85   42  121 1    
    86   43   44 2    
    87   43   45 1    
    88   45   46 1    
    89   45   47 1    
    90   45  122 1    
    91   46  123 1    
    92   46  124 1    
    93   46  125 1    
    94   47   48 am   BACKBONE|DICT|INTERRES
    95   47  126 1    
    96   48   49 2    
    97   48   50 1    
    98   50   51 1    
    99   50   52 1    
   100   50  127 1    
   101   51  128 1    
   102   51  129 1    
   103   51  130 1    
   104   52   53 am   BACKBONE|DICT|INTERRES
   105   52  131 1    
   106   53   54 2    
   107   53   55 1    
   108   55   56 1    
   109   55   59 1    
   110   55  132 1    
   111   56   57 1    
   112   56  133 1    
   113   56  134 1    
   114   57   58 1    
   115   58  135 1    
   116   58  136 1    
   117   59   60 am   BACKBONE|DICT|INTERRES
   118   59  137 1    
   119   60   61 2    
   120   60   62 1    
   121   62   63 1    
   122   62   64 1    
   123   62  138 1    
   124   63  139 1    
   125   63  140 1    
   126   63  141 1    
   127   64   65 am   BACKBONE|DICT|INTERRES
   128   64  142 1    
   129   65   66 2    
   130   65   67 1    
   131   67   68 1    
   132   67   69 1    
   133   67  143 1    
   134   68  144 1    
   135   68  145 1    
   136   68  146 1    
   137   69   70 am   BACKBONE|DICT|INTERRES
   138   69  147 1    
   139   70   71 2    
   140   70   72 1    
   141   72   73 1    
   142   72   74 1    
   143   72  148 1    
   144   73  149 1    
   145   73  150 1    
   146   73  151 1    
   147   74   75 am   BACKBONE|DICT|INTERRES
   148   74  152 1    
   149   75   76 2    
   150   75   77 1    
   151   77   78 1    
   152   77   79 1    
   153   77  153 1    
   154   78  154 1    
   155   78  155 1    
   156   78  156 1    
   157   79   80 am   BACKBONE|DICT|INTERRES
   158   79  157 1    
   159   80   81 2    
@<TRIPOS>SUBSTRUCTURE
     1 UNK         1 GROUP             0       ****    0 ROOT    
