@<TRIPOS>MOLECULE
3R207
157   159    1
SMALL
USER_CHARGES


@<TRIPOS>ATOM
      1 CA        -44.5775  -28.1309    7.3194 C.3       0 UNK        -0.1975 
      2 C         -45.9778  -27.7316    6.8777 C.2       0 UNK         0.4852 
      3 O         -46.3081  -26.5444    6.8989 O.2       0 UNK        -0.5216 
      4 N         -46.7987  -28.7152    6.4851 N.am      1 UNK        -0.4461 
      5 CA        -48.1610  -28.5427    5.9667 C.3       1 UNK         0.0864 
      6 C6        -48.7325  -29.8966    5.4738 C.3       14 UNK        -0.0898 
      7 S7        -50.1406  -29.7281    4.3184 S.3       14 UNK        -0.2598 
      8 C8        -51.4077  -30.8064    5.0679 C.3       14 UNK         0.0286 
      9 C9        -52.0077  -30.1874    6.3213 C.ar      14 UNK        -0.0844 
     10 C10       -51.4437  -30.4532    7.5703 C.ar      14 UNK        -0.0881 
     11 C11       -51.9262  -29.8346    8.7233 C.ar      14 UNK        -0.0643 
     12 C12       -53.0312  -28.9799    8.6182 C.ar      14 UNK        -0.0930 
     13 C13       -53.6314  -28.7253    7.3817 C.ar      14 UNK        -0.0827 
     14 C14       -53.1111  -29.3334    6.2341 C.ar      14 UNK        -0.1249 
     15 C15       -54.7895  -27.7383    7.2687 C.3       14 UNK         0.0141 
     16 S16       -56.3131  -28.3169    8.0829 S.3       14 UNK        -0.2313 
     17 C17       -56.1589  -27.5622    9.7409 C.3       14 UNK        -0.0915 
     18 CA        -56.7532  -28.4237   10.8879 C.3       13 UNK         0.0968 
     19 C         -55.8959  -29.6753   11.2531 C.2       13 UNK         0.5732 
     20 N         -55.7085  -30.5980   10.3212 N.am      13 UNK        -0.7310 
     21 O         -55.4060  -29.8286   12.3701 O.2       13 UNK        -0.5035 
     22 N         -57.0225  -27.5761   12.0569 N.am      13 UNK        -0.4233 
     23 C         -57.8905  -27.8618   13.0319 C.2       13 UNK         0.4989 
     24 O         -58.6826  -28.8059   12.9947 O.2       13 UNK        -0.4996 
     25 CA        -57.8266  -26.9491   14.2711 C.3       12 UNK         0.0216 
     26 CB        -59.0105  -27.1689   15.2322 C.3       12 UNK        -0.1964 
     27 N         -56.5737  -27.1601   15.0012 N.am      12 UNK        -0.4276 
     28 C         -55.3852  -26.6459   14.6612 C.2       12 UNK         0.5020 
     29 O         -55.2159  -25.8915   13.6987 O.2       12 UNK        -0.5489 
     30 CA        -54.1841  -27.1022   15.5008 C.3       11 UNK         0.0294 
     31 CB        -53.4742  -28.2849   14.8273 C.3       11 UNK        -0.2019 
     32 N         -53.2175  -26.0230   15.6824 N.am      11 UNK        -0.4493 
     33 C         -53.2944  -25.0871   16.6359 C.2       11 UNK         0.4932 
     34 O         -54.2356  -24.9903   17.4263 O.2       11 UNK        -0.5029 
     35 CA        -52.0857  -24.1354   16.7425 C.3       10 UNK         0.0280 
     36 CB        -52.0952  -23.2761   18.0241 C.3       10 UNK        -0.1976 
     37 N         -50.8110  -24.8503   16.5988 N.am      10 UNK        -0.4242 
     38 C         -50.3427  -25.8595   17.3524 C.2       10 UNK         0.5072 
     39 O         -50.8888  -26.2674   18.3785 O.2       10 UNK        -0.5224 
     40 CA        -49.0597  -26.5652   16.8691 C.3       9 UNK         0.0343 
     41 CB        -49.4146  -27.9021   16.1987 C.3       9 UNK        -0.2003 
     42 N         -48.2614  -25.7623   15.9392 N.am      9 UNK        -0.4272 
     43 C         -47.5615  -24.6740   16.2911 C.2       9 UNK         0.4988 
     44 O         -47.4429  -24.2793   17.4516 O.2       9 UNK        -0.5108 
     45 CA        -46.9095  -23.8724   15.1538 C.3       8 UNK         0.0248 
     46 CB        -45.5271  -24.4512   14.8132 C.3       8 UNK        -0.2001 
     47 N         -47.7392  -23.8175   13.9454 N.am      8 UNK        -0.4140 
     48 C         -48.9335  -23.2098   13.8684 C.2       8 UNK         0.5028 
     49 O         -49.4537  -22.6028   14.8042 O.2       8 UNK        -0.5428 
     50 CA        -49.7032  -23.3370   12.5440 C.3       7 UNK         0.0264 
     51 CB        -49.0989  -22.4245   11.4668 C.3       7 UNK        -0.1988 
     52 N         -49.7576  -24.7189   12.0628 N.am      7 UNK        -0.4454 
     53 C         -50.4202  -25.7083   12.6819 C.2       7 UNK         0.5027 
     54 O         -51.1127  -25.5399   13.6870 O.2       7 UNK        -0.5083 
     55 CA        -50.2627  -27.1394   12.1272 C.3       6 UNK         0.0844 
     56 C56       -51.4799  -27.5658   11.2734 C.3       14 UNK        -0.0967 
     57 S57       -51.8745  -29.3295   11.5292 S.3       14 UNK        -0.2604 
     58 C58       -51.1864  -30.1084   10.0338 C.3       14 UNK         0.0134 
     59 N         -48.9859  -27.3379   11.4296 N.am      6 UNK        -0.4116 
     60 C         -47.8063  -27.3626   12.0645 C.2       5 UNK         0.5034 
     61 O         -47.6810  -27.2343   13.2844 O.2       5 UNK        -0.5045 
     62 CA        -46.5538  -27.5028   11.1877 C.3       5 UNK         0.0224 
     63 CB        -46.4898  -28.8787   10.5025 C.3       5 UNK        -0.1978 
     64 N         -46.4011  -26.4161   10.2085 N.am      5 UNK        -0.4737 
     65 C         -46.1850  -25.1388   10.5582 C.2       4 UNK         0.5027 
     66 O         -46.2631  -24.7305   11.7144 O.2       4 UNK        -0.5211 
     67 CA        -45.8017  -24.1437    9.4607 C.3       4 UNK         0.0297 
     68 CB        -44.3961  -24.4328    8.9078 C.3       4 UNK        -0.1993 
     69 N         -46.7772  -24.1292    8.3722 N.am      4 UNK        -0.4486 
     70 C         -47.4808  -23.0451    8.0206 C.2       3 UNK         0.4961 
     71 O         -47.4084  -21.9571    8.5930 O.2       3 UNK        -0.5105 
     72 CA        -48.4060  -23.1692    6.8031 C.3       3 UNK         0.0299 
     73 CB        -47.6104  -22.9526    5.5054 C.3       3 UNK        -0.1972 
     74 N         -49.1326  -24.4345    6.7160 N.am      3 UNK        -0.4305 
     75 C         -50.0836  -24.8537    7.5647 C.2       2 UNK         0.5006 
     76 O         -50.3724  -24.2932    8.6212 O.2       2 UNK        -0.5106 
     77 CA        -50.8788  -26.0950    7.1253 C.3       2 UNK         0.0296 
     78 CB        -52.0492  -25.6616    6.2265 C.3       2 UNK        -0.2002 
     79 N         -50.0466  -27.0511    6.3964 N.am      2 UNK        -0.4032 
     80 C         -49.0921  -27.8024    6.9582 C.2       1 UNK         0.5000 
     81 O         -48.9133  -27.8812    8.1789 O.2       1 UNK        -0.5238 
     82 H82       -44.4332  -29.2108    7.2914 H         1 UNK         0.0889 
     83 H83       -44.3845  -27.7911    8.3357 H         1 UNK         0.0889 
     84 H84       -43.8371  -27.6736    6.6636 H         1 UNK         0.0889 
     85 H85       -46.4711  -29.6691    6.5291 H         1 UNK         0.3028 
     86 H86       -48.0500  -27.8959    5.0935 H         1 UNK         0.0864 
     87 H87       -48.9797  -30.5424    6.3138 H         1 UNK         0.0720 
     88 H88       -47.9614  -30.4354    4.9206 H         1 UNK         0.0720 
     89 H89       -50.9757  -31.7836    5.2895 H         1 UNK         0.0814 
     90 H90       -52.1955  -30.9842    4.3343 H         1 UNK         0.0814 
     91 H91       -50.6018  -31.1255    7.6499 H         1 UNK         0.1469 
     92 H92       -53.4224  -28.4971    9.4964 H         1 UNK         0.1381 
     93 H93       -53.5470  -29.1230    5.2670 H         1 UNK         0.1206 
     94 H94       -54.4910  -26.7738    7.6814 H         1 UNK         0.0813 
     95 H95       -55.0219  -27.5523    6.2191 H         1 UNK         0.0813 
     96 H96       -56.6974  -26.6147    9.6832 H         1 UNK         0.0638 
     97 H97       -55.1278  -27.2887    9.9604 H         1 UNK         0.0638 
     98 H98       -57.7183  -28.8054   10.5492 H         1 UNK         0.0568 
     99 H99       -55.1529  -31.4092   10.5388 H         1 UNK         0.3450 
    100 H100      -56.0628  -30.4592    9.3871 H         1 UNK         0.3450 
    101 H101      -56.3531  -26.8363   12.2396 H         1 UNK         0.2987 
    102 H102      -57.8689  -25.9143   13.9235 H         1 UNK         0.0766 
    103 H103      -58.9739  -26.4738   16.0712 H         1 UNK         0.0798 
    104 H104      -59.0245  -28.1820   15.6364 H         1 UNK         0.0798 
    105 H105      -59.9613  -27.0083   14.7220 H         1 UNK         0.0798 
    106 H106      -56.6145  -27.8086   15.7749 H         1 UNK         0.3198 
    107 H107      -54.5363  -27.4278   16.4824 H         1 UNK         0.0843 
    108 H108      -53.1142  -28.0160   13.8347 H         1 UNK         0.0831 
    109 H109      -54.1490  -29.1335   14.7091 H         1 UNK         0.0831 
    110 H110      -52.6212  -28.6272   15.4133 H         1 UNK         0.0831 
    111 H111      -52.4558  -25.9660   15.0106 H         1 UNK         0.3133 
    112 H112      -52.1516  -23.4591   15.8889 H         1 UNK         0.0566 
    113 H113      -51.2357  -22.6065   18.0565 H         1 UNK         0.0814 
    114 H114      -52.9912  -22.6561   18.0713 H         1 UNK         0.0814 
    115 H115      -52.0771  -23.8901   18.9250 H         1 UNK         0.0814 
    116 H116      -50.2853  -24.6087   15.7683 H         1 UNK         0.3091 
    117 H117      -48.4474  -26.7757   17.7485 H         1 UNK         0.0702 
    118 H118      -48.5223  -28.4293   15.8602 H         1 UNK         0.0785 
    119 H119      -50.0669  -27.7571   15.3380 H         1 UNK         0.0785 
    120 H120      -49.9375  -28.5603   16.8939 H         1 UNK         0.0785 
    121 H121      -48.2431  -26.0615   14.9698 H         1 UNK         0.2998 
    122 H122      -46.7719  -22.8486   15.5078 H         1 UNK         0.0697 
    123 H123      -45.6022  -25.4628   14.4112 H         1 UNK         0.0825 
    124 H124      -44.8910  -24.4957   15.6982 H         1 UNK         0.0825 
    125 H125      -45.0122  -23.8368   14.0745 H         1 UNK         0.0825 
    126 H126      -47.3513  -24.2633   13.1149 H         1 UNK         0.3029 
    127 H127      -50.7291  -23.0082   12.7251 H         1 UNK         0.0897 
    128 H128      -49.6801  -22.4576   10.5452 H         1 UNK         0.0792 
    129 H129      -49.0825  -21.3860   11.8000 H         1 UNK         0.0792 
    130 H130      -48.0734  -22.7027   11.2247 H         1 UNK         0.0792 
    131 H131      -49.2228  -24.9362   11.2345 H         1 UNK         0.3086 
    132 H132      -50.2402  -27.7764   13.0136 H         1 UNK         0.0583 
    133 H133      -52.3799  -27.0108   11.5489 H         1 UNK         0.1020 
    134 H134      -51.3118  -27.3516   10.2178 H         1 UNK         0.1020 
    135 H135      -50.1463  -29.7958    9.9273 H         1 UNK         0.0694 
    136 H136      -51.1691  -31.1862   10.2016 H         1 UNK         0.0694 
    137 H137      -49.0085  -27.4525   10.4226 H         1 UNK         0.2989 
    138 H138      -45.6989  -27.4441   11.8659 H         1 UNK         0.1055 
    139 H139      -47.2453  -28.9937    9.7273 H         1 UNK         0.0806 
    140 H140      -46.6471  -29.6802   11.2258 H         1 UNK         0.0806 
    141 H141      -45.5143  -29.0507   10.0495 H         1 UNK         0.0806 
    142 H142      -46.3876  -26.6667    9.2293 H         1 UNK         0.3061 
    143 H143      -45.7531  -23.1646    9.9422 H         1 UNK         0.0734 
    144 H144      -44.0747  -23.6453    8.2261 H         1 UNK         0.0832 
    145 H145      -43.6617  -24.4828    9.7129 H         1 UNK         0.0832 
    146 H146      -44.3518  -25.3757    8.3658 H         1 UNK         0.0832 
    147 H147      -46.8582  -24.9779    7.8155 H         1 UNK         0.3156 
    148 H148      -49.1505  -22.3736    6.8781 H         1 UNK         0.0589 
    149 H149      -46.8737  -23.7418    5.3471 H         1 UNK         0.0808 
    150 H150      -47.0710  -22.0045    5.5319 H         1 UNK         0.0808 
    151 H151      -48.2667  -22.9243    4.6353 H         1 UNK         0.0808 
    152 H152      -48.9573  -24.9904    5.8928 H         1 UNK         0.3098 
    153 H153      -51.2809  -26.5878    8.0114 H         1 UNK         0.0720 
    154 H154      -52.7553  -25.0423    6.7812 H         1 UNK         0.0791 
    155 H155      -52.5982  -26.5186    5.8405 H         1 UNK         0.0791 
    156 H156      -51.7101  -25.0789    5.3689 H         1 UNK         0.0791 
    157 H157      -50.1750  -27.0980    5.3956 H         1 UNK         0.3028 
@<TRIPOS>BOND
     1    1    2 1    
     2    1   82 1    
     3    1   83 1    
     4    1   84 1    
     5    2    3 2    
     6    2    4 am   BACKBONE|DICT|INTERRES
     7    4    5 1    
     8    4   85 1    
     9    5    6 1    
    10    5   80 1    
    11    5   86 1    
    12    6    7 1    
    13    6   87 1    
    14    6   88 1    
    15    7    8 1    
    16    8    9 1    
    17    8   89 1    
    18    8   90 1    
    19    9   10 ar   
    20    9   14 ar   
    21   10   11 ar   
    22   10   91 1    
    23   11   12 ar   
    24   11   58 1    
    25   12   13 ar   
    26   12   92 1    
    27   13   14 ar   
    28   13   15 1    
    29   14   93 1    
    30   15   16 1    
    31   15   94 1    
    32   15   95 1    
    33   16   17 1    
    34   17   18 1    
    35   17   96 1    
    36   17   97 1    
    37   18   19 1    
    38   18   22 1    
    39   18   98 1    
    40   19   20 am   BACKBONE|DICT|INTERRES
    41   19   21 2    
    42   20   99 1    
    43   20  100 1    
    44   22   23 am   BACKBONE|DICT|INTERRES
    45   22  101 1    
    46   23   24 2    
    47   23   25 1    
    48   25   26 1    
    49   25   27 1    
    50   25  102 1    
    51   26  103 1    
    52   26  104 1    
    53   26  105 1    
    54   27   28 am   BACKBONE|DICT|INTERRES
    55   27  106 1    
    56   28   29 2    
    57   28   30 1    
    58   30   31 1    
    59   30   32 1    
    60   30  107 1    
    61   31  108 1    
    62   31  109 1    
    63   31  110 1    
    64   32   33 am   BACKBONE|DICT|INTERRES
    65   32  111 1    
    66   33   34 2    
    67   33   35 1    
    68   35   36 1    
    69   35   37 1    
    70   35  112 1    
    71   36  113 1    
    72   36  114 1    
    73   36  115 1    
    74   37   38 am   BACKBONE|DICT|INTERRES
    75   37  116 1    
    76   38   39 2    
    77   38   40 1    
    78   40   41 1    
    79   40   42 1    
    80   40  117 1    
    81   41  118 1    
    82   41  119 1    
    83   41  120 1    
    84   42   43 am   BACKBONE|DICT|INTERRES
    85   42  121 1    
    86   43   44 2    
    87   43   45 1    
    88   45   46 1    
    89   45   47 1    
    90   45  122 1    
    91   46  123 1    
    92   46  124 1    
    93   46  125 1    
    94   47   48 am   BACKBONE|DICT|INTERRES
    95   47  126 1    
    96   48   49 2    
    97   48   50 1    
    98   50   51 1    
    99   50   52 1    
   100   50  127 1    
   101   51  128 1    
   102   51  129 1    
   103   51  130 1    
   104   52   53 am   BACKBONE|DICT|INTERRES
   105   52  131 1    
   106   53   54 2    
   107   53   55 1    
   108   55   56 1    
   109   55   59 1    
   110   55  132 1    
   111   56   57 1    
   112   56  133 1    
   113   56  134 1    
   114   57   58 1    
   115   58  135 1    
   116   58  136 1    
   117   59   60 am   BACKBONE|DICT|INTERRES
   118   59  137 1    
   119   60   61 2    
   120   60   62 1    
   121   62   63 1    
   122   62   64 1    
   123   62  138 1    
   124   63  139 1    
   125   63  140 1    
   126   63  141 1    
   127   64   65 am   BACKBONE|DICT|INTERRES
   128   64  142 1    
   129   65   66 2    
   130   65   67 1    
   131   67   68 1    
   132   67   69 1    
   133   67  143 1    
   134   68  144 1    
   135   68  145 1    
   136   68  146 1    
   137   69   70 am   BACKBONE|DICT|INTERRES
   138   69  147 1    
   139   70   71 2    
   140   70   72 1    
   141   72   73 1    
   142   72   74 1    
   143   72  148 1    
   144   73  149 1    
   145   73  150 1    
   146   73  151 1    
   147   74   75 am   BACKBONE|DICT|INTERRES
   148   74  152 1    
   149   75   76 2    
   150   75   77 1    
   151   77   78 1    
   152   77   79 1    
   153   77  153 1    
   154   78  154 1    
   155   78  155 1    
   156   78  156 1    
   157   79   80 am   BACKBONE|DICT|INTERRES
   158   79  157 1    
   159   80   81 2    
@<TRIPOS>SUBSTRUCTURE
     1 UNK         1 GROUP             0       ****    0 ROOT    
