@<TRIPOS>MOLECULE
3R207
157   159    1
SMALL
USER_CHARGES


@<TRIPOS>ATOM
      1 CA        -45.7149  -28.3785   10.9872 C.3       0 UNK        -0.1975 
      2 C         -45.9692  -29.2188    9.7444 C.2       0 UNK         0.4852 
      3 O         -45.0394  -29.8349    9.2228 O.2       0 UNK        -0.5216 
      4 N         -47.2213  -29.2488    9.2675 N.am      1 UNK        -0.4461 
      5 CA        -47.6479  -30.0205    8.0903 C.3       1 UNK         0.0864 
      6 C6        -49.1796  -30.2494    8.0676 C.3       14 UNK        -0.0898 
      7 S7        -49.7638  -31.2403    9.4854 S.3       14 UNK        -0.2598 
      8 C8        -50.5870  -29.9987   10.5317 C.3       14 UNK         0.0286 
      9 C9        -51.9173  -29.5388    9.9517 C.ar      14 UNK        -0.0844 
     10 C10       -51.9971  -28.3428    9.2341 C.ar      14 UNK        -0.0881 
     11 C11       -53.2270  -27.8704    8.7625 C.ar      14 UNK        -0.0643 
     12 C12       -54.3745  -28.6399    8.9694 C.ar      14 UNK        -0.0930 
     13 C13       -54.3126  -29.8357    9.6876 C.ar      14 UNK        -0.0827 
     14 C14       -53.0797  -30.2828   10.1733 C.ar      14 UNK        -0.1249 
     15 C15       -55.5781  -30.6344    9.9568 C.3       14 UNK         0.0141 
     16 S16       -56.3662  -30.1054   11.5113 S.3       14 UNK        -0.2313 
     17 C17       -57.6811  -28.9649   10.9549 C.3       14 UNK        -0.0915 
     18 CA        -57.2938  -27.4595   10.9290 C.3       13 UNK         0.0968 
     19 C         -58.5176  -26.5971   10.5016 C.2       13 UNK         0.5732 
     20 N         -59.0919  -25.7761   11.3731 N.am      13 UNK        -0.7310 
     21 O         -58.9513  -26.6752    9.3546 O.2       13 UNK        -0.5035 
     22 N         -56.6193  -27.0236   12.1624 N.am      13 UNK        -0.4233 
     23 C         -55.9418  -25.8782   12.3065 C.2       13 UNK         0.4989 
     24 O         -55.8257  -25.0347   11.4176 O.2       13 UNK        -0.4996 
     25 CA        -55.2467  -25.6298   13.6566 C.3       12 UNK         0.0216 
     26 CB        -56.2487  -25.1835   14.7388 C.3       12 UNK        -0.1964 
     27 N         -54.4093  -26.7483   14.1085 N.am      12 UNK        -0.4276 
     28 C         -54.7769  -27.9792   14.4952 C.2       12 UNK         0.5020 
     29 O         -55.9456  -28.3592   14.5771 O.2       12 UNK        -0.5489 
     30 CA        -53.6408  -28.9501   14.8415 C.3       11 UNK         0.0294 
     31 CB        -53.0630  -29.5860   13.5680 C.3       11 UNK        -0.2019 
     32 N         -52.5655  -28.2709   15.5595 N.am      11 UNK        -0.4493 
     33 C         -52.5003  -28.1373   16.8905 C.2       11 UNK         0.4932 
     34 O         -53.3536  -28.5783   17.6620 O.2       11 UNK        -0.5029 
     35 CA        -51.2839  -27.3749   17.4541 C.3       10 UNK         0.0280 
     36 CB        -50.8479  -27.8862   18.8436 C.3       10 UNK        -0.1976 
     37 N         -50.1476  -27.3201   16.5243 N.am      10 UNK        -0.4242 
     38 C         -49.4101  -28.3450   16.0629 C.2       10 UNK         0.5072 
     39 O         -49.5474  -29.5104   16.4365 O.2       10 UNK        -0.5224 
     40 CA        -48.3743  -28.0430   14.9602 C.3       9 UNK         0.0343 
     41 CB        -48.8312  -28.6676   13.6296 C.3       9 UNK        -0.2003 
     42 N         -48.1346  -26.6146   14.7439 N.am      9 UNK        -0.4272 
     43 C         -47.5024  -25.7931   15.5930 C.2       9 UNK         0.4988 
     44 O         -46.9411  -26.1672   16.6227 O.2       9 UNK        -0.5108 
     45 CA        -47.5620  -24.2910   15.2637 C.3       8 UNK         0.0248 
     46 CB        -46.4044  -23.8881   14.3360 C.3       8 UNK        -0.2001 
     47 N         -48.8437  -23.8878   14.6693 N.am      8 UNK        -0.4140 
     48 C         -50.0267  -23.9317   15.3022 C.2       8 UNK         0.5028 
     49 O         -50.1630  -24.3095   16.4645 O.2       8 UNK        -0.5428 
     50 CA        -51.2732  -23.5255   14.4996 C.3       7 UNK         0.0264 
     51 CB        -51.4763  -22.0030   14.5443 C.3       7 UNK        -0.1988 
     52 N         -51.2094  -23.9711   13.1074 N.am      7 UNK        -0.4454 
     53 C         -51.3960  -25.2377   12.7084 C.2       7 UNK         0.5027 
     54 O         -51.7008  -26.1600   13.4698 O.2       7 UNK        -0.5083 
     55 CA        -51.1746  -25.5166   11.2079 C.3       6 UNK         0.0844 
     56 C56       -52.4430  -25.1584   10.3845 C.3       14 UNK        -0.0967 
     57 S57       -52.1697  -25.2501    8.5742 S.3       14 UNK        -0.2604 
     58 C58       -53.3545  -26.5327    8.0372 C.3       14 UNK         0.0134 
     59 N         -49.9847  -24.8378   10.6871 N.am      6 UNK        -0.4116 
     60 C         -48.7236  -24.9693   11.1127 C.2       5 UNK         0.5034 
     61 O         -48.4019  -25.7034   12.0465 O.2       5 UNK        -0.5045 
     62 CA        -47.6393  -24.1410   10.3909 C.3       5 UNK         0.0224 
     63 CB        -46.3469  -24.9511   10.1926 C.3       5 UNK        -0.1978 
     64 N         -48.0637  -23.5914    9.0950 N.am      5 UNK        -0.4737 
     65 C         -48.8404  -22.5079    8.9350 C.2       4 UNK         0.5027 
     66 O         -49.3195  -21.8867    9.8838 O.2       4 UNK        -0.5211 
     67 CA        -49.1450  -22.0551    7.4959 C.3       4 UNK         0.0297 
     68 CB        -49.3725  -20.5352    7.3947 C.3       4 UNK        -0.1993 
     69 N         -48.0581  -22.4410    6.5977 N.am      4 UNK        -0.4486 
     70 C         -48.1882  -23.1563    5.4755 C.2       3 UNK         0.4961 
     71 O         -49.2690  -23.5088    5.0009 O.2       3 UNK        -0.5105 
     72 CA        -46.8866  -23.5808    4.7655 C.3       3 UNK         0.0299 
     73 CB        -45.6136  -22.8835    5.3010 C.3       3 UNK        -0.1972 
     74 N         -46.7069  -25.0375    4.7843 N.am      3 UNK        -0.4305 
     75 C         -46.7057  -25.8354    5.8626 C.2       2 UNK         0.5006 
     76 O         -46.8827  -25.4451    7.0210 O.2       2 UNK        -0.5106 
     77 CA        -46.4285  -27.3194    5.5996 C.3       2 UNK         0.0296 
     78 CB        -44.9273  -27.5615    5.3497 C.3       2 UNK        -0.2002 
     79 N         -46.8706  -28.0920    6.7560 N.am      2 UNK        -0.4032 
     80 C         -47.1792  -29.3950    6.7571 C.2       1 UNK         0.5000 
     81 O         -47.1113  -30.1082    5.7538 O.2       1 UNK        -0.5238 
     82 H82       -45.4972  -29.0231   11.8383 H         1 UNK         0.0889 
     83 H83       -46.5721  -27.7564   11.2412 H         1 UNK         0.0889 
     84 H84       -44.8590  -27.7229   10.8289 H         1 UNK         0.0889 
     85 H85       -47.9471  -28.7363    9.7445 H         1 UNK         0.3028 
     86 H86       -47.1700  -31.0013    8.1484 H         1 UNK         0.0864 
     87 H87       -49.7088  -29.2986    8.0202 H         1 UNK         0.0720 
     88 H88       -49.4688  -30.7945    7.1667 H         1 UNK         0.0720 
     89 H89       -49.9219  -29.1494   10.6916 H         1 UNK         0.0814 
     90 H90       -50.7558  -30.4341   11.5177 H         1 UNK         0.0814 
     91 H91       -51.1013  -27.7634    9.0649 H         1 UNK         0.1469 
     92 H92       -55.3240  -28.2992    8.5824 H         1 UNK         0.1381 
     93 H93       -53.0264  -31.2034   10.7385 H         1 UNK         0.1206 
     94 H94       -56.2733  -30.5489    9.1206 H         1 UNK         0.0813 
     95 H95       -55.3324  -31.6944   10.0353 H         1 UNK         0.0813 
     96 H96       -58.0327  -29.2846    9.9725 H         1 UNK         0.0638 
     97 H97       -58.5250  -29.1125   11.6314 H         1 UNK         0.0638 
     98 H98       -56.5647  -27.3250   10.1323 H         1 UNK         0.0568 
     99 H99       -59.8813  -25.2213   11.0827 H         1 UNK         0.3450 
    100 H100      -58.7441  -25.7080   12.3155 H         1 UNK         0.3450 
    101 H101      -56.6272  -27.6732   12.9448 H         1 UNK         0.2987 
    102 H102      -54.5549  -24.8003   13.4998 H         1 UNK         0.0766 
    103 H103      -55.7399  -24.9431   15.6724 H         1 UNK         0.0798 
    104 H104      -56.9939  -25.9500   14.9527 H         1 UNK         0.0798 
    105 H105      -56.7869  -24.2887   14.4236 H         1 UNK         0.0798 
    106 H106      -53.4087  -26.5795   14.0272 H         1 UNK         0.3198 
    107 H107      -54.0515  -29.7477   15.4648 H         1 UNK         0.0843 
    108 H108      -53.8269  -30.1597   13.0437 H         1 UNK         0.0831 
    109 H109      -52.2485  -30.2722   13.8002 H         1 UNK         0.0831 
    110 H110      -52.6831  -28.8365   12.8721 H         1 UNK         0.0831 
    111 H111      -51.8479  -27.8305   14.9980 H         1 UNK         0.3133 
    112 H112      -51.6155  -26.3433   17.5779 H         1 UNK         0.0566 
    113 H113      -49.9882  -27.3306   19.2183 H         1 UNK         0.0814 
    114 H114      -51.6502  -27.7686   19.5730 H         1 UNK         0.0814 
    115 H115      -50.5827  -28.9436   18.8234 H         1 UNK         0.0814 
    116 H116      -49.9357  -26.3900   16.1812 H         1 UNK         0.3091 
    117 H117      -47.4324  -28.5078   15.2582 H         1 UNK         0.0702 
    118 H118      -48.0788  -28.5389   12.8538 H         1 UNK         0.0785 
    119 H119      -49.7593  -28.2199   13.2719 H         1 UNK         0.0785 
    120 H120      -49.0041  -29.7397   13.7346 H         1 UNK         0.0785 
    121 H121      -48.4756  -26.2272   13.8674 H         1 UNK         0.2998 
    122 H122      -47.4489  -23.7445   16.2025 H         1 UNK         0.0697 
    123 H123      -46.4460  -24.4134   13.3825 H         1 UNK         0.0825 
    124 H124      -45.4424  -24.1248   14.7925 H         1 UNK         0.0825 
    125 H125      -46.4097  -22.8171   14.1327 H         1 UNK         0.0825 
    126 H126      -48.8243  -23.5889   13.7067 H         1 UNK         0.3029 
    127 H127      -52.1381  -23.9959   14.9737 H         1 UNK         0.0897 
    128 H128      -52.3999  -21.7121   14.0432 H         1 UNK         0.0792 
    129 H129      -51.5439  -21.6495   15.5743 H         1 UNK         0.0792 
    130 H130      -50.6533  -21.4676   14.0692 H         1 UNK         0.0792 
    131 H131      -50.9694  -23.2767   12.4134 H         1 UNK         0.3086 
    132 H132      -50.9898  -26.5872   11.1170 H         1 UNK         0.0583 
    133 H133      -53.2690  -25.8144   10.6647 H         1 UNK         0.1020 
    134 H134      -52.7813  -24.1446   10.6088 H         1 UNK         0.1020 
    135 H135      -54.3612  -26.1321    8.1678 H         1 UNK         0.0694 
    136 H136      -53.2237  -26.7024    6.9679 H         1 UNK         0.0694 
    137 H137      -50.1472  -24.2172    9.9077 H         1 UNK         0.2989 
    138 H138      -47.4033  -23.3044   11.0521 H         1 UNK         0.1055 
    139 H139      -45.9275  -25.2689   11.1476 H         1 UNK         0.0806 
    140 H140      -45.5813  -24.3619    9.6876 H         1 UNK         0.0806 
    141 H141      -46.5233  -25.8472    9.5985 H         1 UNK         0.0806 
    142 H142      -47.7385  -24.0926    8.2716 H         1 UNK         0.3061 
    143 H143      -50.0703  -22.5595    7.2093 H         1 UNK         0.0734 
    144 H144      -50.2167  -20.2216    8.0102 H         1 UNK         0.0832 
    145 H145      -48.4984  -19.9741    7.7270 H         1 UNK         0.0832 
    146 H146      -49.5940  -20.2360    6.3701 H         1 UNK         0.0832 
    147 H147      -47.1232  -22.2269    6.9172 H         1 UNK         0.3156 
    148 H148      -47.0035  -23.2937    3.7194 H         1 UNK         0.0589 
    149 H149      -45.3916  -23.1574    6.3333 H         1 UNK         0.0808 
    150 H150      -44.7440  -23.1528    4.7014 H         1 UNK         0.0808 
    151 H151      -45.7050  -21.7975    5.2519 H         1 UNK         0.0808 
    152 H152      -46.5842  -25.4677    3.8780 H         1 UNK         0.3098 
    153 H153      -47.0040  -27.6258    4.7234 H         1 UNK         0.0720 
    154 H154      -44.5693  -26.9853    4.4957 H         1 UNK         0.0791 
    155 H155      -44.7228  -28.6109    5.1367 H         1 UNK         0.0791 
    156 H156      -44.3267  -27.2739    6.2137 H         1 UNK         0.0791 
    157 H157      -46.9834  -27.5453    7.6000 H         1 UNK         0.3028 
@<TRIPOS>BOND
     1    1    2 1    
     2    1   82 1    
     3    1   83 1    
     4    1   84 1    
     5    2    3 2    
     6    2    4 am   BACKBONE|DICT|INTERRES
     7    4    5 1    
     8    4   85 1    
     9    5    6 1    
    10    5   80 1    
    11    5   86 1    
    12    6    7 1    
    13    6   87 1    
    14    6   88 1    
    15    7    8 1    
    16    8    9 1    
    17    8   89 1    
    18    8   90 1    
    19    9   10 ar   
    20    9   14 ar   
    21   10   11 ar   
    22   10   91 1    
    23   11   12 ar   
    24   11   58 1    
    25   12   13 ar   
    26   12   92 1    
    27   13   14 ar   
    28   13   15 1    
    29   14   93 1    
    30   15   16 1    
    31   15   94 1    
    32   15   95 1    
    33   16   17 1    
    34   17   18 1    
    35   17   96 1    
    36   17   97 1    
    37   18   19 1    
    38   18   22 1    
    39   18   98 1    
    40   19   20 am   BACKBONE|DICT|INTERRES
    41   19   21 2    
    42   20   99 1    
    43   20  100 1    
    44   22   23 am   BACKBONE|DICT|INTERRES
    45   22  101 1    
    46   23   24 2    
    47   23   25 1    
    48   25   26 1    
    49   25   27 1    
    50   25  102 1    
    51   26  103 1    
    52   26  104 1    
    53   26  105 1    
    54   27   28 am   BACKBONE|DICT|INTERRES
    55   27  106 1    
    56   28   29 2    
    57   28   30 1    
    58   30   31 1    
    59   30   32 1    
    60   30  107 1    
    61   31  108 1    
    62   31  109 1    
    63   31  110 1    
    64   32   33 am   BACKBONE|DICT|INTERRES
    65   32  111 1    
    66   33   34 2    
    67   33   35 1    
    68   35   36 1    
    69   35   37 1    
    70   35  112 1    
    71   36  113 1    
    72   36  114 1    
    73   36  115 1    
    74   37   38 am   BACKBONE|DICT|INTERRES
    75   37  116 1    
    76   38   39 2    
    77   38   40 1    
    78   40   41 1    
    79   40   42 1    
    80   40  117 1    
    81   41  118 1    
    82   41  119 1    
    83   41  120 1    
    84   42   43 am   BACKBONE|DICT|INTERRES
    85   42  121 1    
    86   43   44 2    
    87   43   45 1    
    88   45   46 1    
    89   45   47 1    
    90   45  122 1    
    91   46  123 1    
    92   46  124 1    
    93   46  125 1    
    94   47   48 am   BACKBONE|DICT|INTERRES
    95   47  126 1    
    96   48   49 2    
    97   48   50 1    
    98   50   51 1    
    99   50   52 1    
   100   50  127 1    
   101   51  128 1    
   102   51  129 1    
   103   51  130 1    
   104   52   53 am   BACKBONE|DICT|INTERRES
   105   52  131 1    
   106   53   54 2    
   107   53   55 1    
   108   55   56 1    
   109   55   59 1    
   110   55  132 1    
   111   56   57 1    
   112   56  133 1    
   113   56  134 1    
   114   57   58 1    
   115   58  135 1    
   116   58  136 1    
   117   59   60 am   BACKBONE|DICT|INTERRES
   118   59  137 1    
   119   60   61 2    
   120   60   62 1    
   121   62   63 1    
   122   62   64 1    
   123   62  138 1    
   124   63  139 1    
   125   63  140 1    
   126   63  141 1    
   127   64   65 am   BACKBONE|DICT|INTERRES
   128   64  142 1    
   129   65   66 2    
   130   65   67 1    
   131   67   68 1    
   132   67   69 1    
   133   67  143 1    
   134   68  144 1    
   135   68  145 1    
   136   68  146 1    
   137   69   70 am   BACKBONE|DICT|INTERRES
   138   69  147 1    
   139   70   71 2    
   140   70   72 1    
   141   72   73 1    
   142   72   74 1    
   143   72  148 1    
   144   73  149 1    
   145   73  150 1    
   146   73  151 1    
   147   74   75 am   BACKBONE|DICT|INTERRES
   148   74  152 1    
   149   75   76 2    
   150   75   77 1    
   151   77   78 1    
   152   77   79 1    
   153   77  153 1    
   154   78  154 1    
   155   78  155 1    
   156   78  156 1    
   157   79   80 am   BACKBONE|DICT|INTERRES
   158   79  157 1    
   159   80   81 2    
@<TRIPOS>SUBSTRUCTURE
     1 UNK         1 GROUP             0       ****    0 ROOT    
