@<TRIPOS>MOLECULE
3R207
157   159    1
SMALL
USER_CHARGES


@<TRIPOS>ATOM
      1 CA        -50.1591  -31.2057    6.9367 C.3       0 UNK        -0.1975 
      2 C         -50.0413  -30.0749    5.9262 C.2       0 UNK         0.4852 
      3 O         -49.4079  -30.2436    4.8840 O.2       0 UNK        -0.5216 
      4 N         -50.6467  -28.9204    6.2313 N.am      1 UNK        -0.4461 
      5 CA        -50.6959  -27.7257    5.3756 C.3       1 UNK         0.0864 
      6 C6        -51.8179  -26.7442    5.8088 C.3       14 UNK        -0.0898 
      7 S7        -53.4655  -27.5243    5.9483 S.3       14 UNK        -0.2598 
      8 C8        -53.8853  -27.2479    7.7016 C.3       14 UNK         0.0286 
      9 C9        -53.2705  -28.3013    8.6137 C.ar      14 UNK        -0.0844 
     10 C10       -51.9430  -28.1840    9.0324 C.ar      14 UNK        -0.0881 
     11 C11       -51.3600  -29.1520    9.8619 C.ar      14 UNK        -0.0643 
     12 C12       -52.1430  -30.2237   10.2966 C.ar      14 UNK        -0.0930 
     13 C13       -53.4845  -30.3333    9.9216 C.ar      14 UNK        -0.0827 
     14 C14       -54.0395  -29.3769    9.0669 C.ar      14 UNK        -0.1249 
     15 C15       -54.3365  -31.4671   10.4711 C.3       14 UNK         0.0141 
     16 S16       -54.5406  -31.2768   12.2678 S.3       14 UNK        -0.2313 
     17 C17       -56.0697  -32.2140   12.5900 C.3       14 UNK        -0.0915 
     18 CA        -57.3724  -31.4192   12.2932 C.3       13 UNK         0.0968 
     19 C         -58.6213  -32.2372   12.7337 C.2       13 UNK         0.5732 
     20 N         -59.3874  -31.8010   13.7265 N.am      13 UNK        -0.7310 
     21 O         -58.9004  -33.2871   12.1591 O.2       13 UNK        -0.5035 
     22 N         -57.3155  -30.0330   12.7915 N.am      13 UNK        -0.4233 
     23 C         -58.1352  -29.0453   12.4147 C.2       13 UNK         0.4989 
     24 O         -59.0893  -29.1999   11.6516 O.2       13 UNK        -0.4996 
     25 CA        -57.8241  -27.6332   12.9390 C.3       12 UNK         0.0216 
     26 CB        -58.2395  -27.4657   14.4146 C.3       12 UNK        -0.1964 
     27 N         -56.4372  -27.2086   12.6952 N.am      12 UNK        -0.4276 
     28 C         -55.3042  -27.6426   13.2674 C.2       12 UNK         0.5020 
     29 O         -55.2685  -28.4902   14.1612 O.2       12 UNK        -0.5489 
     30 CA        -53.9777  -27.0530   12.7410 C.3       11 UNK         0.0294 
     31 CB        -54.1231  -26.2038   11.4575 C.3       11 UNK        -0.2019 
     32 N         -53.2518  -26.2923   13.7652 N.am      11 UNK        -0.4493 
     33 C         -53.7071  -25.2670   14.5038 C.2       11 UNK         0.4932 
     34 O         -54.8492  -24.8132   14.4193 O.2       11 UNK        -0.5029 
     35 CA        -52.7081  -24.5882   15.4629 C.3       10 UNK         0.0280 
     36 CB        -53.3440  -24.2024   16.8154 C.3       10 UNK        -0.1976 
     37 N         -51.4501  -25.3248   15.6346 N.am      10 UNK        -0.4242 
     38 C         -51.2179  -26.4510   16.3253 C.2       10 UNK         0.5072 
     39 O         -52.0654  -27.0492   16.9876 O.2       10 UNK        -0.5224 
     40 CA        -49.7902  -27.0232   16.2432 C.3       9 UNK         0.0343 
     41 CB        -49.7117  -28.1151   15.1618 C.3       9 UNK        -0.2003 
     42 N         -48.7823  -25.9955   15.9631 N.am      9 UNK        -0.4272 
     43 C         -48.2899  -25.1409   16.8720 C.2       9 UNK         0.4988 
     44 O         -48.5806  -25.1705   18.0681 O.2       9 UNK        -0.5108 
     45 CA        -47.3123  -24.0668   16.3617 C.3       8 UNK         0.0248 
     46 CB        -45.8679  -24.5916   16.3953 C.3       8 UNK        -0.2001 
     47 N         -47.6406  -23.6066   15.0086 N.am      8 UNK        -0.4140 
     48 C         -48.6600  -22.7782   14.7273 C.2       8 UNK         0.5028 
     49 O         -49.3746  -22.2631   15.5875 O.2       8 UNK        -0.5428 
     50 CA        -48.9650  -22.4913   13.2426 C.3       7 UNK         0.0264 
     51 CB        -48.2461  -21.2105   12.7898 C.3       7 UNK        -0.1988 
     52 N         -48.6208  -23.5898   12.3337 N.am      7 UNK        -0.4454 
     53 C         -49.0966  -24.8403   12.4292 C.2       7 UNK         0.5027 
     54 O         -49.9664  -25.1692   13.2348 O.2       7 UNK        -0.5083 
     55 CA        -48.4668  -25.9349   11.5462 C.3       6 UNK         0.0844 
     56 C56       -49.4166  -26.3231   10.3930 C.3       14 UNK        -0.0967 
     57 S57       -48.8595  -27.8319    9.5303 S.3       14 UNK        -0.2604 
     58 C58       -49.9040  -29.0953   10.3286 C.3       14 UNK         0.0134 
     59 N         -47.1125  -25.6183   11.0810 N.am      6 UNK        -0.4116 
     60 C         -46.0452  -25.4242   11.8695 C.2       5 UNK         0.5034 
     61 O         -46.0956  -25.4140   13.1002 O.2       5 UNK        -0.5045 
     62 CA        -44.7068  -25.1690   11.1651 C.3       5 UNK         0.0224 
     63 CB        -44.1272  -26.4816   10.6119 C.3       5 UNK        -0.1978 
     64 N         -44.8757  -24.2109   10.0727 N.am      5 UNK        -0.4737 
     65 C         -44.6767  -22.8912   10.1813 C.2       4 UNK         0.5027 
     66 O         -44.2364  -22.3467   11.1938 O.2       4 UNK        -0.5211 
     67 CA        -45.0350  -22.0226    8.9597 C.3       4 UNK         0.0297 
     68 CB        -43.7990  -21.8157    8.0696 C.3       4 UNK        -0.1993 
     69 N         -46.1333  -22.5557    8.1464 N.am      4 UNK        -0.4486 
     70 C         -47.3914  -22.7216    8.5773 C.2       3 UNK         0.4961 
     71 O         -47.7693  -22.4436    9.7148 O.2       3 UNK        -0.5105 
     72 CA        -48.3943  -23.3439    7.5894 C.3       3 UNK         0.0299 
     73 CB        -48.9766  -22.2615    6.6669 C.3       3 UNK        -0.1972 
     74 N         -47.9001  -24.4626    6.7730 N.am      3 UNK        -0.4305 
     75 C         -47.1693  -25.5094    7.1842 C.2       2 UNK         0.5006 
     76 O         -46.6541  -25.5974    8.2991 O.2       2 UNK        -0.5106 
     77 CA        -47.0508  -26.6815    6.1973 C.3       2 UNK         0.0296 
     78 CB        -45.9959  -27.7144    6.6370 C.3       2 UNK        -0.2002 
     79 N         -48.3474  -27.3502    6.0820 N.am      2 UNK        -0.4032 
     80 C         -49.3470  -26.9726    5.2727 C.2       1 UNK         0.5000 
     81 O         -49.2443  -26.0306    4.4833 O.2       1 UNK        -0.5238 
     82 H82       -50.3264  -32.1535    6.4257 H         1 UNK         0.0889 
     83 H83       -50.9897  -31.0465    7.6241 H         1 UNK         0.0889 
     84 H84       -49.2416  -31.2874    7.5188 H         1 UNK         0.0889 
     85 H85       -51.1828  -28.8605    7.0870 H         1 UNK         0.3028 
     86 H86       -50.9302  -28.0653    4.3644 H         1 UNK         0.0864 
     87 H87       -51.9119  -25.9417    5.0745 H         1 UNK         0.0720 
     88 H88       -51.5596  -26.2487    6.7451 H         1 UNK         0.0720 
     89 H89       -54.9718  -27.2635    7.7999 H         1 UNK         0.0814 
     90 H90       -53.5753  -26.2488    8.0114 H         1 UNK         0.0814 
     91 H91       -51.3715  -27.3323    8.7004 H         1 UNK         0.1469 
     92 H92       -51.7143  -30.9681   10.9542 H         1 UNK         0.1381 
     93 H93       -55.0755  -29.4595    8.7674 H         1 UNK         0.1206 
     94 H94       -55.3140  -31.4790    9.9874 H         1 UNK         0.0813 
     95 H95       -53.8664  -32.4273   10.2548 H         1 UNK         0.0813 
     96 H96       -56.0437  -32.5108   13.6402 H         1 UNK         0.0638 
     97 H97       -56.0426  -33.1398   12.0122 H         1 UNK         0.0638 
     98 H98       -57.4520  -31.3410   11.2076 H         1 UNK         0.0568 
     99 H99       -60.1951  -32.3377   14.0003 H         1 UNK         0.3450 
    100 H100      -59.1651  -30.9414   14.2016 H         1 UNK         0.3450 
    101 H101      -56.5341  -29.7972   13.3968 H         1 UNK         0.2987 
    102 H102      -58.4395  -26.9452   12.3568 H         1 UNK         0.0766 
    103 H103      -58.0548  -26.4495   14.7633 H         1 UNK         0.0798 
    104 H104      -57.7038  -28.1473   15.0756 H         1 UNK         0.0798 
    105 H105      -59.3044  -27.6643   14.5419 H         1 UNK         0.0798 
    106 H106      -56.3324  -26.5128   11.9699 H         1 UNK         0.3198 
    107 H107      -53.3525  -27.9124   12.4905 H         1 UNK         0.0843 
    108 H108      -54.6801  -25.2823   11.6303 H         1 UNK         0.0831 
    109 H109      -54.6293  -26.7615   10.6690 H         1 UNK         0.0831 
    110 H110      -53.1447  -25.9253   11.0657 H         1 UNK         0.0831 
    111 H111      -52.2957  -26.5758   13.9228 H         1 UNK         0.3133 
    112 H112      -52.4214  -23.6583   14.9695 H         1 UNK         0.0566 
    113 H113      -52.6180  -23.7254   17.4739 H         1 UNK         0.0814 
    114 H114      -54.1634  -23.4967   16.6734 H         1 UNK         0.0814 
    115 H115      -53.7539  -25.0688   17.3348 H         1 UNK         0.0814 
    116 H116      -50.6945  -25.0006   15.0382 H         1 UNK         0.3091 
    117 H117      -49.5619  -27.4827   17.2074 H         1 UNK         0.0702 
    118 H118      -50.4271  -28.9138   15.3631 H         1 UNK         0.0785 
    119 H119      -49.9330  -27.7242   14.1684 H         1 UNK         0.0785 
    120 H120      -48.7215  -28.5702   15.1297 H         1 UNK         0.0785 
    121 H121      -48.4988  -25.8886   14.9998 H         1 UNK         0.2998 
    122 H122      -47.3739  -23.2125   17.0395 H         1 UNK         0.0697 
    123 H123      -45.7398  -25.4711   15.7633 H         1 UNK         0.0825 
    124 H124      -45.5818  -24.8765   17.4087 H         1 UNK         0.0825 
    125 H125      -45.1608  -23.8324   16.0606 H         1 UNK         0.0825 
    126 H126      -47.1015  -24.0071   14.2475 H         1 UNK         0.3029 
    127 H127      -50.0417  -22.3271   13.1620 H         1 UNK         0.0897 
    128 H128      -48.5695  -20.9062   11.7943 H         1 UNK         0.0792 
    129 H129      -47.1634  -21.3427   12.7646 H         1 UNK         0.0792 
    130 H130      -48.4602  -20.3797   13.4638 H         1 UNK         0.0792 
    131 H131      -47.9759  -23.3698   11.5816 H         1 UNK         0.3086 
    132 H132      -48.3678  -26.8092   12.1932 H         1 UNK         0.0583 
    133 H133      -50.4295  -26.4811   10.7692 H         1 UNK         0.1020 
    134 H134      -49.4873  -25.5137    9.6664 H         1 UNK         0.1020 
    135 H135      -49.4423  -30.0658   10.1407 H         1 UNK         0.0694 
    136 H136      -49.8791  -28.9474   11.4093 H         1 UNK         0.0694 
    137 H137      -46.9745  -25.6281   10.0720 H         1 UNK         0.2989 
    138 H138      -44.0076  -24.7749   11.9064 H         1 UNK         0.1055 
    139 H139      -43.9904  -27.2137   11.4090 H         1 UNK         0.0806 
    140 H140      -43.1529  -26.3188   10.1510 H         1 UNK         0.0806 
    141 H141      -44.7790  -26.9330    9.8624 H         1 UNK         0.0806 
    142 H142      -45.3064  -24.5688    9.2245 H         1 UNK         0.3061 
    143 H143      -45.3503  -21.0477    9.3377 H         1 UNK         0.0734 
    144 H144      -42.9724  -21.3935    8.6430 H         1 UNK         0.0832 
    145 H145      -44.0080  -21.1259    7.2517 H         1 UNK         0.0832 
    146 H146      -43.4496  -22.7549    7.6389 H         1 UNK         0.0832 
    147 H147      -45.9125  -22.8348    7.2015 H         1 UNK         0.3156 
    148 H148      -49.2174  -23.7397    8.1855 H         1 UNK         0.0589 
    149 H149      -48.2227  -21.8612    5.9880 H         1 UNK         0.0808 
    150 H150      -49.7974  -22.6516    6.0646 H         1 UNK         0.0808 
    151 H151      -49.3723  -21.4250    7.2451 H         1 UNK         0.0808 
    152 H152      -48.2866  -24.5278    5.8386 H         1 UNK         0.3098 
    153 H153      -46.7494  -26.2818    5.2268 H         1 UNK         0.0720 
    154 H154      -45.9005  -28.5177    5.9063 H         1 UNK         0.0791 
    155 H155      -46.2447  -28.1651    7.5989 H         1 UNK         0.0791 
    156 H156      -45.0142  -27.2499    6.7394 H         1 UNK         0.0791 
    157 H157      -48.5275  -28.0957    6.7391 H         1 UNK         0.3028 
@<TRIPOS>BOND
     1    1    2 1    
     2    1   82 1    
     3    1   83 1    
     4    1   84 1    
     5    2    3 2    
     6    2    4 am   BACKBONE|DICT|INTERRES
     7    4    5 1    
     8    4   85 1    
     9    5    6 1    
    10    5   80 1    
    11    5   86 1    
    12    6    7 1    
    13    6   87 1    
    14    6   88 1    
    15    7    8 1    
    16    8    9 1    
    17    8   89 1    
    18    8   90 1    
    19    9   10 ar   
    20    9   14 ar   
    21   10   11 ar   
    22   10   91 1    
    23   11   12 ar   
    24   11   58 1    
    25   12   13 ar   
    26   12   92 1    
    27   13   14 ar   
    28   13   15 1    
    29   14   93 1    
    30   15   16 1    
    31   15   94 1    
    32   15   95 1    
    33   16   17 1    
    34   17   18 1    
    35   17   96 1    
    36   17   97 1    
    37   18   19 1    
    38   18   22 1    
    39   18   98 1    
    40   19   20 am   BACKBONE|DICT|INTERRES
    41   19   21 2    
    42   20   99 1    
    43   20  100 1    
    44   22   23 am   BACKBONE|DICT|INTERRES
    45   22  101 1    
    46   23   24 2    
    47   23   25 1    
    48   25   26 1    
    49   25   27 1    
    50   25  102 1    
    51   26  103 1    
    52   26  104 1    
    53   26  105 1    
    54   27   28 am   BACKBONE|DICT|INTERRES
    55   27  106 1    
    56   28   29 2    
    57   28   30 1    
    58   30   31 1    
    59   30   32 1    
    60   30  107 1    
    61   31  108 1    
    62   31  109 1    
    63   31  110 1    
    64   32   33 am   BACKBONE|DICT|INTERRES
    65   32  111 1    
    66   33   34 2    
    67   33   35 1    
    68   35   36 1    
    69   35   37 1    
    70   35  112 1    
    71   36  113 1    
    72   36  114 1    
    73   36  115 1    
    74   37   38 am   BACKBONE|DICT|INTERRES
    75   37  116 1    
    76   38   39 2    
    77   38   40 1    
    78   40   41 1    
    79   40   42 1    
    80   40  117 1    
    81   41  118 1    
    82   41  119 1    
    83   41  120 1    
    84   42   43 am   BACKBONE|DICT|INTERRES
    85   42  121 1    
    86   43   44 2    
    87   43   45 1    
    88   45   46 1    
    89   45   47 1    
    90   45  122 1    
    91   46  123 1    
    92   46  124 1    
    93   46  125 1    
    94   47   48 am   BACKBONE|DICT|INTERRES
    95   47  126 1    
    96   48   49 2    
    97   48   50 1    
    98   50   51 1    
    99   50   52 1    
   100   50  127 1    
   101   51  128 1    
   102   51  129 1    
   103   51  130 1    
   104   52   53 am   BACKBONE|DICT|INTERRES
   105   52  131 1    
   106   53   54 2    
   107   53   55 1    
   108   55   56 1    
   109   55   59 1    
   110   55  132 1    
   111   56   57 1    
   112   56  133 1    
   113   56  134 1    
   114   57   58 1    
   115   58  135 1    
   116   58  136 1    
   117   59   60 am   BACKBONE|DICT|INTERRES
   118   59  137 1    
   119   60   61 2    
   120   60   62 1    
   121   62   63 1    
   122   62   64 1    
   123   62  138 1    
   124   63  139 1    
   125   63  140 1    
   126   63  141 1    
   127   64   65 am   BACKBONE|DICT|INTERRES
   128   64  142 1    
   129   65   66 2    
   130   65   67 1    
   131   67   68 1    
   132   67   69 1    
   133   67  143 1    
   134   68  144 1    
   135   68  145 1    
   136   68  146 1    
   137   69   70 am   BACKBONE|DICT|INTERRES
   138   69  147 1    
   139   70   71 2    
   140   70   72 1    
   141   72   73 1    
   142   72   74 1    
   143   72  148 1    
   144   73  149 1    
   145   73  150 1    
   146   73  151 1    
   147   74   75 am   BACKBONE|DICT|INTERRES
   148   74  152 1    
   149   75   76 2    
   150   75   77 1    
   151   77   78 1    
   152   77   79 1    
   153   77  153 1    
   154   78  154 1    
   155   78  155 1    
   156   78  156 1    
   157   79   80 am   BACKBONE|DICT|INTERRES
   158   79  157 1    
   159   80   81 2    
@<TRIPOS>SUBSTRUCTURE
     1 UNK         1 GROUP             0       ****    0 ROOT    
