@<TRIPOS>MOLECULE
3R207
157   159    1
SMALL
USER_CHARGES


@<TRIPOS>ATOM
      1 CA        -50.8849  -28.6013    9.5474 C.3       0 UNK        -0.1975 
      2 C         -50.0125  -29.2767    8.5015 C.2       0 UNK         0.4852 
      3 O         -49.0939  -30.0168    8.8529 O.2       0 UNK        -0.5216 
      4 N         -50.2902  -29.0221    7.2161 N.am      1 UNK        -0.4461 
      5 CA        -49.5567  -29.5798    6.0697 C.3       1 UNK         0.0864 
      6 C6        -50.3652  -29.4570    4.7533 C.3       14 UNK        -0.0898 
      7 S7        -51.8703  -30.4885    4.7610 S.3       14 UNK        -0.2598 
      8 C8        -53.1908  -29.2583    4.5226 C.3       14 UNK         0.0286 
      9 C9        -53.4982  -28.5061    5.8077 C.ar      14 UNK        -0.0844 
     10 C10       -52.9873  -27.2229    6.0193 C.ar      14 UNK        -0.0881 
     11 C11       -53.2631  -26.5379    7.2066 C.ar      14 UNK        -0.0643 
     12 C12       -54.0840  -27.1316    8.1711 C.ar      14 UNK        -0.0930 
     13 C13       -54.6053  -28.4128    7.9669 C.ar      14 UNK        -0.0827 
     14 C14       -54.3050  -29.0958    6.7850 C.ar      14 UNK        -0.1249 
     15 C15       -55.4915  -29.0613    9.0198 C.3       14 UNK         0.0141 
     16 S16       -54.5169  -29.6250   10.4488 S.3       14 UNK        -0.2313 
     17 C17       -55.6905  -30.7725   11.2443 C.3       14 UNK        -0.0915 
     18 CA        -56.6528  -30.0986   12.2587 C.3       13 UNK         0.0968 
     19 C         -57.6262  -31.1626   12.8491 C.2       13 UNK         0.5732 
     20 N         -57.4761  -31.5872   14.0997 N.am      13 UNK        -0.7310 
     21 O         -58.5357  -31.6099   12.1544 O.2       13 UNK        -0.5035 
     22 N         -55.9232  -29.3195   13.2688 N.am      13 UNK        -0.4233 
     23 C         -56.4814  -28.4970   14.1668 C.2       13 UNK         0.4989 
     24 O         -57.6685  -28.1666   14.1408 O.2       13 UNK        -0.4996 
     25 CA        -55.5636  -27.9635   15.2887 C.3       12 UNK         0.0216 
     26 CB        -56.3239  -27.7419   16.6133 C.3       12 UNK        -0.1964 
     27 N         -54.3570  -28.7742   15.5220 N.am      12 UNK        -0.4276 
     28 C         -54.2952  -30.0790   15.8414 C.2       12 UNK         0.5020 
     29 O         -55.2933  -30.7860   15.9939 O.2       12 UNK        -0.5489 
     30 CA        -52.9037  -30.7364   15.9401 C.3       11 UNK         0.0294 
     31 CB        -52.7819  -31.8864   14.9238 C.3       11 UNK        -0.2019 
     32 N         -51.8018  -29.7976   15.7127 N.am      11 UNK        -0.4493 
     33 C         -51.2443  -29.0242   16.6523 C.2       11 UNK         0.4932 
     34 O         -51.5562  -29.0641   17.8436 O.2       11 UNK        -0.5029 
     35 CA        -50.1718  -28.0147   16.1903 C.3       10 UNK         0.0280 
     36 CB        -49.8600  -28.0572   14.6758 C.3       10 UNK        -0.1976 
     37 N         -50.5031  -26.6437   16.5958 N.am      10 UNK        -0.4242 
     38 C         -51.6464  -25.9799   16.3544 C.2       10 UNK         0.5072 
     39 O         -52.6020  -26.4467   15.7327 O.2       10 UNK        -0.5224 
     40 CA        -51.7184  -24.5361   16.8836 C.3       9 UNK         0.0343 
     41 CB        -51.9722  -24.5166   18.4001 C.3       9 UNK        -0.2003 
     42 N         -50.4985  -23.7855   16.5693 N.am      9 UNK        -0.4272 
     43 C         -50.1730  -23.3946   15.3291 C.2       9 UNK         0.4988 
     44 O         -50.9402  -23.4885   14.3695 O.2       9 UNK        -0.5108 
     45 CA        -48.7463  -22.8413   15.1439 C.3       8 UNK         0.0248 
     46 CB        -47.7023  -23.9452   15.3949 C.3       8 UNK        -0.2001 
     47 N         -48.5340  -22.3054   13.7978 N.am      8 UNK        -0.4140 
     48 C         -49.0330  -21.1504   13.3381 C.2       8 UNK         0.5028 
     49 O         -49.6253  -20.3283   14.0400 O.2       8 UNK        -0.5428 
     50 CA        -48.8452  -20.8665   11.8375 C.3       7 UNK         0.0264 
     51 CB        -47.4506  -20.2802   11.5643 C.3       7 UNK        -0.1988 
     52 N         -49.0544  -22.0600   11.0110 N.am      7 UNK        -0.4454 
     53 C         -50.2506  -22.6310   10.7959 C.2       7 UNK         0.5027 
     54 O         -51.3131  -22.1430   11.1840 O.2       7 UNK        -0.5083 
     55 CA        -50.2854  -23.9601   10.0119 C.3       6 UNK         0.0844 
     56 C56       -50.4902  -23.7129    8.4981 C.3       14 UNK        -0.0967 
     57 S57       -50.8541  -25.2689    7.6191 S.3       14 UNK        -0.2604 
     58 C58       -52.6620  -25.1636    7.4521 C.3       14 UNK         0.0134 
     59 N         -49.1069  -24.7875   10.2796 N.am      6 UNK        -0.4116 
     60 C         -48.8848  -25.4636   11.4139 C.2       5 UNK         0.5034 
     61 O         -49.6877  -25.5387   12.3401 O.2       5 UNK        -0.5045 
     62 CA        -47.5250  -26.1665   11.5503 C.3       5 UNK         0.0224 
     63 CB        -47.5805  -27.5912   10.9777 C.3       5 UNK        -0.1978 
     64 N         -46.4385  -25.4195   10.9122 N.am      5 UNK        -0.4737 
     65 C         -45.9506  -24.2598   11.3725 C.2       4 UNK         0.5027 
     66 O         -46.3579  -23.7047   12.3917 O.2       4 UNK        -0.5211 
     67 CA        -44.8488  -23.5905   10.5346 C.3       4 UNK         0.0297 
     68 CB        -43.4761  -24.1992   10.8610 C.3       4 UNK        -0.1993 
     69 N         -45.0990  -23.6800    9.0936 N.am      4 UNK        -0.4486 
     70 C         -46.1130  -23.0675    8.4667 C.2       3 UNK         0.4961 
     71 O         -46.9342  -22.3471    9.0321 O.2       3 UNK        -0.5105 
     72 CA        -46.2694  -23.3482    6.9627 C.3       3 UNK         0.0299 
     73 CB        -45.3072  -22.4719    6.1450 C.3       3 UNK        -0.1972 
     74 N         -46.0950  -24.7584    6.5917 N.am      3 UNK        -0.4305 
     75 C         -46.7988  -25.7751    7.1071 C.2       2 UNK         0.5006 
     76 O         -47.6008  -25.6580    8.0346 O.2       2 UNK        -0.5106 
     77 CA        -46.5548  -27.1639    6.5187 C.3       2 UNK         0.0296 
     78 CB        -45.4652  -27.9068    7.3148 C.3       2 UNK        -0.2002 
     79 N         -47.8209  -27.8878    6.5808 N.am      2 UNK        -0.4032 
     80 C         -48.1373  -28.9890    5.8900 C.2       1 UNK         0.5000 
     81 O         -47.3556  -29.5443    5.1146 O.2       1 UNK        -0.5238 
     82 H82       -50.9051  -29.1845   10.4677 H         1 UNK         0.0889 
     83 H83       -51.9092  -28.5019    9.1945 H         1 UNK         0.0889 
     84 H84       -50.5028  -27.6075    9.7781 H         1 UNK         0.0889 
     85 H85       -51.0782  -28.4301    6.9879 H         1 UNK         0.3028 
     86 H86       -49.4073  -30.6438    6.2672 H         1 UNK         0.0864 
     87 H87       -50.6174  -28.4146    4.5528 H         1 UNK         0.0720 
     88 H88       -49.7693  -29.7892    3.9007 H         1 UNK         0.0720 
     89 H89       -52.9190  -28.5707    3.7201 H         1 UNK         0.0814 
     90 H90       -54.0909  -29.7737    4.1841 H         1 UNK         0.0814 
     91 H91       -52.3610  -26.7583    5.2696 H         1 UNK         0.1469 
     92 H92       -54.3039  -26.6079    9.0915 H         1 UNK         0.1381 
     93 H93       -54.6981  -30.0904    6.6226 H         1 UNK         0.1206 
     94 H94       -56.0307  -29.9045    8.5857 H         1 UNK         0.0813 
     95 H95       -56.2485  -28.3514    9.3563 H         1 UNK         0.0813 
     96 H96       -55.0991  -31.5402   11.7471 H         1 UNK         0.0638 
     97 H97       -56.2529  -31.2940   10.4676 H         1 UNK         0.0638 
     98 H98       -57.2740  -29.3921   11.7053 H         1 UNK         0.0568 
     99 H99       -58.1164  -32.2739   14.4642 H         1 UNK         0.3450 
    100 H100      -56.7277  -31.2351   14.6890 H         1 UNK         0.3450 
    101 H101      -54.9389  -29.5197   13.3509 H         1 UNK         0.2987 
    102 H102      -55.2109  -26.9902   14.9448 H         1 UNK         0.0766 
    103 H103      -55.6655  -27.3401   17.3836 H         1 UNK         0.0798 
    104 H104      -56.7561  -28.6693   16.9906 H         1 UNK         0.0798 
    105 H105      -57.1404  -27.0302   16.4853 H         1 UNK         0.0798 
    106 H106      -53.4881  -28.2509   15.4564 H         1 UNK         0.3198 
    107 H107      -52.8176  -31.1584   16.9438 H         1 UNK         0.0843 
    108 H108      -53.5525  -32.6406   15.0899 H         1 UNK         0.0831 
    109 H109      -51.8190  -32.3904   15.0084 H         1 UNK         0.0831 
    110 H110      -52.8886  -31.5345   13.8968 H         1 UNK         0.0831 
    111 H111      -51.4844  -29.6921   14.7596 H         1 UNK         0.3133 
    112 H112      -49.2575  -28.2821   16.7219 H         1 UNK         0.0566 
    113 H113      -49.0564  -27.3635   14.4283 H         1 UNK         0.0814 
    114 H114      -49.5270  -29.0469   14.3606 H         1 UNK         0.0814 
    115 H115      -50.7217  -27.7778   14.0677 H         1 UNK         0.0814 
    116 H116      -49.8001  -26.1748   17.1475 H         1 UNK         0.3091 
    117 H117      -52.5630  -24.0442   16.3958 H         1 UNK         0.0702 
    118 H118      -52.8810  -25.0671   18.6479 H         1 UNK         0.0785 
    119 H119      -51.1536  -24.9720   18.9587 H         1 UNK         0.0785 
    120 H120      -52.1024  -23.4980   18.7661 H         1 UNK         0.0785 
    121 H121      -49.8347  -23.6494   17.3182 H         1 UNK         0.2998 
    122 H122      -48.5930  -22.0369   15.8661 H         1 UNK         0.0697 
    123 H123      -47.8510  -24.7943   14.7259 H         1 UNK         0.0825 
    124 H124      -47.7510  -24.3210   16.4171 H         1 UNK         0.0825 
    125 H125      -46.6888  -23.5745   15.2394 H         1 UNK         0.0825 
    126 H126      -48.0162  -22.8976   13.1559 H         1 UNK         0.3029 
    127 H127      -49.5873  -20.1193   11.5476 H         1 UNK         0.0897 
    128 H128      -47.3379  -19.9985   10.5172 H         1 UNK         0.0792 
    129 H129      -46.6586  -20.9896   11.8063 H         1 UNK         0.0792 
    130 H130      -47.2802  -19.3835   12.1615 H         1 UNK         0.0792 
    131 H131      -48.2330  -22.4565   10.5649 H         1 UNK         0.3086 
    132 H132      -51.1579  -24.5073   10.3768 H         1 UNK         0.0583 
    133 H133      -51.3009  -23.0033    8.3203 H         1 UNK         0.1020 
    134 H134      -49.5960  -23.2664    8.0588 H         1 UNK         0.1020 
    135 H135      -53.0849  -24.7209    8.3555 H         1 UNK         0.0694 
    136 H136      -52.9138  -24.4956    6.6272 H         1 UNK         0.0694 
    137 H137      -48.4351  -24.8791    9.5215 H         1 UNK         0.2989 
    138 H138      -47.3029  -26.2390   12.6174 H         1 UNK         0.1055 
    139 H139      -48.3683  -28.1737   11.4575 H         1 UNK         0.0806 
    140 H140      -46.6427  -28.1222   11.1402 H         1 UNK         0.0806 
    141 H141      -47.7835  -27.5906    9.9067 H         1 UNK         0.0806 
    142 H142      -46.0983  -25.7716   10.0293 H         1 UNK         0.3061 
    143 H143      -44.8245  -22.5328   10.8060 H         1 UNK         0.0734 
    144 H144      -42.6753  -23.6769   10.3373 H         1 UNK         0.0832 
    145 H145      -43.2632  -24.1266   11.9286 H         1 UNK         0.0832 
    146 H146      -43.4238  -25.2545   10.5902 H         1 UNK         0.0832 
    147 H147      -44.4768  -24.2596    8.5494 H         1 UNK         0.3156 
    148 H148      -47.2898  -23.0713    6.6892 H         1 UNK         0.0589 
    149 H149      -44.2641  -22.7309    6.3308 H         1 UNK         0.0808 
    150 H150      -45.4925  -22.5697    5.0751 H         1 UNK         0.0808 
    151 H151      -45.4308  -21.4175    6.3967 H         1 UNK         0.0808 
    152 H152      -45.4420  -24.9509    5.8454 H         1 UNK         0.3098 
    153 H153      -46.2512  -27.0626    5.4748 H         1 UNK         0.0720 
    154 H154      -45.7547  -28.0491    8.3567 H         1 UNK         0.0791 
    155 H155      -44.5257  -27.3529    7.3071 H         1 UNK         0.0791 
    156 H156      -45.2619  -28.8898    6.8900 H         1 UNK         0.0791 
    157 H157      -48.5130  -27.4600    7.1844 H         1 UNK         0.3028 
@<TRIPOS>BOND
     1    1    2 1    
     2    1   82 1    
     3    1   83 1    
     4    1   84 1    
     5    2    3 2    
     6    2    4 am   BACKBONE|DICT|INTERRES
     7    4    5 1    
     8    4   85 1    
     9    5    6 1    
    10    5   80 1    
    11    5   86 1    
    12    6    7 1    
    13    6   87 1    
    14    6   88 1    
    15    7    8 1    
    16    8    9 1    
    17    8   89 1    
    18    8   90 1    
    19    9   10 ar   
    20    9   14 ar   
    21   10   11 ar   
    22   10   91 1    
    23   11   12 ar   
    24   11   58 1    
    25   12   13 ar   
    26   12   92 1    
    27   13   14 ar   
    28   13   15 1    
    29   14   93 1    
    30   15   16 1    
    31   15   94 1    
    32   15   95 1    
    33   16   17 1    
    34   17   18 1    
    35   17   96 1    
    36   17   97 1    
    37   18   19 1    
    38   18   22 1    
    39   18   98 1    
    40   19   20 am   BACKBONE|DICT|INTERRES
    41   19   21 2    
    42   20   99 1    
    43   20  100 1    
    44   22   23 am   BACKBONE|DICT|INTERRES
    45   22  101 1    
    46   23   24 2    
    47   23   25 1    
    48   25   26 1    
    49   25   27 1    
    50   25  102 1    
    51   26  103 1    
    52   26  104 1    
    53   26  105 1    
    54   27   28 am   BACKBONE|DICT|INTERRES
    55   27  106 1    
    56   28   29 2    
    57   28   30 1    
    58   30   31 1    
    59   30   32 1    
    60   30  107 1    
    61   31  108 1    
    62   31  109 1    
    63   31  110 1    
    64   32   33 am   BACKBONE|DICT|INTERRES
    65   32  111 1    
    66   33   34 2    
    67   33   35 1    
    68   35   36 1    
    69   35   37 1    
    70   35  112 1    
    71   36  113 1    
    72   36  114 1    
    73   36  115 1    
    74   37   38 am   BACKBONE|DICT|INTERRES
    75   37  116 1    
    76   38   39 2    
    77   38   40 1    
    78   40   41 1    
    79   40   42 1    
    80   40  117 1    
    81   41  118 1    
    82   41  119 1    
    83   41  120 1    
    84   42   43 am   BACKBONE|DICT|INTERRES
    85   42  121 1    
    86   43   44 2    
    87   43   45 1    
    88   45   46 1    
    89   45   47 1    
    90   45  122 1    
    91   46  123 1    
    92   46  124 1    
    93   46  125 1    
    94   47   48 am   BACKBONE|DICT|INTERRES
    95   47  126 1    
    96   48   49 2    
    97   48   50 1    
    98   50   51 1    
    99   50   52 1    
   100   50  127 1    
   101   51  128 1    
   102   51  129 1    
   103   51  130 1    
   104   52   53 am   BACKBONE|DICT|INTERRES
   105   52  131 1    
   106   53   54 2    
   107   53   55 1    
   108   55   56 1    
   109   55   59 1    
   110   55  132 1    
   111   56   57 1    
   112   56  133 1    
   113   56  134 1    
   114   57   58 1    
   115   58  135 1    
   116   58  136 1    
   117   59   60 am   BACKBONE|DICT|INTERRES
   118   59  137 1    
   119   60   61 2    
   120   60   62 1    
   121   62   63 1    
   122   62   64 1    
   123   62  138 1    
   124   63  139 1    
   125   63  140 1    
   126   63  141 1    
   127   64   65 am   BACKBONE|DICT|INTERRES
   128   64  142 1    
   129   65   66 2    
   130   65   67 1    
   131   67   68 1    
   132   67   69 1    
   133   67  143 1    
   134   68  144 1    
   135   68  145 1    
   136   68  146 1    
   137   69   70 am   BACKBONE|DICT|INTERRES
   138   69  147 1    
   139   70   71 2    
   140   70   72 1    
   141   72   73 1    
   142   72   74 1    
   143   72  148 1    
   144   73  149 1    
   145   73  150 1    
   146   73  151 1    
   147   74   75 am   BACKBONE|DICT|INTERRES
   148   74  152 1    
   149   75   76 2    
   150   75   77 1    
   151   77   78 1    
   152   77   79 1    
   153   77  153 1    
   154   78  154 1    
   155   78  155 1    
   156   78  156 1    
   157   79   80 am   BACKBONE|DICT|INTERRES
   158   79  157 1    
   159   80   81 2    
@<TRIPOS>SUBSTRUCTURE
     1 UNK         1 GROUP             0       ****    0 ROOT    
