@<TRIPOS>MOLECULE
3R207
157   159    1
SMALL
USER_CHARGES


@<TRIPOS>ATOM
      1 CA        -44.7316  -30.4467   11.0141 C.3       0 UNK        -0.1975 
      2 C         -45.7020  -30.2553    9.8577 C.2       0 UNK         0.4852 
      3 O         -45.4203  -30.6958    8.7424 O.2       0 UNK        -0.5216 
      4 N         -46.8446  -29.6072   10.1183 N.am      1 UNK        -0.4461 
      5 CA        -47.8551  -29.2479    9.1204 C.3       1 UNK         0.0864 
      6 C6        -49.1922  -28.8995    9.8148 C.3       14 UNK        -0.0898 
      7 S7        -50.6213  -28.7802    8.6880 S.3       14 UNK        -0.2598 
      8 C8        -51.9979  -28.9566    9.8703 C.3       14 UNK         0.0286 
      9 C9        -53.1802  -28.0787    9.4892 C.ar      14 UNK        -0.0844 
     10 C10       -53.3358  -26.8182   10.0698 C.ar      14 UNK        -0.0881 
     11 C11       -54.4107  -25.9921    9.7233 C.ar      14 UNK        -0.0643 
     12 C12       -55.3637  -26.4670    8.8141 C.ar      14 UNK        -0.0930 
     13 C13       -55.2302  -27.7359    8.2373 C.ar      14 UNK        -0.0827 
     14 C14       -54.1245  -28.5269    8.5651 C.ar      14 UNK        -0.1249 
     15 C15       -56.2626  -28.2431    7.2379 C.3       14 UNK         0.0141 
     16 S16       -57.6611  -29.0929    8.0456 S.3       14 UNK        -0.2313 
     17 C17       -56.8698  -30.6122    8.6892 C.3       14 UNK        -0.0915 
     18 CA        -56.8212  -30.6955   10.2417 C.3       13 UNK         0.0968 
     19 C         -55.9974  -31.9316   10.7068 C.2       13 UNK         0.5732 
     20 N         -54.9021  -31.7667   11.4391 N.am      13 UNK        -0.7310 
     21 O         -56.3639  -33.0633   10.3987 O.2       13 UNK        -0.5035 
     22 N         -56.4288  -29.4177   10.8561 N.am      13 UNK        -0.4233 
     23 C         -56.6801  -29.0660   12.1208 C.2       13 UNK         0.4989 
     24 O         -57.1970  -29.8061   12.9612 O.2       13 UNK        -0.4996 
     25 CA        -56.3674  -27.6088   12.4741 C.3       12 UNK         0.0216 
     26 CB        -57.5664  -26.7090   12.1290 C.3       12 UNK        -0.1964 
     27 N         -56.0415  -27.4556   13.8911 N.am      12 UNK        -0.4276 
     28 C         -54.8108  -27.6004   14.3918 C.2       12 UNK         0.5020 
     29 O         -53.8162  -27.8861   13.7185 O.2       12 UNK        -0.5489 
     30 CA        -54.6570  -27.3900   15.9014 C.3       11 UNK         0.0294 
     31 CB        -54.9061  -28.7021   16.6681 C.3       11 UNK        -0.2019 
     32 N         -53.2998  -26.9128   16.1360 N.am      11 UNK        -0.4493 
     33 C         -52.8395  -26.2954   17.2296 C.2       11 UNK         0.4932 
     34 O         -53.5395  -26.0596   18.2156 O.2       11 UNK        -0.5029 
     35 CA        -51.3652  -25.8313   17.2210 C.3       10 UNK         0.0280 
     36 CB        -50.6666  -26.0677   18.5771 C.3       10 UNK        -0.1976 
     37 N         -50.5653  -26.3647   16.1064 N.am      10 UNK        -0.4242 
     38 C         -50.2298  -27.6467   15.8888 C.2       10 UNK         0.5072 
     39 O         -50.5087  -28.5709   16.6532 O.2       10 UNK        -0.5224 
     40 CA        -49.4980  -27.9749   14.5776 C.3       9 UNK         0.0343 
     41 CB        -50.5053  -28.3845   13.4945 C.3       9 UNK        -0.2003 
     42 N         -48.6556  -26.8951   14.0604 N.am      9 UNK        -0.4272 
     43 C         -47.4706  -26.5502   14.5829 C.2       9 UNK         0.4988 
     44 O         -47.0016  -27.0425   15.6094 O.2       9 UNK        -0.5108 
     45 CA        -46.6606  -25.4975   13.8150 C.3       8 UNK         0.0248 
     46 CB        -46.0383  -26.1102   12.5478 C.3       8 UNK        -0.2001 
     47 N         -47.4909  -24.3472   13.4580 N.am      8 UNK        -0.4140 
     48 C         -47.6283  -23.2510   14.2185 C.2       8 UNK         0.5028 
     49 O         -47.0021  -23.0568   15.2611 O.2       8 UNK        -0.5428 
     50 CA        -48.6394  -22.1868   13.7511 C.3       7 UNK         0.0264 
     51 CB        -47.9265  -21.0730   12.9673 C.3       7 UNK        -0.1988 
     52 N         -49.7326  -22.7451   12.9472 N.am      7 UNK        -0.4454 
     53 C         -50.6999  -23.5248   13.4600 C.2       7 UNK         0.5027 
     54 O         -50.7799  -23.7935   14.6580 O.2       7 UNK        -0.5083 
     55 CA        -51.7174  -24.1761   12.4985 C.3       6 UNK         0.0844 
     56 C56       -53.0797  -23.4374   12.5078 C.3       14 UNK        -0.0967 
     57 S57       -54.4715  -24.5552   12.1241 S.3       14 UNK        -0.2604 
     58 C58       -54.5283  -24.5815   10.3009 C.3       14 UNK         0.0134 
     59 N         -51.2017  -24.3312   11.1381 N.am      6 UNK        -0.4116 
     60 C         -50.1480  -25.0755   10.7859 C.2       5 UNK         0.5034 
     61 O         -49.4555  -25.7011   11.5915 O.2       5 UNK        -0.5045 
     62 CA        -49.7800  -25.0947    9.2938 C.3       5 UNK         0.0224 
     63 CB        -50.8084  -24.4102    8.3644 C.3       5 UNK        -0.1978 
     64 N         -48.4480  -24.5415    9.0659 N.am      5 UNK        -0.4737 
     65 C         -48.0034  -23.3273    9.4175 C.2       4 UNK         0.5027 
     66 O         -48.6607  -22.5096   10.0632 O.2       4 UNK        -0.5211 
     67 CA        -46.5902  -22.9614    8.9370 C.3       4 UNK         0.0297 
     68 CB        -45.5313  -23.5084    9.9053 C.3       4 UNK        -0.1993 
     69 N         -46.3266  -23.4670    7.5864 N.am      4 UNK        -0.4486 
     70 C         -46.9182  -23.0033    6.4751 C.2       3 UNK         0.4961 
     71 O         -47.6591  -22.0200    6.4521 O.2       3 UNK        -0.5105 
     72 CA        -46.6424  -23.7595    5.1632 C.3       3 UNK         0.0299 
     73 CB        -45.5133  -23.0741    4.3763 C.3       3 UNK        -0.1972 
     74 N         -46.3068  -25.1737    5.3563 N.am      3 UNK        -0.4305 
     75 C         -47.1616  -26.1237    5.7634 C.2       2 UNK         0.5006 
     76 O         -48.3498  -25.9117    6.0103 O.2       2 UNK        -0.5106 
     77 CA        -46.6025  -27.5576    5.8764 C.3       2 UNK         0.0296 
     78 CB        -45.0673  -27.6128    6.0636 C.3       2 UNK        -0.2002 
     79 N         -47.2604  -28.3654    6.9114 N.am      2 UNK        -0.4032 
     80 C         -47.3048  -28.1120    8.2280 C.2       1 UNK         0.5000 
     81 O         -46.8911  -27.0715    8.7503 O.2       1 UNK        -0.5238 
     82 H82       -44.5532  -31.5084   11.1825 H         1 UNK         0.0889 
     83 H83       -45.1099  -30.0152   11.9408 H         1 UNK         0.0889 
     84 H84       -43.7777  -29.9726   10.7845 H         1 UNK         0.0889 
     85 H85       -47.0026  -29.2435   11.0463 H         1 UNK         0.3028 
     86 H86       -48.0256  -30.1306    8.4995 H         1 UNK         0.0864 
     87 H87       -49.4234  -29.6852   10.5357 H         1 UNK         0.0720 
     88 H88       -49.1021  -27.9785   10.3901 H         1 UNK         0.0720 
     89 H89       -51.6663  -28.6953   10.8751 H         1 UNK         0.0814 
     90 H90       -52.3035  -30.0031    9.9142 H         1 UNK         0.0814 
     91 H91       -52.6180  -26.4846   10.8013 H         1 UNK         0.1469 
     92 H92       -56.2061  -25.8448    8.5437 H         1 UNK         0.1381 
     93 H93       -53.9932  -29.4959    8.1043 H         1 UNK         0.1206 
     94 H94       -56.6520  -27.4054    6.6575 H         1 UNK         0.0813 
     95 H95       -55.7962  -28.9155    6.5161 H         1 UNK         0.0813 
     96 H96       -57.4319  -31.4611    8.2960 H         1 UNK         0.0638 
     97 H97       -55.8716  -30.7096    8.2640 H         1 UNK         0.0638 
     98 H98       -57.8428  -30.8898   10.5738 H         1 UNK         0.0568 
     99 H99       -54.3815  -32.5761   11.7371 H         1 UNK         0.3450 
    100 H100      -54.6070  -30.8437   11.7130 H         1 UNK         0.3450 
    101 H101      -56.0039  -28.7481   10.2283 H         1 UNK         0.2987 
    102 H102      -55.5127  -27.2905   11.8778 H         1 UNK         0.0766 
    103 H103      -57.3556  -25.6635   12.3540 H         1 UNK         0.0798 
    104 H104      -58.4624  -26.9978   12.6798 H         1 UNK         0.0798 
    105 H105      -57.8036  -26.7662   11.0655 H         1 UNK         0.0798 
    106 H106      -56.8146  -27.2838   14.5174 H         1 UNK         0.3198 
    107 H107      -55.3643  -26.6253   16.2295 H         1 UNK         0.0843 
    108 H108      -54.1944  -29.4759   16.3773 H         1 UNK         0.0831 
    109 H109      -55.9072  -29.0877   16.4710 H         1 UNK         0.0831 
    110 H110      -54.8216  -28.5581   17.7453 H         1 UNK         0.0831 
    111 H111      -52.6844  -27.0568   15.3446 H         1 UNK         0.3133 
    112 H112      -51.4013  -24.7526   17.0659 H         1 UNK         0.0566 
    113 H113      -49.6318  -25.7260   18.5552 H         1 UNK         0.0814 
    114 H114      -51.1694  -25.5214   19.3761 H         1 UNK         0.0814 
    115 H115      -50.6676  -27.1210   18.8581 H         1 UNK         0.0814 
    116 H116      -50.3101  -25.6724   15.4102 H         1 UNK         0.3091 
    117 H117      -48.8567  -28.8363   14.7774 H         1 UNK         0.0702 
    118 H118      -51.1816  -29.1617   13.8540 H         1 UNK         0.0785 
    119 H119      -51.1183  -27.5435   13.1691 H         1 UNK         0.0785 
    120 H120      -49.9916  -28.7839   12.6231 H         1 UNK         0.0785 
    121 H121      -48.9535  -26.4592   13.1902 H         1 UNK         0.2998 
    122 H122      -45.8406  -25.1763   14.4610 H         1 UNK         0.0697 
    123 H123      -46.7853  -26.3365   11.7853 H         1 UNK         0.0825 
    124 H124      -45.5135  -27.0387   12.7771 H         1 UNK         0.0825 
    125 H125      -45.3052  -25.4339   12.1112 H         1 UNK         0.0825 
    126 H126      -48.0780  -24.4493   12.6393 H         1 UNK         0.3029 
    127 H127      -49.0771  -21.7382   14.6460 H         1 UNK         0.0897 
    128 H128      -48.6293  -20.3157   12.6197 H         1 UNK         0.0792 
    129 H129      -47.3938  -21.4625   12.0998 H         1 UNK         0.0792 
    130 H130      -47.1910  -20.5686   13.5956 H         1 UNK         0.0792 
    131 H131      -49.6844  -22.5940   11.9444 H         1 UNK         0.3086 
    132 H132      -51.8763  -25.1828   12.8918 H         1 UNK         0.0583 
    133 H133      -53.2920  -23.0305   13.4991 H         1 UNK         0.1020 
    134 H134      -53.0807  -22.5788   11.8340 H         1 UNK         0.1020 
    135 H135      -55.4662  -24.1198    9.9890 H         1 UNK         0.0694 
    136 H136      -53.7355  -23.9611    9.8845 H         1 UNK         0.0694 
    137 H137      -51.6740  -23.8109   10.4149 H         1 UNK         0.2989 
    138 H138      -49.7224  -26.1399    9.0009 H         1 UNK         0.1055 
    139 H139      -50.5066  -24.5111    7.3215 H         1 UNK         0.0806 
    140 H140      -50.9127  -23.3440    8.5686 H         1 UNK         0.0806 
    141 H141      -51.7919  -24.8735    8.4496 H         1 UNK         0.0806 
    142 H142      -47.7983  -25.1777    8.6155 H         1 UNK         0.3061 
    143 H143      -46.5144  -21.8719    8.9213 H         1 UNK         0.0734 
    144 H144      -44.5329  -23.1619    9.6381 H         1 UNK         0.0832 
    145 H145      -45.7261  -23.1780   10.9267 H         1 UNK         0.0832 
    146 H146      -45.5186  -24.5990    9.9079 H         1 UNK         0.0832 
    147 H147      -45.7340  -24.2803    7.5082 H         1 UNK         0.3156 
    148 H148      -47.5528  -23.7110    4.5619 H         1 UNK         0.0589 
    149 H149      -45.7489  -22.0250    4.1909 H         1 UNK         0.0808 
    150 H150      -44.5664  -23.1038    4.9169 H         1 UNK         0.0808 
    151 H151      -45.3622  -23.5455    3.4050 H         1 UNK         0.0808 
    152 H152      -45.3538  -25.4434    5.1590 H         1 UNK         0.3098 
    153 H153      -46.8359  -28.0424    4.9274 H         1 UNK         0.0720 
    154 H154      -44.5390  -27.2153    5.1964 H         1 UNK         0.0791 
    155 H155      -44.7262  -28.6407    6.1909 H         1 UNK         0.0791 
    156 H156      -44.7438  -27.0516    6.9415 H         1 UNK         0.0791 
    157 H157      -47.6678  -29.2299    6.5841 H         1 UNK         0.3028 
@<TRIPOS>BOND
     1    1    2 1    
     2    1   82 1    
     3    1   83 1    
     4    1   84 1    
     5    2    3 2    
     6    2    4 am   BACKBONE|DICT|INTERRES
     7    4    5 1    
     8    4   85 1    
     9    5    6 1    
    10    5   80 1    
    11    5   86 1    
    12    6    7 1    
    13    6   87 1    
    14    6   88 1    
    15    7    8 1    
    16    8    9 1    
    17    8   89 1    
    18    8   90 1    
    19    9   10 ar   
    20    9   14 ar   
    21   10   11 ar   
    22   10   91 1    
    23   11   12 ar   
    24   11   58 1    
    25   12   13 ar   
    26   12   92 1    
    27   13   14 ar   
    28   13   15 1    
    29   14   93 1    
    30   15   16 1    
    31   15   94 1    
    32   15   95 1    
    33   16   17 1    
    34   17   18 1    
    35   17   96 1    
    36   17   97 1    
    37   18   19 1    
    38   18   22 1    
    39   18   98 1    
    40   19   20 am   BACKBONE|DICT|INTERRES
    41   19   21 2    
    42   20   99 1    
    43   20  100 1    
    44   22   23 am   BACKBONE|DICT|INTERRES
    45   22  101 1    
    46   23   24 2    
    47   23   25 1    
    48   25   26 1    
    49   25   27 1    
    50   25  102 1    
    51   26  103 1    
    52   26  104 1    
    53   26  105 1    
    54   27   28 am   BACKBONE|DICT|INTERRES
    55   27  106 1    
    56   28   29 2    
    57   28   30 1    
    58   30   31 1    
    59   30   32 1    
    60   30  107 1    
    61   31  108 1    
    62   31  109 1    
    63   31  110 1    
    64   32   33 am   BACKBONE|DICT|INTERRES
    65   32  111 1    
    66   33   34 2    
    67   33   35 1    
    68   35   36 1    
    69   35   37 1    
    70   35  112 1    
    71   36  113 1    
    72   36  114 1    
    73   36  115 1    
    74   37   38 am   BACKBONE|DICT|INTERRES
    75   37  116 1    
    76   38   39 2    
    77   38   40 1    
    78   40   41 1    
    79   40   42 1    
    80   40  117 1    
    81   41  118 1    
    82   41  119 1    
    83   41  120 1    
    84   42   43 am   BACKBONE|DICT|INTERRES
    85   42  121 1    
    86   43   44 2    
    87   43   45 1    
    88   45   46 1    
    89   45   47 1    
    90   45  122 1    
    91   46  123 1    
    92   46  124 1    
    93   46  125 1    
    94   47   48 am   BACKBONE|DICT|INTERRES
    95   47  126 1    
    96   48   49 2    
    97   48   50 1    
    98   50   51 1    
    99   50   52 1    
   100   50  127 1    
   101   51  128 1    
   102   51  129 1    
   103   51  130 1    
   104   52   53 am   BACKBONE|DICT|INTERRES
   105   52  131 1    
   106   53   54 2    
   107   53   55 1    
   108   55   56 1    
   109   55   59 1    
   110   55  132 1    
   111   56   57 1    
   112   56  133 1    
   113   56  134 1    
   114   57   58 1    
   115   58  135 1    
   116   58  136 1    
   117   59   60 am   BACKBONE|DICT|INTERRES
   118   59  137 1    
   119   60   61 2    
   120   60   62 1    
   121   62   63 1    
   122   62   64 1    
   123   62  138 1    
   124   63  139 1    
   125   63  140 1    
   126   63  141 1    
   127   64   65 am   BACKBONE|DICT|INTERRES
   128   64  142 1    
   129   65   66 2    
   130   65   67 1    
   131   67   68 1    
   132   67   69 1    
   133   67  143 1    
   134   68  144 1    
   135   68  145 1    
   136   68  146 1    
   137   69   70 am   BACKBONE|DICT|INTERRES
   138   69  147 1    
   139   70   71 2    
   140   70   72 1    
   141   72   73 1    
   142   72   74 1    
   143   72  148 1    
   144   73  149 1    
   145   73  150 1    
   146   73  151 1    
   147   74   75 am   BACKBONE|DICT|INTERRES
   148   74  152 1    
   149   75   76 2    
   150   75   77 1    
   151   77   78 1    
   152   77   79 1    
   153   77  153 1    
   154   78  154 1    
   155   78  155 1    
   156   78  156 1    
   157   79   80 am   BACKBONE|DICT|INTERRES
   158   79  157 1    
   159   80   81 2    
@<TRIPOS>SUBSTRUCTURE
     1 UNK         1 GROUP             0       ****    0 ROOT    
