@<TRIPOS>MOLECULE
3R207
157   159    1
SMALL
USER_CHARGES


@<TRIPOS>ATOM
      1 CA        -49.7911  -28.5935    0.1184 C.3       0 UNK        -0.1975 
      2 C         -50.2854  -27.4142    0.9426 C.2       0 UNK         0.4852 
      3 O         -50.0052  -26.2658    0.5975 O.2       0 UNK        -0.5216 
      4 N         -51.0187  -27.6893    2.0295 N.am      1 UNK        -0.4461 
      5 CA        -51.5721  -26.6931    2.9563 C.3       1 UNK         0.0864 
      6 C6        -52.7121  -27.2682    3.8498 C.3       14 UNK        -0.0898 
      7 S7        -52.5457  -29.0178    4.3685 S.3       14 UNK        -0.2598 
      8 C8        -51.4144  -28.9652    5.7947 C.3       14 UNK         0.0286 
      9 C9        -51.9714  -28.1990    6.9853 C.ar      14 UNK        -0.0844 
     10 C10       -51.5733  -26.8808    7.2173 C.ar      14 UNK        -0.0881 
     11 C11       -52.0135  -26.1860    8.3466 C.ar      14 UNK        -0.0643 
     12 C12       -52.8822  -26.8191    9.2396 C.ar      14 UNK        -0.0930 
     13 C13       -53.2944  -28.1384    9.0206 C.ar      14 UNK        -0.0827 
     14 C14       -52.8349  -28.8230    7.8902 C.ar      14 UNK        -0.1249 
     15 C15       -54.2248  -28.8278   10.0098 C.3       14 UNK         0.0141 
     16 S16       -53.4513  -28.9754   11.6489 S.3       14 UNK        -0.2313 
     17 C17       -54.5719  -30.1424   12.4955 C.3       14 UNK        -0.0915 
     18 CA        -53.8393  -31.0393   13.5300 C.3       13 UNK         0.0968 
     19 C         -52.9044  -32.0775   12.8369 C.2       13 UNK         0.5732 
     20 N         -51.5898  -32.0178   13.0140 N.am      13 UNK        -0.7310 
     21 O         -53.3880  -32.9613   12.1331 O.2       13 UNK        -0.5035 
     22 N         -53.2316  -30.2266   14.5980 N.am      13 UNK        -0.4233 
     23 C         -52.7378  -30.6932   15.7531 C.2       13 UNK         0.4989 
     24 O         -52.7442  -31.8816   16.0746 O.2       13 UNK        -0.4996 
     25 CA        -52.1338  -29.6591   16.7204 C.3       12 UNK         0.0216 
     26 CB        -50.6378  -29.4501   16.4310 C.3       12 UNK        -0.1964 
     27 N         -52.8204  -28.3655   16.6853 N.am      12 UNK        -0.4276 
     28 C         -54.0471  -28.1402   17.1780 C.2       12 UNK         0.5020 
     29 O         -54.7266  -28.9963   17.7457 O.2       12 UNK        -0.5489 
     30 CA        -54.6115  -26.7188   17.0135 C.3       11 UNK         0.0294 
     31 CB        -54.3442  -25.8867   18.2776 C.3       11 UNK        -0.2019 
     32 N         -54.0708  -26.0245   15.8391 N.am      11 UNK        -0.4493 
     33 C         -54.4337  -26.3075   14.5769 C.2       11 UNK         0.4932 
     34 O         -55.2651  -27.1725   14.3021 O.2       11 UNK        -0.5029 
     35 CA        -53.7496  -25.5399   13.4264 C.3       10 UNK         0.0280 
     36 CB        -54.7240  -25.2261   12.2707 C.3       10 UNK        -0.1976 
     37 N         -53.0240  -24.3400   13.8565 N.am      10 UNK        -0.4242 
     38 C         -53.5421  -23.2091   14.3622 C.2       10 UNK         0.5072 
     39 O         -54.7508  -22.9993   14.4770 O.2       10 UNK        -0.5224 
     40 CA        -52.5368  -22.1402   14.8395 C.3       9 UNK         0.0343 
     41 CB        -53.1382  -21.1929   15.8996 C.3       9 UNK        -0.2003 
     42 N         -51.2608  -22.6904   15.3161 N.am      9 UNK        -0.4272 
     43 C         -51.0727  -23.5759   16.3094 C.2       9 UNK         0.4988 
     44 O         -51.9989  -24.0910   16.9358 O.2       9 UNK        -0.5108 
     45 CA        -49.6232  -23.9933   16.6333 C.3       8 UNK         0.0248 
     46 CB        -49.5297  -25.4921   16.9803 C.3       8 UNK        -0.2001 
     47 N         -48.7170  -23.7073   15.5196 N.am      8 UNK        -0.4140 
     48 C         -47.9878  -22.5930   15.3673 C.2       8 UNK         0.5028 
     49 O         -47.9048  -21.7066   16.2174 O.2       8 UNK        -0.5428 
     50 CA        -47.2662  -22.4123   14.0180 C.3       7 UNK         0.0264 
     51 CB        -45.7841  -22.7999   14.1404 C.3       7 UNK        -0.1988 
     52 N         -47.8875  -23.1795   12.9314 N.am      7 UNK        -0.4454 
     53 C         -49.0778  -22.8847   12.3800 C.2       7 UNK         0.5027 
     54 O         -49.7413  -21.8961   12.6935 O.2       7 UNK        -0.5083 
     55 CA        -49.6590  -23.8887   11.3604 C.3       6 UNK         0.0844 
     56 C56       -49.3400  -23.4443    9.9089 C.3       14 UNK        -0.0967 
     57 S57       -49.7082  -24.7012    8.6392 S.3       14 UNK        -0.2604 
     58 C58       -51.5279  -24.7658    8.6100 C.3       14 UNK         0.0134 
     59 N         -49.2517  -25.2667   11.6548 N.am      6 UNK        -0.4116 
     60 C         -49.6180  -25.9438   12.7525 C.2       5 UNK         0.5034 
     61 O         -50.3642  -25.4789   13.6146 O.2       5 UNK        -0.5045 
     62 CA        -49.0364  -27.3521   12.9603 C.3       5 UNK         0.0224 
     63 CB        -50.0804  -28.4144   12.5906 C.3       5 UNK        -0.1978 
     64 N         -47.8008  -27.6162   12.2188 N.am      5 UNK        -0.4737 
     65 C         -46.6397  -26.9625   12.3723 C.2       4 UNK         0.5027 
     66 O         -46.4788  -26.0369   13.1668 O.2       4 UNK        -0.5211 
     67 CA        -45.4821  -27.3869   11.4487 C.3       4 UNK         0.0297 
     68 CB        -44.5952  -28.4309   12.1449 C.3       4 UNK        -0.1993 
     69 N         -45.9507  -27.9181   10.1620 N.am      4 UNK        -0.4486 
     70 C         -46.5799  -27.1813    9.2373 C.2       3 UNK         0.4961 
     71 O         -46.7405  -25.9621    9.3318 O.2       3 UNK        -0.5105 
     72 CA        -47.1759  -27.9405    8.0463 C.3       3 UNK         0.0299 
     73 CB        -48.4167  -28.7478    8.4843 C.3       3 UNK        -0.1972 
     74 N         -47.5526  -26.9729    7.0211 N.am      3 UNK        -0.4305 
     75 C         -47.8169  -27.2503    5.7421 C.2       2 UNK         0.5006 
     76 O         -47.7283  -28.3756    5.2440 O.2       2 UNK        -0.5106 
     77 CA        -48.2648  -26.0774    4.8650 C.3       2 UNK         0.0296 
     78 CB        -47.0961  -25.5402    4.0226 C.3       2 UNK        -0.2002 
     79 N         -49.3262  -26.5555    3.9815 N.am      2 UNK        -0.4032 
     80 C         -50.5068  -25.9522    3.7948 C.2       1 UNK         0.5000 
     81 O         -50.7882  -24.8502    4.2694 O.2       1 UNK        -0.5238 
     82 H82       -50.1124  -29.5471    0.5371 H         1 UNK         0.0889 
     83 H83       -48.7022  -28.5914    0.0759 H         1 UNK         0.0889 
     84 H84       -50.1723  -28.5251   -0.9001 H         1 UNK         0.0889 
     85 H85       -51.2340  -28.6498    2.2617 H         1 UNK         0.3028 
     86 H86       -52.0251  -25.9152    2.3370 H         1 UNK         0.0864 
     87 H87       -53.6393  -27.2232    3.2766 H         1 UNK         0.0720 
     88 H88       -52.9054  -26.6421    4.7228 H         1 UNK         0.0720 
     89 H89       -50.4583  -28.5497    5.4845 H         1 UNK         0.0814 
     90 H90       -51.1992  -29.9902    6.1004 H         1 UNK         0.0814 
     91 H91       -50.8892  -26.3957    6.5384 H         1 UNK         0.1469 
     92 H92       -53.2218  -26.2964   10.1211 H         1 UNK         0.1381 
     93 H93       -53.1372  -29.8471    7.7182 H         1 UNK         0.1206 
     94 H94       -54.4959  -29.8206    9.6478 H         1 UNK         0.0813 
     95 H95       -55.1527  -28.2611   10.0969 H         1 UNK         0.0813 
     96 H96       -55.3518  -29.5637   12.9920 H         1 UNK         0.0638 
     97 H97       -55.0884  -30.7589   11.7578 H         1 UNK         0.0638 
     98 H98       -54.6079  -31.6401   14.0193 H         1 UNK         0.0568 
     99 H99       -51.1864  -31.3050   13.5971 H         1 UNK         0.3450 
    100 H100      -51.0012  -32.6995   12.5631 H         1 UNK         0.3450 
    101 H101      -53.2028  -29.2347   14.4198 H         1 UNK         0.2987 
    102 H102      -52.2283  -30.0639   17.7305 H         1 UNK         0.0766 
    103 H103      -50.4698  -29.0074   15.4499 H         1 UNK         0.0798 
    104 H104      -50.0986  -30.3982   16.4580 H         1 UNK         0.0798 
    105 H105      -50.1782  -28.7986   17.1747 H         1 UNK         0.0798 
    106 H106      -52.3344  -27.5918   16.2569 H         1 UNK         0.3198 
    107 H107      -55.6936  -26.8053   16.8907 H         1 UNK         0.0843 
    108 H108      -54.7331  -24.8731   18.1777 H         1 UNK         0.0831 
    109 H109      -53.2786  -25.8169   18.4989 H         1 UNK         0.0831 
    110 H110      -54.8262  -26.3359   19.1469 H         1 UNK         0.0831 
    111 H111      -53.3922  -25.2894   16.0157 H         1 UNK         0.3133 
    112 H112      -52.9875  -26.2133   13.0325 H         1 UNK         0.0566 
    113 H113      -55.0936  -26.1449   11.8138 H         1 UNK         0.0814 
    114 H114      -55.5949  -24.6677   12.6145 H         1 UNK         0.0814 
    115 H115      -54.2411  -24.6423   11.4876 H         1 UNK         0.0814 
    116 H116      -52.0123  -24.4386   13.8420 H         1 UNK         0.3091 
    117 H117      -52.2977  -21.5417   13.9593 H         1 UNK         0.0702 
    118 H118      -52.4186  -20.4346   16.2079 H         1 UNK         0.0785 
    119 H119      -53.4568  -21.7355   16.7905 H         1 UNK         0.0785 
    120 H120      -54.0108  -20.6679   15.5088 H         1 UNK         0.0785 
    121 H121      -50.4445  -22.3548   14.8212 H         1 UNK         0.2998 
    122 H122      -49.3158  -23.4243   17.5128 H         1 UNK         0.0697 
    123 H123      -48.5025  -25.7858   17.1963 H         1 UNK         0.0825 
    124 H124      -50.1230  -25.7283   17.8647 H         1 UNK         0.0825 
    125 H125      -49.8941  -26.1210   16.1680 H         1 UNK         0.0825 
    126 H126      -48.7546  -24.3617   14.7497 H         1 UNK         0.3029 
    127 H127      -47.3197  -21.3526   13.7581 H         1 UNK         0.0897 
    128 H128      -45.2545  -22.6534   13.1989 H         1 UNK         0.0792 
    129 H129      -45.2835  -22.1877   14.8919 H         1 UNK         0.0792 
    130 H130      -45.6606  -23.8418   14.4375 H         1 UNK         0.0792 
    131 H131      -47.4141  -24.0322   12.6550 H         1 UNK         0.3086 
    132 H132      -50.7435  -23.8548   11.4818 H         1 UNK         0.0583 
    133 H133      -49.8784  -22.5266    9.6640 H         1 UNK         0.1020 
    134 H134      -48.2787  -23.2062    9.8097 H         1 UNK         0.1020 
    135 H135      -51.9318  -24.3943    9.5519 H         1 UNK         0.0694 
    136 H136      -51.8984  -24.1029    7.8271 H         1 UNK         0.0694 
    137 H137      -48.6412  -25.7074   10.9797 H         1 UNK         0.2989 
    138 H138      -48.8075  -27.4466   14.0240 H         1 UNK         0.1055 
    139 H139      -50.3421  -28.3741   11.5319 H         1 UNK         0.0806 
    140 H140      -50.9998  -28.2654   13.1574 H         1 UNK         0.0806 
    141 H141      -49.7242  -29.4205   12.8114 H         1 UNK         0.0806 
    142 H142      -47.8340  -28.3602   11.5380 H         1 UNK         0.3061 
    143 H143      -44.8768  -26.4994   11.2513 H         1 UNK         0.0734 
    144 H144      -43.7298  -28.6884   11.5340 H         1 UNK         0.0832 
    145 H145      -44.2166  -28.0480   13.0938 H         1 UNK         0.0832 
    146 H146      -45.1418  -29.3499   12.3602 H         1 UNK         0.0832 
    147 H147      -45.8399  -28.9107   10.0075 H         1 UNK         0.3156 
    148 H148      -46.4139  -28.6119    7.6451 H         1 UNK         0.0589 
    149 H149      -49.1970  -28.0987    8.8856 H         1 UNK         0.0808 
    150 H150      -48.8474  -29.3032    7.6513 H         1 UNK         0.0808 
    151 H151      -48.1683  -29.4779    9.2549 H         1 UNK         0.0808 
    152 H152      -47.6125  -26.0214    7.3680 H         1 UNK         0.3098 
    153 H153      -48.6347  -25.2790    5.5126 H         1 UNK         0.0720 
    154 H154      -46.2884  -25.1787    4.6602 H         1 UNK         0.0791 
    155 H155      -46.6808  -26.3099    3.3707 H         1 UNK         0.0791 
    156 H156      -47.4134  -24.7069    3.3953 H         1 UNK         0.0791 
    157 H157      -49.1810  -27.4791    3.5958 H         1 UNK         0.3028 
@<TRIPOS>BOND
     1    1    2 1    
     2    1   82 1    
     3    1   83 1    
     4    1   84 1    
     5    2    3 2    
     6    2    4 am   BACKBONE|DICT|INTERRES
     7    4    5 1    
     8    4   85 1    
     9    5    6 1    
    10    5   80 1    
    11    5   86 1    
    12    6    7 1    
    13    6   87 1    
    14    6   88 1    
    15    7    8 1    
    16    8    9 1    
    17    8   89 1    
    18    8   90 1    
    19    9   10 ar   
    20    9   14 ar   
    21   10   11 ar   
    22   10   91 1    
    23   11   12 ar   
    24   11   58 1    
    25   12   13 ar   
    26   12   92 1    
    27   13   14 ar   
    28   13   15 1    
    29   14   93 1    
    30   15   16 1    
    31   15   94 1    
    32   15   95 1    
    33   16   17 1    
    34   17   18 1    
    35   17   96 1    
    36   17   97 1    
    37   18   19 1    
    38   18   22 1    
    39   18   98 1    
    40   19   20 am   BACKBONE|DICT|INTERRES
    41   19   21 2    
    42   20   99 1    
    43   20  100 1    
    44   22   23 am   BACKBONE|DICT|INTERRES
    45   22  101 1    
    46   23   24 2    
    47   23   25 1    
    48   25   26 1    
    49   25   27 1    
    50   25  102 1    
    51   26  103 1    
    52   26  104 1    
    53   26  105 1    
    54   27   28 am   BACKBONE|DICT|INTERRES
    55   27  106 1    
    56   28   29 2    
    57   28   30 1    
    58   30   31 1    
    59   30   32 1    
    60   30  107 1    
    61   31  108 1    
    62   31  109 1    
    63   31  110 1    
    64   32   33 am   BACKBONE|DICT|INTERRES
    65   32  111 1    
    66   33   34 2    
    67   33   35 1    
    68   35   36 1    
    69   35   37 1    
    70   35  112 1    
    71   36  113 1    
    72   36  114 1    
    73   36  115 1    
    74   37   38 am   BACKBONE|DICT|INTERRES
    75   37  116 1    
    76   38   39 2    
    77   38   40 1    
    78   40   41 1    
    79   40   42 1    
    80   40  117 1    
    81   41  118 1    
    82   41  119 1    
    83   41  120 1    
    84   42   43 am   BACKBONE|DICT|INTERRES
    85   42  121 1    
    86   43   44 2    
    87   43   45 1    
    88   45   46 1    
    89   45   47 1    
    90   45  122 1    
    91   46  123 1    
    92   46  124 1    
    93   46  125 1    
    94   47   48 am   BACKBONE|DICT|INTERRES
    95   47  126 1    
    96   48   49 2    
    97   48   50 1    
    98   50   51 1    
    99   50   52 1    
   100   50  127 1    
   101   51  128 1    
   102   51  129 1    
   103   51  130 1    
   104   52   53 am   BACKBONE|DICT|INTERRES
   105   52  131 1    
   106   53   54 2    
   107   53   55 1    
   108   55   56 1    
   109   55   59 1    
   110   55  132 1    
   111   56   57 1    
   112   56  133 1    
   113   56  134 1    
   114   57   58 1    
   115   58  135 1    
   116   58  136 1    
   117   59   60 am   BACKBONE|DICT|INTERRES
   118   59  137 1    
   119   60   61 2    
   120   60   62 1    
   121   62   63 1    
   122   62   64 1    
   123   62  138 1    
   124   63  139 1    
   125   63  140 1    
   126   63  141 1    
   127   64   65 am   BACKBONE|DICT|INTERRES
   128   64  142 1    
   129   65   66 2    
   130   65   67 1    
   131   67   68 1    
   132   67   69 1    
   133   67  143 1    
   134   68  144 1    
   135   68  145 1    
   136   68  146 1    
   137   69   70 am   BACKBONE|DICT|INTERRES
   138   69  147 1    
   139   70   71 2    
   140   70   72 1    
   141   72   73 1    
   142   72   74 1    
   143   72  148 1    
   144   73  149 1    
   145   73  150 1    
   146   73  151 1    
   147   74   75 am   BACKBONE|DICT|INTERRES
   148   74  152 1    
   149   75   76 2    
   150   75   77 1    
   151   77   78 1    
   152   77   79 1    
   153   77  153 1    
   154   78  154 1    
   155   78  155 1    
   156   78  156 1    
   157   79   80 am   BACKBONE|DICT|INTERRES
   158   79  157 1    
   159   80   81 2    
@<TRIPOS>SUBSTRUCTURE
     1 UNK         1 GROUP             0       ****    0 ROOT    
