@<TRIPOS>MOLECULE
3R207
157   159    1
SMALL
USER_CHARGES


@<TRIPOS>ATOM
      1 CA        -51.4283  -31.1141    2.1661 C.3       0 UNK        -0.1975 
      2 C         -51.1643  -29.6171    2.2319 C.2       0 UNK         0.4852 
      3 O         -50.5846  -29.0581    1.3003 O.2       0 UNK        -0.5216 
      4 N         -51.5933  -28.9680    3.3224 N.am      1 UNK        -0.4461 
      5 CA        -51.3949  -27.5418    3.6067 C.3       1 UNK         0.0864 
      6 C6        -52.2821  -27.0486    4.7836 C.3       14 UNK        -0.0898 
      7 S7        -52.2608  -28.1503    6.2442 S.3       14 UNK        -0.2598 
      8 C8        -51.5108  -27.0925    7.5189 C.3       14 UNK         0.0286 
      9 C9        -51.0790  -27.9336    8.7095 C.ar      14 UNK        -0.0844 
     10 C10       -49.7443  -28.3229    8.8451 C.ar      14 UNK        -0.0881 
     11 C11       -49.3419  -29.1352    9.9084 C.ar      14 UNK        -0.0643 
     12 C12       -50.2855  -29.5390   10.8577 C.ar      14 UNK        -0.0930 
     13 C13       -51.6223  -29.1399   10.7453 C.ar      14 UNK        -0.0827 
     14 C14       -52.0123  -28.3355    9.6691 C.ar      14 UNK        -0.1249 
     15 C15       -52.6306  -29.5398   11.8122 C.3       14 UNK         0.0141 
     16 S16       -54.0566  -30.4507   11.1454 S.3       14 UNK        -0.2313 
     17 C17       -55.0541  -30.6481   12.6624 C.3       14 UNK        -0.0915 
     18 CA        -56.2055  -29.6135   12.7628 C.3       13 UNK         0.0968 
     19 C         -57.1509  -29.9574   13.9443 C.2       13 UNK         0.5732 
     20 N         -56.9918  -29.3602   15.1185 N.am      13 UNK        -0.7310 
     21 O         -58.0551  -30.7747   13.7876 O.2       13 UNK        -0.5035 
     22 N         -55.6954  -28.2339   12.8257 N.am      13 UNK        -0.4233 
     23 C         -56.0885  -27.2390   12.0195 C.2       13 UNK         0.4989 
     24 O         -56.9452  -27.3691   11.1426 O.2       13 UNK        -0.4996 
     25 CA        -55.3854  -25.8753   12.1881 C.3       12 UNK         0.0216 
     26 CB        -56.2192  -24.6947   11.6455 C.3       12 UNK        -0.1964 
     27 N         -54.9222  -25.6026   13.5524 N.am      12 UNK        -0.4276 
     28 C         -55.6597  -25.4965   14.6655 C.2       12 UNK         0.5020 
     29 O         -56.8886  -25.5904   14.6871 O.2       12 UNK        -0.5489 
     30 CA        -54.8778  -25.2710   15.9780 C.3       11 UNK         0.0294 
     31 CB        -55.7570  -25.4724   17.2300 C.3       11 UNK        -0.2019 
     32 N         -53.6520  -26.0756   16.0992 N.am      11 UNK        -0.4493 
     33 C         -53.5357  -27.4069   15.9662 C.2       11 UNK         0.4932 
     34 O         -54.4627  -28.1337   15.6043 O.2       11 UNK        -0.5029 
     35 CA        -52.1699  -28.0480   16.2826 C.3       10 UNK         0.0280 
     36 CB        -51.8158  -29.1622   15.2874 C.3       10 UNK        -0.1976 
     37 N         -51.0726  -27.0794   16.3053 N.am      10 UNK        -0.4242 
     38 C         -50.5850  -26.4968   17.4080 C.2       10 UNK         0.5072 
     39 O         -51.0039  -26.7157   18.5453 O.2       10 UNK        -0.5224 
     40 CA        -49.4520  -25.4747   17.2090 C.3       9 UNK         0.0343 
     41 CB        -48.0936  -26.1880   17.1282 C.3       9 UNK        -0.2003 
     42 N         -49.6309  -24.6148   16.0339 N.am      9 UNK        -0.4272 
     43 C         -50.6671  -23.7808   15.8532 C.2       9 UNK         0.4988 
     44 O         -51.6033  -23.6653   16.6453 O.2       9 UNK        -0.5108 
     45 CA        -50.6797  -22.9562   14.5570 C.3       8 UNK         0.0248 
     46 CB        -49.6767  -21.7943   14.6382 C.3       8 UNK        -0.2001 
     47 N         -50.4083  -23.7673   13.3698 N.am      8 UNK        -0.4140 
     48 C         -51.1959  -24.7620   12.9370 C.2       8 UNK         0.5028 
     49 O         -52.2564  -25.0785   13.4726 O.2       8 UNK        -0.5428 
     50 CA        -50.6989  -25.5763   11.7339 C.3       7 UNK         0.0264 
     51 CB        -50.8731  -24.7843   10.4291 C.3       7 UNK        -0.1988 
     52 N         -49.3090  -26.0122   11.8893 N.am      7 UNK        -0.4454 
     53 C         -48.8749  -26.7862   12.8983 C.2       7 UNK         0.5027 
     54 O         -49.6085  -27.2485   13.7727 O.2       7 UNK        -0.5083 
     55 CA        -47.3594  -27.0289   13.0120 C.3       6 UNK         0.0844 
     56 C56       -46.9016  -28.3476   12.3419 C.3       14 UNK        -0.0967 
     57 S57       -46.7611  -28.2859   10.5240 S.3       14 UNK        -0.2604 
     58 C58       -47.8973  -29.6069    9.9973 C.3       14 UNK         0.0134 
     59 N         -46.5842  -25.8531   12.6085 N.am      6 UNK        -0.4116 
     60 C         -46.5456  -24.7137   13.3154 C.2       5 UNK         0.5034 
     61 O         -47.1285  -24.5488   14.3884 O.2       5 UNK        -0.5045 
     62 CA        -45.7604  -23.5464   12.6992 C.3       5 UNK         0.0224 
     63 CB        -44.2468  -23.8158   12.7334 C.3       5 UNK        -0.1978 
     64 N         -46.1798  -23.2429   11.3290 N.am      5 UNK        -0.4737 
     65 C         -47.4073  -22.8314   10.9800 C.2       4 UNK         0.5027 
     66 O         -48.3251  -22.6648   11.7807 O.2       4 UNK        -0.5211 
     67 CA        -47.6626  -22.5647    9.4873 C.3       4 UNK         0.0297 
     68 CB        -47.4501  -21.0765    9.1682 C.3       4 UNK        -0.1993 
     69 N         -46.8363  -23.3784    8.5926 N.am      4 UNK        -0.4486 
     70 C         -46.9154  -24.7109    8.4815 C.2       3 UNK         0.4961 
     71 O         -47.6683  -25.4145    9.1571 O.2       3 UNK        -0.5105 
     72 CA        -45.9350  -25.3488    7.4806 C.3       3 UNK         0.0299 
     73 CB        -44.6549  -25.7966    8.2054 C.3       3 UNK        -0.1972 
     74 N         -46.4788  -26.4813    6.7237 N.am      3 UNK        -0.4305 
     75 C         -47.5808  -26.4668    5.9595 C.2       2 UNK         0.5006 
     76 O         -48.3393  -25.4983    5.8810 O.2       2 UNK        -0.5106 
     77 CA        -47.8375  -27.7268    5.0975 C.3       2 UNK         0.0296 
     78 CB        -47.3261  -29.0368    5.7333 C.3       2 UNK        -0.2002 
     79 N         -49.2469  -27.8961    4.7335 N.am      2 UNK        -0.4032 
     80 C         -49.9046  -27.1914    3.8010 C.2       1 UNK         0.5000 
     81 O         -49.3838  -26.3328    3.0850 O.2       1 UNK        -0.5238 
     82 H82       -51.9535  -31.4753    3.0502 H         1 UNK         0.0889 
     83 H83       -50.4872  -31.6574    2.0855 H         1 UNK         0.0889 
     84 H84       -52.0345  -31.3501    1.2919 H         1 UNK         0.0889 
     85 H85       -52.0678  -29.4822    4.0521 H         1 UNK         0.3028 
     86 H86       -51.7197  -26.9971    2.7172 H         1 UNK         0.0864 
     87 H87       -53.3178  -26.9927    4.4451 H         1 UNK         0.0720 
     88 H88       -52.0196  -26.0290    5.0733 H         1 UNK         0.0720 
     89 H89       -52.2295  -26.3347    7.8344 H         1 UNK         0.0814 
     90 H90       -50.6555  -26.5566    7.1039 H         1 UNK         0.0814 
     91 H91       -49.0141  -27.9930    8.1218 H         1 UNK         0.1469 
     92 H92       -49.9767  -30.1604   11.6868 H         1 UNK         0.1381 
     93 H93       -53.0449  -28.0283    9.5747 H         1 UNK         0.1206 
     94 H94       -52.9765  -28.6381   12.3179 H         1 UNK         0.0813 
     95 H95       -52.1551  -30.1696   12.5645 H         1 UNK         0.0813 
     96 H96       -55.4572  -31.6625   12.6485 H         1 UNK         0.0638 
     97 H97       -54.4088  -30.5926   13.5410 H         1 UNK         0.0638 
     98 H98       -56.8105  -29.7342   11.8623 H         1 UNK         0.0568 
     99 H99       -56.1936  -28.7552   15.2875 H         1 UNK         0.3450 
    100 H100      -57.6194  -29.5846   15.8732 H         1 UNK         0.3450 
    101 H101      -55.0561  -28.0330   13.5846 H         1 UNK         0.2987 
    102 H102      -54.4807  -25.9381   11.5813 H         1 UNK         0.0766 
    103 H103      -55.6859  -23.7504   11.7541 H         1 UNK         0.0798 
    104 H104      -57.1743  -24.6030   12.1636 H         1 UNK         0.0798 
    105 H105      -56.4359  -24.8214   10.5841 H         1 UNK         0.0798 
    106 H106      -53.9093  -25.4775   13.6436 H         1 UNK         0.3198 
    107 H107      -54.5559  -24.2284   15.9616 H         1 UNK         0.0843 
    108 H108      -56.1399  -26.4919   17.2918 H         1 UNK         0.0831 
    109 H109      -56.6166  -24.8011   17.2190 H         1 UNK         0.0831 
    110 H110      -55.1996  -25.2669   18.1439 H         1 UNK         0.0831 
    111 H111      -52.8178  -25.5521   16.3373 H         1 UNK         0.3133 
    112 H112      -52.2714  -28.5125   17.2652 H         1 UNK         0.0566 
    113 H113      -50.8926  -29.6671   15.5717 H         1 UNK         0.0814 
    114 H114      -52.5966  -29.9217   15.2342 H         1 UNK         0.0814 
    115 H115      -51.6739  -28.7532   14.2899 H         1 UNK         0.0814 
    116 H116      -50.6408  -26.8717   15.4076 H         1 UNK         0.3091 
    117 H117      -49.4403  -24.8243   18.0860 H         1 UNK         0.0702 
    118 H118      -47.2728  -25.4740   17.0571 H         1 UNK         0.0785 
    119 H119      -48.0391  -26.8499   16.2640 H         1 UNK         0.0785 
    120 H120      -47.9184  -26.7961   18.0166 H         1 UNK         0.0785 
    121 H121      -48.8879  -24.6300   15.3409 H         1 UNK         0.2998 
    122 H122      -51.6798  -22.5323   14.4444 H         1 UNK         0.0697 
    123 H123      -48.6476  -22.1513   14.6986 H         1 UNK         0.0825 
    124 H124      -49.8625  -21.1761   15.5174 H         1 UNK         0.0825 
    125 H125      -49.7517  -21.1468   13.7644 H         1 UNK         0.0825 
    126 H126      -49.5683  -23.5364   12.8417 H         1 UNK         0.3029 
    127 H127      -51.3102  -26.4771   11.6717 H         1 UNK         0.0897 
    128 H128      -50.4271  -23.7931   10.4926 H         1 UNK         0.0792 
    129 H129      -51.9307  -24.6485   10.2003 H         1 UNK         0.0792 
    130 H130      -50.4184  -25.2988    9.5835 H         1 UNK         0.0792 
    131 H131      -48.6503  -25.7163   11.1779 H         1 UNK         0.3086 
    132 H132      -47.1679  -27.1662   14.0782 H         1 UNK         0.0583 
    133 H133      -45.9159  -28.6136   12.7267 H         1 UNK         0.1020 
    134 H134      -47.5536  -29.1702   12.6422 H         1 UNK         0.1020 
    135 H135      -47.5809  -29.9595    9.0152 H         1 UNK         0.0694 
    136 H136      -47.8044  -30.4660   10.6634 H         1 UNK         0.0694 
    137 H137      -46.1240  -25.9025   11.7111 H         1 UNK         0.2989 
    138 H138      -45.9623  -22.6633   13.3100 H         1 UNK         0.1055 
    139 H139      -43.9150  -24.0465   13.7468 H         1 UNK         0.0806 
    140 H140      -43.6825  -22.9439   12.4020 H         1 UNK         0.0806 
    141 H141      -43.9658  -24.6573   12.0989 H         1 UNK         0.0806 
    142 H142      -45.4891  -23.3473   10.6005 H         1 UNK         0.3061 
    143 H143      -48.7061  -22.8084    9.2817 H         1 UNK         0.0734 
    144 H144      -46.4154  -20.7709    9.3287 H         1 UNK         0.0832 
    145 H145      -47.7132  -20.8492    8.1350 H         1 UNK         0.0832 
    146 H146      -48.0766  -20.4494    9.8044 H         1 UNK         0.0832 
    147 H147      -46.1814  -22.8812    8.0058 H         1 UNK         0.3156 
    148 H148      -45.6597  -24.5900    6.7453 H         1 UNK         0.0589 
    149 H149      -44.8561  -26.5929    8.9226 H         1 UNK         0.0808 
    150 H150      -43.9052  -26.1602    7.5025 H         1 UNK         0.0808 
    151 H151      -44.2031  -24.9704    8.7559 H         1 UNK         0.0808 
    152 H152      -45.9365  -27.3315    6.7530 H         1 UNK         0.3098 
    153 H153      -47.2758  -27.5773    4.1730 H         1 UNK         0.0720 
    154 H154      -47.5320  -29.8896    5.0857 H         1 UNK         0.0791 
    155 H155      -47.7943  -29.2381    6.6952 H         1 UNK         0.0791 
    156 H156      -46.2465  -29.0210    5.8850 H         1 UNK         0.0791 
    157 H157      -49.7797  -28.5597    5.2771 H         1 UNK         0.3028 
@<TRIPOS>BOND
     1    1    2 1    
     2    1   82 1    
     3    1   83 1    
     4    1   84 1    
     5    2    3 2    
     6    2    4 am   BACKBONE|DICT|INTERRES
     7    4    5 1    
     8    4   85 1    
     9    5    6 1    
    10    5   80 1    
    11    5   86 1    
    12    6    7 1    
    13    6   87 1    
    14    6   88 1    
    15    7    8 1    
    16    8    9 1    
    17    8   89 1    
    18    8   90 1    
    19    9   10 ar   
    20    9   14 ar   
    21   10   11 ar   
    22   10   91 1    
    23   11   12 ar   
    24   11   58 1    
    25   12   13 ar   
    26   12   92 1    
    27   13   14 ar   
    28   13   15 1    
    29   14   93 1    
    30   15   16 1    
    31   15   94 1    
    32   15   95 1    
    33   16   17 1    
    34   17   18 1    
    35   17   96 1    
    36   17   97 1    
    37   18   19 1    
    38   18   22 1    
    39   18   98 1    
    40   19   20 am   BACKBONE|DICT|INTERRES
    41   19   21 2    
    42   20   99 1    
    43   20  100 1    
    44   22   23 am   BACKBONE|DICT|INTERRES
    45   22  101 1    
    46   23   24 2    
    47   23   25 1    
    48   25   26 1    
    49   25   27 1    
    50   25  102 1    
    51   26  103 1    
    52   26  104 1    
    53   26  105 1    
    54   27   28 am   BACKBONE|DICT|INTERRES
    55   27  106 1    
    56   28   29 2    
    57   28   30 1    
    58   30   31 1    
    59   30   32 1    
    60   30  107 1    
    61   31  108 1    
    62   31  109 1    
    63   31  110 1    
    64   32   33 am   BACKBONE|DICT|INTERRES
    65   32  111 1    
    66   33   34 2    
    67   33   35 1    
    68   35   36 1    
    69   35   37 1    
    70   35  112 1    
    71   36  113 1    
    72   36  114 1    
    73   36  115 1    
    74   37   38 am   BACKBONE|DICT|INTERRES
    75   37  116 1    
    76   38   39 2    
    77   38   40 1    
    78   40   41 1    
    79   40   42 1    
    80   40  117 1    
    81   41  118 1    
    82   41  119 1    
    83   41  120 1    
    84   42   43 am   BACKBONE|DICT|INTERRES
    85   42  121 1    
    86   43   44 2    
    87   43   45 1    
    88   45   46 1    
    89   45   47 1    
    90   45  122 1    
    91   46  123 1    
    92   46  124 1    
    93   46  125 1    
    94   47   48 am   BACKBONE|DICT|INTERRES
    95   47  126 1    
    96   48   49 2    
    97   48   50 1    
    98   50   51 1    
    99   50   52 1    
   100   50  127 1    
   101   51  128 1    
   102   51  129 1    
   103   51  130 1    
   104   52   53 am   BACKBONE|DICT|INTERRES
   105   52  131 1    
   106   53   54 2    
   107   53   55 1    
   108   55   56 1    
   109   55   59 1    
   110   55  132 1    
   111   56   57 1    
   112   56  133 1    
   113   56  134 1    
   114   57   58 1    
   115   58  135 1    
   116   58  136 1    
   117   59   60 am   BACKBONE|DICT|INTERRES
   118   59  137 1    
   119   60   61 2    
   120   60   62 1    
   121   62   63 1    
   122   62   64 1    
   123   62  138 1    
   124   63  139 1    
   125   63  140 1    
   126   63  141 1    
   127   64   65 am   BACKBONE|DICT|INTERRES
   128   64  142 1    
   129   65   66 2    
   130   65   67 1    
   131   67   68 1    
   132   67   69 1    
   133   67  143 1    
   134   68  144 1    
   135   68  145 1    
   136   68  146 1    
   137   69   70 am   BACKBONE|DICT|INTERRES
   138   69  147 1    
   139   70   71 2    
   140   70   72 1    
   141   72   73 1    
   142   72   74 1    
   143   72  148 1    
   144   73  149 1    
   145   73  150 1    
   146   73  151 1    
   147   74   75 am   BACKBONE|DICT|INTERRES
   148   74  152 1    
   149   75   76 2    
   150   75   77 1    
   151   77   78 1    
   152   77   79 1    
   153   77  153 1    
   154   78  154 1    
   155   78  155 1    
   156   78  156 1    
   157   79   80 am   BACKBONE|DICT|INTERRES
   158   79  157 1    
   159   80   81 2    
@<TRIPOS>SUBSTRUCTURE
     1 UNK         1 GROUP             0       ****    0 ROOT    
