@<TRIPOS>MOLECULE
3R207
157   159    1
SMALL
USER_CHARGES


@<TRIPOS>ATOM
      1 CA        -44.7466  -24.8355    9.7697 C.3       0 UNK        -0.1975 
      2 C         -45.5101  -25.6429    8.7321 C.2       0 UNK         0.4852 
      3 O         -46.0316  -25.0683    7.7756 O.2       0 UNK        -0.5216 
      4 N         -45.5662  -26.9725    8.8988 N.am      1 UNK        -0.4461 
      5 CA        -46.2774  -27.9244    8.0284 C.3       1 UNK         0.0864 
      6 C6        -47.8227  -27.7727    8.1069 C.3       14 UNK        -0.0898 
      7 S7        -48.4377  -28.0914    9.7966 S.3       14 UNK        -0.2598 
      8 C8        -49.3550  -29.6503    9.5712 C.3       14 UNK         0.0286 
      9 C9        -50.8410  -29.3796    9.3999 C.ar      14 UNK        -0.0844 
     10 C10       -51.3371  -28.8578    8.2018 C.ar      14 UNK        -0.0881 
     11 C11       -52.6873  -28.5120    8.0855 C.ar      14 UNK        -0.0643 
     12 C12       -53.5557  -28.7482    9.1564 C.ar      14 UNK        -0.0930 
     13 C13       -53.0749  -29.3029   10.3450 C.ar      14 UNK        -0.0827 
     14 C14       -51.7175  -29.6119   10.4623 C.ar      14 UNK        -0.1249 
     15 C15       -54.0070  -29.5550   11.5173 C.3       14 UNK         0.0141 
     16 S16       -53.8468  -28.2456   12.7641 S.3       14 UNK        -0.2313 
     17 C17       -55.1075  -27.0502   12.2226 C.3       14 UNK        -0.0915 
     18 CA        -55.2656  -25.8933   13.2430 C.3       13 UNK         0.0968 
     19 C         -56.2765  -24.8291   12.7360 C.2       13 UNK         0.5732 
     20 N         -55.8684  -23.9995   11.7871 N.am      13 UNK        -0.7310 
     21 O         -57.4286  -24.7671   13.1634 O.2       13 UNK        -0.5035 
     22 N         -55.5939  -26.4035   14.5802 N.am      13 UNK        -0.4233 
     23 C         -55.5000  -25.7234   15.7250 C.2       13 UNK         0.4989 
     24 O         -55.0767  -24.5692   15.8017 O.2       13 UNK        -0.4996 
     25 CA        -55.9304  -26.4488   17.0151 C.3       12 UNK         0.0216 
     26 CB        -57.4539  -26.3502   17.2255 C.3       12 UNK        -0.1964 
     27 N         -55.4542  -27.8364   17.1358 N.am      12 UNK        -0.4276 
     28 C         -55.7682  -28.9148   16.3980 C.2       12 UNK         0.5020 
     29 O         -56.5899  -28.8918   15.4798 O.2       12 UNK        -0.5489 
     30 CA        -55.0333  -30.2325   16.7157 C.3       11 UNK         0.0294 
     31 CB        -54.6473  -30.9943   15.4344 C.3       11 UNK        -0.2019 
     32 N         -53.8178  -29.9866   17.4924 N.am      11 UNK        -0.4493 
     33 C         -53.5804  -30.4256   18.7357 C.2       11 UNK         0.4932 
     34 O         -54.3424  -31.1660   19.3578 O.2       11 UNK        -0.5029 
     35 CA        -52.2822  -29.9473   19.4197 C.3       10 UNK         0.0280 
     36 CB        -51.1899  -31.0223   19.3001 C.3       10 UNK        -0.1976 
     37 N         -51.7616  -28.6757   18.9043 N.am      10 UNK        -0.4242 
     38 C         -52.4128  -27.5039   18.9304 C.2       10 UNK         0.5072 
     39 O         -53.5188  -27.3482   19.4490 O.2       10 UNK        -0.5224 
     40 CA        -51.7626  -26.3188   18.1936 C.3       9 UNK         0.0343 
     41 CB        -50.9153  -25.4842   19.1669 C.3       9 UNK        -0.2003 
     42 N         -50.9503  -26.6664   17.0188 N.am      9 UNK        -0.4272 
     43 C         -51.3343  -27.4268   15.9832 C.2       9 UNK         0.4988 
     44 O         -52.3988  -28.0437   15.9393 O.2       9 UNK        -0.5108 
     45 CA        -50.3802  -27.4720   14.7797 C.3       8 UNK         0.0248 
     46 CB        -50.3310  -28.8659   14.1280 C.3       8 UNK        -0.2001 
     47 N         -50.8097  -26.4808   13.7933 N.am      8 UNK        -0.4140 
     48 C         -50.5934  -25.1632   13.9125 C.2       8 UNK         0.5028 
     49 O         -49.9067  -24.6687   14.8089 O.2       8 UNK        -0.5428 
     50 CA        -51.2438  -24.2545   12.8589 C.3       7 UNK         0.0264 
     51 CB        -50.6526  -22.8310   12.8386 C.3       7 UNK        -0.1988 
     52 N         -51.1309  -24.8391   11.5234 N.am      7 UNK        -0.4454 
     53 C         -52.1081  -24.8475   10.6085 C.2       7 UNK         0.5027 
     54 O         -53.2510  -24.4401   10.8249 O.2       7 UNK        -0.5083 
     55 CA        -51.7133  -25.3592    9.2073 C.3       6 UNK         0.0844 
     56 C56       -52.8982  -25.3531    8.2001 C.3       14 UNK        -0.0967 
     57 S57       -52.4657  -26.1649    6.6189 S.3       14 UNK        -0.2604 
     58 C58       -53.1933  -27.8259    6.8251 C.3       14 UNK         0.0134 
     59 N         -50.5210  -24.6705    8.6950 N.am      6 UNK        -0.4116 
     60 C         -50.3663  -23.3493    8.5118 C.2       5 UNK         0.5034 
     61 O         -51.2123  -22.4989    8.7897 O.2       5 UNK        -0.5045 
     62 CA        -49.0290  -22.8990    7.9010 C.3       5 UNK         0.0224 
     63 CB        -47.9751  -22.7091    9.0034 C.3       5 UNK        -0.1978 
     64 N         -48.5209  -23.8272    6.8851 N.am      5 UNK        -0.4737 
     65 C         -49.1092  -24.0344    5.6961 C.2       4 UNK         0.5027 
     66 O         -50.1218  -23.4378    5.3262 O.2       4 UNK        -0.5211 
     67 CA        -48.4465  -25.0716    4.7690 C.3       4 UNK         0.0297 
     68 CB        -48.9999  -25.0453    3.3285 C.3       4 UNK        -0.1993 
     69 N         -46.9837  -24.9767    4.7740 N.am      4 UNK        -0.4486 
     70 C         -46.2273  -23.9248    4.4173 C.2       3 UNK         0.4961 
     71 O         -46.6801  -22.8868    3.9333 O.2       3 UNK        -0.5105 
     72 CA        -44.7073  -24.0258    4.6540 C.3       3 UNK         0.0299 
     73 CB        -44.2394  -22.9377    5.6369 C.3       3 UNK        -0.1972 
     74 N         -44.3076  -25.3333    5.1781 N.am      3 UNK        -0.4305 
     75 C         -43.9493  -26.3860    4.4294 C.2       2 UNK         0.5006 
     76 O         -43.8315  -26.3465    3.2043 O.2       2 UNK        -0.5106 
     77 CA        -43.6940  -27.7176    5.1633 C.3       2 UNK         0.0296 
     78 CB        -42.1884  -27.9166    5.4027 C.3       2 UNK        -0.2002 
     79 N         -44.4062  -27.8442    6.4406 N.am      2 UNK        -0.4032 
     80 C         -45.7407  -27.8816    6.5791 C.2       1 UNK         0.5000 
     81 O         -46.5198  -27.8238    5.6261 O.2       1 UNK        -0.5238 
     82 H82       -43.9664  -24.2486    9.2860 H         1 UNK         0.0889 
     83 H83       -44.2779  -25.4732   10.5188 H         1 UNK         0.0889 
     84 H84       -45.4207  -24.1493   10.2809 H         1 UNK         0.0889 
     85 H85       -45.1219  -27.3828    9.7087 H         1 UNK         0.3028 
     86 H86       -46.0286  -28.9219    8.3947 H         1 UNK         0.0864 
     87 H87       -48.1317  -26.7711    7.8065 H         1 UNK         0.0720 
     88 H88       -48.3113  -28.4552    7.4106 H         1 UNK         0.0720 
     89 H89       -49.1848  -30.2778   10.4473 H         1 UNK         0.0814 
     90 H90       -48.9708  -30.2153    8.7210 H         1 UNK         0.0814 
     91 H91       -50.6651  -28.6604    7.3786 H         1 UNK         0.1469 
     92 H92       -54.6004  -28.4813    9.0741 H         1 UNK         0.1381 
     93 H93       -51.3420  -30.0155   11.3926 H         1 UNK         0.1206 
     94 H94       -55.0434  -29.6408   11.1875 H         1 UNK         0.0813 
     95 H95       -53.7556  -30.5103   11.9806 H         1 UNK         0.0813 
     96 H96       -56.0559  -27.5737   12.0894 H         1 UNK         0.0638 
     97 H97       -54.8169  -26.6706   11.2417 H         1 UNK         0.0638 
     98 H98       -54.3002  -25.3934   13.3297 H         1 UNK         0.0568 
     99 H99       -56.5028  -23.3051   11.4273 H         1 UNK         0.3450 
    100 H100      -54.9245  -24.0736   11.4103 H         1 UNK         0.3450 
    101 H101      -55.9657  -27.3484   14.6273 H         1 UNK         0.2987 
    102 H102      -55.4562  -25.9134   17.8393 H         1 UNK         0.0766 
    103 H103      -57.7766  -25.3082   17.2378 H         1 UNK         0.0798 
    104 H104      -57.7525  -26.7935   18.1755 H         1 UNK         0.0798 
    105 H105      -58.0103  -26.8496   16.4319 H         1 UNK         0.0798 
    106 H106      -54.7613  -27.9694   17.8646 H         1 UNK         0.3198 
    107 H107      -55.7346  -30.8483   17.2821 H         1 UNK         0.0843 
    108 H108      -53.9515  -30.4187   14.8234 H         1 UNK         0.0831 
    109 H109      -55.5224  -31.2108   14.8203 H         1 UNK         0.0831 
    110 H110      -54.1746  -31.9478   15.6694 H         1 UNK         0.0831 
    111 H111      -53.1471  -29.3608   17.0475 H         1 UNK         0.3133 
    112 H112      -52.5069  -29.8036   20.4785 H         1 UNK         0.0566 
    113 H113      -50.2942  -30.7439   19.8558 H         1 UNK         0.0814 
    114 H114      -50.9037  -31.1931   18.2614 H         1 UNK         0.0814 
    115 H115      -51.5348  -31.9756   19.7034 H         1 UNK         0.0814 
    116 H116      -50.8638  -28.7055   18.4434 H         1 UNK         0.3091 
    117 H117      -52.5778  -25.6892   17.8306 H         1 UNK         0.0702 
    118 H118      -50.5546  -24.5695   18.6957 H         1 UNK         0.0785 
    119 H119      -50.0496  -26.0411   19.5278 H         1 UNK         0.0785 
    120 H120      -51.4995  -25.1871   20.0392 H         1 UNK         0.0785 
    121 H121      -50.0756  -26.1676   16.9260 H         1 UNK         0.2998 
    122 H122      -49.3699  -27.2293   15.1165 H         1 UNK         0.0697 
    123 H123      -51.3121  -29.1980   13.7905 H         1 UNK         0.0825 
    124 H124      -49.9666  -29.6108   14.8362 H         1 UNK         0.0825 
    125 H125      -49.6604  -28.8787   13.2684 H         1 UNK         0.0825 
    126 H126      -51.4217  -26.8111   13.0600 H         1 UNK         0.3029 
    127 H127      -52.2937  -24.1741   13.1461 H         1 UNK         0.0897 
    128 H128      -49.5888  -22.8412   12.5982 H         1 UNK         0.0792 
    129 H129      -50.7666  -22.3432   13.8076 H         1 UNK         0.0792 
    130 H130      -51.1558  -22.2046   12.1015 H         1 UNK         0.0792 
    131 H131      -50.2247  -25.2125   11.2745 H         1 UNK         0.3086 
    132 H132      -51.4112  -26.3930    9.3654 H         1 UNK         0.0583 
    133 H133      -53.7726  -25.8485    8.6258 H         1 UNK         0.1020 
    134 H134      -53.2110  -24.3292    7.9884 H         1 UNK         0.1020 
    135 H135      -54.2809  -27.7389    6.8373 H         1 UNK         0.0694 
    136 H136      -52.9418  -28.4353    5.9561 H         1 UNK         0.0694 
    137 H137      -49.7581  -25.2692    8.4180 H         1 UNK         0.2989 
    138 H138      -49.1958  -21.9339    7.4170 H         1 UNK         0.1055 
    139 H139      -47.7891  -23.6361    9.5463 H         1 UNK         0.0806 
    140 H140      -48.3028  -21.9660    9.7318 H         1 UNK         0.0806 
    141 H141      -47.0261  -22.3647    8.5917 H         1 UNK         0.0806 
    142 H142      -47.6547  -24.3173    7.1020 H         1 UNK         0.3061 
    143 H143      -48.6877  -26.0478    5.1925 H         1 UNK         0.0734 
    144 H144      -48.8477  -24.0764    2.8522 H         1 UNK         0.0832 
    145 H145      -48.5246  -25.8044    2.7074 H         1 UNK         0.0832 
    146 H146      -50.0721  -25.2457    3.3205 H         1 UNK         0.0832 
    147 H147      -46.5140  -25.7910    5.1535 H         1 UNK         0.3156 
    148 H148      -44.2149  -23.8488    3.6956 H         1 UNK         0.0589 
    149 H149      -43.1632  -22.9878    5.8028 H         1 UNK         0.0808 
    150 H150      -44.4595  -21.9415    5.2509 H         1 UNK         0.0808 
    151 H151      -44.7337  -23.0256    6.6050 H         1 UNK         0.0808 
    152 H152      -44.4206  -25.4594    6.1753 H         1 UNK         0.3098 
    153 H153      -44.0447  -28.5188    4.5092 H         1 UNK         0.0720 
    154 H154      -41.6329  -27.8576    4.4655 H         1 UNK         0.0791 
    155 H155      -41.9805  -28.8945    5.8378 H         1 UNK         0.0791 
    156 H156      -41.7810  -27.1566    6.0708 H         1 UNK         0.0791 
    157 H157      -43.8383  -27.8804    7.2752 H         1 UNK         0.3028 
@<TRIPOS>BOND
     1    1    2 1    
     2    1   82 1    
     3    1   83 1    
     4    1   84 1    
     5    2    3 2    
     6    2    4 am   BACKBONE|DICT|INTERRES
     7    4    5 1    
     8    4   85 1    
     9    5    6 1    
    10    5   80 1    
    11    5   86 1    
    12    6    7 1    
    13    6   87 1    
    14    6   88 1    
    15    7    8 1    
    16    8    9 1    
    17    8   89 1    
    18    8   90 1    
    19    9   10 ar   
    20    9   14 ar   
    21   10   11 ar   
    22   10   91 1    
    23   11   12 ar   
    24   11   58 1    
    25   12   13 ar   
    26   12   92 1    
    27   13   14 ar   
    28   13   15 1    
    29   14   93 1    
    30   15   16 1    
    31   15   94 1    
    32   15   95 1    
    33   16   17 1    
    34   17   18 1    
    35   17   96 1    
    36   17   97 1    
    37   18   19 1    
    38   18   22 1    
    39   18   98 1    
    40   19   20 am   BACKBONE|DICT|INTERRES
    41   19   21 2    
    42   20   99 1    
    43   20  100 1    
    44   22   23 am   BACKBONE|DICT|INTERRES
    45   22  101 1    
    46   23   24 2    
    47   23   25 1    
    48   25   26 1    
    49   25   27 1    
    50   25  102 1    
    51   26  103 1    
    52   26  104 1    
    53   26  105 1    
    54   27   28 am   BACKBONE|DICT|INTERRES
    55   27  106 1    
    56   28   29 2    
    57   28   30 1    
    58   30   31 1    
    59   30   32 1    
    60   30  107 1    
    61   31  108 1    
    62   31  109 1    
    63   31  110 1    
    64   32   33 am   BACKBONE|DICT|INTERRES
    65   32  111 1    
    66   33   34 2    
    67   33   35 1    
    68   35   36 1    
    69   35   37 1    
    70   35  112 1    
    71   36  113 1    
    72   36  114 1    
    73   36  115 1    
    74   37   38 am   BACKBONE|DICT|INTERRES
    75   37  116 1    
    76   38   39 2    
    77   38   40 1    
    78   40   41 1    
    79   40   42 1    
    80   40  117 1    
    81   41  118 1    
    82   41  119 1    
    83   41  120 1    
    84   42   43 am   BACKBONE|DICT|INTERRES
    85   42  121 1    
    86   43   44 2    
    87   43   45 1    
    88   45   46 1    
    89   45   47 1    
    90   45  122 1    
    91   46  123 1    
    92   46  124 1    
    93   46  125 1    
    94   47   48 am   BACKBONE|DICT|INTERRES
    95   47  126 1    
    96   48   49 2    
    97   48   50 1    
    98   50   51 1    
    99   50   52 1    
   100   50  127 1    
   101   51  128 1    
   102   51  129 1    
   103   51  130 1    
   104   52   53 am   BACKBONE|DICT|INTERRES
   105   52  131 1    
   106   53   54 2    
   107   53   55 1    
   108   55   56 1    
   109   55   59 1    
   110   55  132 1    
   111   56   57 1    
   112   56  133 1    
   113   56  134 1    
   114   57   58 1    
   115   58  135 1    
   116   58  136 1    
   117   59   60 am   BACKBONE|DICT|INTERRES
   118   59  137 1    
   119   60   61 2    
   120   60   62 1    
   121   62   63 1    
   122   62   64 1    
   123   62  138 1    
   124   63  139 1    
   125   63  140 1    
   126   63  141 1    
   127   64   65 am   BACKBONE|DICT|INTERRES
   128   64  142 1    
   129   65   66 2    
   130   65   67 1    
   131   67   68 1    
   132   67   69 1    
   133   67  143 1    
   134   68  144 1    
   135   68  145 1    
   136   68  146 1    
   137   69   70 am   BACKBONE|DICT|INTERRES
   138   69  147 1    
   139   70   71 2    
   140   70   72 1    
   141   72   73 1    
   142   72   74 1    
   143   72  148 1    
   144   73  149 1    
   145   73  150 1    
   146   73  151 1    
   147   74   75 am   BACKBONE|DICT|INTERRES
   148   74  152 1    
   149   75   76 2    
   150   75   77 1    
   151   77   78 1    
   152   77   79 1    
   153   77  153 1    
   154   78  154 1    
   155   78  155 1    
   156   78  156 1    
   157   79   80 am   BACKBONE|DICT|INTERRES
   158   79  157 1    
   159   80   81 2    
@<TRIPOS>SUBSTRUCTURE
     1 UNK         1 GROUP             0       ****    0 ROOT    
