@<TRIPOS>MOLECULE
3R207
157   159    1
SMALL
USER_CHARGES


@<TRIPOS>ATOM
      1 CA        -46.9286  -21.9460    8.5618 C.3       0 UNK        -0.1975 
      2 C         -48.0044  -22.4375    7.6033 C.2       0 UNK         0.4852 
      3 O         -48.2229  -21.8092    6.5670 O.2       0 UNK        -0.5216 
      4 N         -48.6698  -23.5466    7.9577 N.am      1 UNK        -0.4461 
      5 CA        -49.7121  -24.2489    7.1962 C.3       1 UNK         0.0864 
      6 C6        -50.8734  -23.3156    6.7398 C.3       14 UNK        -0.0898 
      7 S7        -52.4386  -24.1551    6.3034 S.3       14 UNK        -0.2598 
      8 C8        -53.4014  -24.1010    7.8611 C.3       14 UNK         0.0286 
      9 C9        -53.2386  -25.3063    8.7929 C.ar      14 UNK        -0.0844 
     10 C10       -52.4338  -26.4090    8.4760 C.ar      14 UNK        -0.0881 
     11 C11       -52.3073  -27.4830    9.3560 C.ar      14 UNK        -0.0643 
     12 C12       -53.0314  -27.4828   10.5457 C.ar      14 UNK        -0.0930 
     13 C13       -53.8452  -26.4006   10.8813 C.ar      14 UNK        -0.0827 
     14 C14       -53.9356  -25.3110   10.0079 C.ar      14 UNK        -0.1249 
     15 C15       -54.6096  -26.4232   12.1971 C.3       14 UNK         0.0141 
     16 S16       -56.4168  -26.4843   11.9803 S.3       14 UNK        -0.2313 
     17 C17       -56.6812  -27.8883   10.8411 C.3       14 UNK        -0.0915 
     18 CA        -57.3026  -29.1322   11.5447 C.3       13 UNK         0.0968 
     19 C         -58.1404  -30.0336   10.5801 C.2       13 UNK         0.5732 
     20 N         -58.2620  -31.3327   10.8290 N.am      13 UNK        -0.7310 
     21 O         -58.7274  -29.5519    9.6136 O.2       13 UNK        -0.5035 
     22 N         -56.3354  -29.8721   12.3822 N.am      13 UNK        -0.4233 
     23 C         -55.2938  -30.5940   11.9372 C.2       13 UNK         0.4989 
     24 O         -54.9316  -30.6302   10.7602 O.2       13 UNK        -0.4996 
     25 CA        -54.5746  -31.4638   12.9894 C.3       12 UNK         0.0216 
     26 CB        -53.3196  -32.1781   12.4371 C.3       12 UNK        -0.1964 
     27 N         -54.2799  -30.7319   14.2282 N.am      12 UNK        -0.4276 
     28 C         -53.4250  -29.7106   14.3676 C.2       12 UNK         0.5020 
     29 O         -52.6933  -29.2883   13.4730 O.2       12 UNK        -0.5489 
     30 CA        -53.3575  -29.0666   15.7535 C.3       11 UNK         0.0294 
     31 CB        -52.2826  -29.7467   16.6178 C.3       11 UNK        -0.2019 
     32 N         -53.0159  -27.6565   15.5981 N.am      11 UNK        -0.4493 
     33 C         -53.6319  -26.6389   16.2094 C.2       11 UNK         0.4932 
     34 O         -54.5966  -26.7710   16.9652 O.2       11 UNK        -0.5029 
     35 CA        -53.0350  -25.2447   15.9473 C.3       10 UNK         0.0280 
     36 CB        -53.6913  -24.1250   16.7817 C.3       10 UNK        -0.1976 
     37 N         -51.5793  -25.2486   16.1176 N.am      10 UNK        -0.4242 
     38 C         -50.8766  -25.5418   17.2235 C.2       10 UNK         0.5072 
     39 O         -51.3749  -25.7760   18.3253 O.2       10 UNK        -0.5224 
     40 CA        -49.3456  -25.6026   17.0714 C.3       9 UNK         0.0343 
     41 CB        -48.8964  -27.0550   16.8404 C.3       9 UNK        -0.2003 
     42 N         -48.8454  -24.7713   15.9750 N.am      9 UNK        -0.4272 
     43 C         -48.8449  -23.4309   15.9652 C.2       9 UNK         0.4988 
     44 O         -49.1662  -22.7343   16.9284 O.2       9 UNK        -0.5108 
     45 CA        -48.4547  -22.7578   14.6395 C.3       8 UNK         0.0248 
     46 CB        -46.9265  -22.6913   14.4827 C.3       8 UNK        -0.2001 
     47 N         -49.0474  -23.4361   13.4827 N.am      8 UNK        -0.4140 
     48 C         -50.3545  -23.4226   13.1814 C.2       8 UNK         0.5028 
     49 O         -51.2019  -22.8071   13.8271 O.2       8 UNK        -0.5428 
     50 CA        -50.7945  -24.2397   11.9573 C.3       7 UNK         0.0264 
     51 CB        -50.6614  -23.3896   10.6878 C.3       7 UNK        -0.1988 
     52 N         -50.0409  -25.4876   11.8050 N.am      7 UNK        -0.4454 
     53 C         -50.2036  -26.5577   12.6000 C.2       7 UNK         0.5027 
     54 O         -51.0127  -26.5962   13.5294 O.2       7 UNK        -0.5083 
     55 CA        -49.2430  -27.7505   12.3829 C.3       6 UNK         0.0844 
     56 C56       -49.7867  -28.7881   11.3701 C.3       14 UNK        -0.0967 
     57 S57       -49.6877  -28.2694    9.6171 S.3       14 UNK        -0.2604 
     58 C58       -51.3700  -28.6299    9.0258 C.3       14 UNK         0.0134 
     59 N         -47.8761  -27.3317   12.0577 N.am      6 UNK        -0.4116 
     60 C         -47.1124  -26.5408   12.8207 C.2       5 UNK         0.5034 
     61 O         -47.4522  -26.1377   13.9322 O.2       5 UNK        -0.5045 
     62 CA        -45.7587  -26.0783   12.2585 C.3       5 UNK         0.0224 
     63 CB        -44.6104  -26.8057   12.9758 C.3       5 UNK        -0.1978 
     64 N         -45.5751  -26.2127   10.8094 N.am      5 UNK        -0.4737 
     65 C         -46.3230  -25.6641    9.8424 C.2       4 UNK         0.5027 
     66 O         -47.3986  -25.0906   10.0369 O.2       4 UNK        -0.5211 
     67 CA        -45.7553  -25.7372    8.4130 C.3       4 UNK         0.0297 
     68 CB        -44.2163  -25.8716    8.3553 C.3       4 UNK        -0.1993 
     69 N         -46.3985  -26.7660    7.5941 N.am      4 UNK        -0.4486 
     70 C         -46.4225  -28.0919    7.8046 C.2       3 UNK         0.4961 
     71 O         -45.9171  -28.6395    8.7854 O.2       3 UNK        -0.5105 
     72 CA        -47.1147  -28.9442    6.7235 C.3       3 UNK         0.0299 
     73 CB        -47.5735  -30.3235    7.2336 C.3       3 UNK        -0.1972 
     74 N         -48.2524  -28.2220    6.1496 N.am      3 UNK        -0.4305 
     75 C         -48.4107  -27.9370    4.8496 C.2       2 UNK         0.5006 
     76 O         -47.6743  -28.3605    3.9579 O.2       2 UNK        -0.5106 
     77 CA        -49.5690  -26.9915    4.4716 C.3       2 UNK         0.0296 
     78 CB        -50.8199  -27.8037    4.0985 C.3       2 UNK        -0.2002 
     79 N         -49.9277  -26.0083    5.5019 N.am      2 UNK        -0.4032 
     80 C         -49.1039  -25.1149    6.0685 C.2       1 UNK         0.5000 
     81 O         -47.9072  -25.0260    5.7792 O.2       1 UNK        -0.5238 
     82 H82       -45.9406  -22.1081    8.1319 H         1 UNK         0.0889 
     83 H83       -47.0493  -20.8789    8.7461 H         1 UNK         0.0889 
     84 H84       -46.9726  -22.4573    9.5230 H         1 UNK         0.0889 
     85 H85       -48.3581  -24.0380    8.7924 H         1 UNK         0.3028 
     86 H86       -50.1178  -24.9575    7.9168 H         1 UNK         0.0864 
     87 H87       -50.5672  -22.7277    5.8731 H         1 UNK         0.0720 
     88 H88       -51.0889  -22.5860    7.5216 H         1 UNK         0.0720 
     89 H89       -54.4559  -24.0296    7.5910 H         1 UNK         0.0814 
     90 H90       -53.1679  -23.1855    8.4060 H         1 UNK         0.0814 
     91 H91       -51.8892  -26.4509    7.5482 H         1 UNK         0.1469 
     92 H92       -52.9558  -28.3261   11.2152 H         1 UNK         0.1381 
     93 H93       -54.5652  -24.4718   10.2706 H         1 UNK         0.1206 
     94 H94       -54.3062  -27.2738   12.8069 H         1 UNK         0.0813 
     95 H95       -54.3531  -25.5321   12.7704 H         1 UNK         0.0813 
     96 H96       -55.7645  -28.1541   10.3173 H         1 UNK         0.0638 
     97 H97       -57.3467  -27.4997   10.0692 H         1 UNK         0.0638 
     98 H98       -58.0537  -28.7600   12.2420 H         1 UNK         0.0568 
     99 H99       -58.8164  -31.9006   10.2080 H         1 UNK         0.3450 
    100 H100      -57.8145  -31.7494   11.6285 H         1 UNK         0.3450 
    101 H101      -56.5574  -29.9072   13.3659 H         1 UNK         0.2987 
    102 H102      -55.2862  -32.2438   13.2650 H         1 UNK         0.0766 
    103 H103      -52.8379  -32.7852   13.2033 H         1 UNK         0.0798 
    104 H104      -52.5816  -31.4724   12.0545 H         1 UNK         0.0798 
    105 H105      -53.5825  -32.8439   11.6143 H         1 UNK         0.0798 
    106 H106      -54.8138  -31.0171   15.0384 H         1 UNK         0.3198 
    107 H107      -54.3313  -29.1736   16.2363 H         1 UNK         0.0843 
    108 H108      -51.2955  -29.6790   16.1580 H         1 UNK         0.0831 
    109 H109      -52.5050  -30.8047   16.7624 H         1 UNK         0.0831 
    110 H110      -52.2220  -29.2888   17.6054 H         1 UNK         0.0831 
    111 H111      -52.2938  -27.4595   14.9076 H         1 UNK         0.3133 
    112 H112      -53.2158  -25.0210   14.8953 H         1 UNK         0.0566 
    113 H113      -53.2504  -23.1544   16.5537 H         1 UNK         0.0814 
    114 H114      -54.7584  -24.0554   16.5678 H         1 UNK         0.0814 
    115 H115      -53.5854  -24.2991   17.8528 H         1 UNK         0.0814 
    116 H116      -51.0554  -25.1387   15.2591 H         1 UNK         0.3091 
    117 H117      -48.9015  -25.2451   18.0027 H         1 UNK         0.0702 
    118 H118      -47.8102  -27.1304   16.7843 H         1 UNK         0.0785 
    119 H119      -49.3075  -27.4602   15.9145 H         1 UNK         0.0785 
    120 H120      -49.2265  -27.7013   17.6549 H         1 UNK         0.0785 
    121 H121      -48.4802  -25.2638   15.1615 H         1 UNK         0.2998 
    122 H122      -48.8367  -21.7347   14.6600 H         1 UNK         0.0697 
    123 H123      -46.4708  -23.6815   14.4898 H         1 UNK         0.0825 
    124 H124      -46.4791  -22.1256   15.3012 H         1 UNK         0.0825 
    125 H125      -46.6421  -22.1952   13.5546 H         1 UNK         0.0825 
    126 H126      -48.4292  -23.9913   12.9101 H         1 UNK         0.3029 
    127 H127      -51.8488  -24.4939   12.0871 H         1 UNK         0.0897 
    128 H128      -51.0088  -23.9360    9.8145 H         1 UNK         0.0792 
    129 H129      -49.6303  -23.0815   10.5151 H         1 UNK         0.0792 
    130 H130      -51.2650  -22.4839   10.7602 H         1 UNK         0.0792 
    131 H131      -49.3315  -25.5234   11.0823 H         1 UNK         0.3086 
    132 H132      -49.1816  -28.2581   13.3480 H         1 UNK         0.0583 
    133 H133      -49.2123  -29.7107   11.4647 H         1 UNK         0.1020 
    134 H134      -50.8080  -29.0676   11.6298 H         1 UNK         0.1020 
    135 H135      -51.3391  -28.7856    7.9464 H         1 UNK         0.0694 
    136 H136      -51.7319  -29.5649    9.4570 H         1 UNK         0.0694 
    137 H137      -47.5328  -27.5932   11.1440 H         1 UNK         0.2989 
    138 H138      -45.6799  -25.0138   12.4872 H         1 UNK         0.1055 
    139 H139      -44.6937  -26.6999   14.0588 H         1 UNK         0.0806 
    140 H140      -43.6403  -26.3992   12.6891 H         1 UNK         0.0806 
    141 H141      -44.6082  -27.8733   12.7521 H         1 UNK         0.0806 
    142 H142      -44.7481  -26.7125   10.5147 H         1 UNK         0.3061 
    143 H143      -46.0038  -24.7851    7.9440 H         1 UNK         0.0734 
    144 H144      -43.8558  -25.7573    7.3329 H         1 UNK         0.0832 
    145 H145      -43.7306  -25.0972    8.9509 H         1 UNK         0.0832 
    146 H146      -43.8642  -26.8380    8.7173 H         1 UNK         0.0832 
    147 H147      -46.8700  -26.4040    6.7696 H         1 UNK         0.3156 
    148 H148      -46.3546  -29.1147    5.9586 H         1 UNK         0.0589 
    149 H149      -48.3013  -30.2408    8.0394 H         1 UNK         0.0808 
    150 H150      -48.0271  -30.9081    6.4333 H         1 UNK         0.0808 
    151 H151      -46.7303  -30.9008    7.6149 H         1 UNK         0.0808 
    152 H152      -48.9110  -27.8404    6.8138 H         1 UNK         0.3098 
    153 H153      -49.2505  -26.4300    3.5910 H         1 UNK         0.0720 
    154 H154      -51.6157  -27.1594    3.7238 H         1 UNK         0.0791 
    155 H155      -51.2105  -28.3596    4.9520 H         1 UNK         0.0791 
    156 H156      -50.5963  -28.5273    3.3132 H         1 UNK         0.0791 
    157 H157      -50.9071  -25.9606    5.7471 H         1 UNK         0.3028 
@<TRIPOS>BOND
     1    1    2 1    
     2    1   82 1    
     3    1   83 1    
     4    1   84 1    
     5    2    3 2    
     6    2    4 am   BACKBONE|DICT|INTERRES
     7    4    5 1    
     8    4   85 1    
     9    5    6 1    
    10    5   80 1    
    11    5   86 1    
    12    6    7 1    
    13    6   87 1    
    14    6   88 1    
    15    7    8 1    
    16    8    9 1    
    17    8   89 1    
    18    8   90 1    
    19    9   10 ar   
    20    9   14 ar   
    21   10   11 ar   
    22   10   91 1    
    23   11   12 ar   
    24   11   58 1    
    25   12   13 ar   
    26   12   92 1    
    27   13   14 ar   
    28   13   15 1    
    29   14   93 1    
    30   15   16 1    
    31   15   94 1    
    32   15   95 1    
    33   16   17 1    
    34   17   18 1    
    35   17   96 1    
    36   17   97 1    
    37   18   19 1    
    38   18   22 1    
    39   18   98 1    
    40   19   20 am   BACKBONE|DICT|INTERRES
    41   19   21 2    
    42   20   99 1    
    43   20  100 1    
    44   22   23 am   BACKBONE|DICT|INTERRES
    45   22  101 1    
    46   23   24 2    
    47   23   25 1    
    48   25   26 1    
    49   25   27 1    
    50   25  102 1    
    51   26  103 1    
    52   26  104 1    
    53   26  105 1    
    54   27   28 am   BACKBONE|DICT|INTERRES
    55   27  106 1    
    56   28   29 2    
    57   28   30 1    
    58   30   31 1    
    59   30   32 1    
    60   30  107 1    
    61   31  108 1    
    62   31  109 1    
    63   31  110 1    
    64   32   33 am   BACKBONE|DICT|INTERRES
    65   32  111 1    
    66   33   34 2    
    67   33   35 1    
    68   35   36 1    
    69   35   37 1    
    70   35  112 1    
    71   36  113 1    
    72   36  114 1    
    73   36  115 1    
    74   37   38 am   BACKBONE|DICT|INTERRES
    75   37  116 1    
    76   38   39 2    
    77   38   40 1    
    78   40   41 1    
    79   40   42 1    
    80   40  117 1    
    81   41  118 1    
    82   41  119 1    
    83   41  120 1    
    84   42   43 am   BACKBONE|DICT|INTERRES
    85   42  121 1    
    86   43   44 2    
    87   43   45 1    
    88   45   46 1    
    89   45   47 1    
    90   45  122 1    
    91   46  123 1    
    92   46  124 1    
    93   46  125 1    
    94   47   48 am   BACKBONE|DICT|INTERRES
    95   47  126 1    
    96   48   49 2    
    97   48   50 1    
    98   50   51 1    
    99   50   52 1    
   100   50  127 1    
   101   51  128 1    
   102   51  129 1    
   103   51  130 1    
   104   52   53 am   BACKBONE|DICT|INTERRES
   105   52  131 1    
   106   53   54 2    
   107   53   55 1    
   108   55   56 1    
   109   55   59 1    
   110   55  132 1    
   111   56   57 1    
   112   56  133 1    
   113   56  134 1    
   114   57   58 1    
   115   58  135 1    
   116   58  136 1    
   117   59   60 am   BACKBONE|DICT|INTERRES
   118   59  137 1    
   119   60   61 2    
   120   60   62 1    
   121   62   63 1    
   122   62   64 1    
   123   62  138 1    
   124   63  139 1    
   125   63  140 1    
   126   63  141 1    
   127   64   65 am   BACKBONE|DICT|INTERRES
   128   64  142 1    
   129   65   66 2    
   130   65   67 1    
   131   67   68 1    
   132   67   69 1    
   133   67  143 1    
   134   68  144 1    
   135   68  145 1    
   136   68  146 1    
   137   69   70 am   BACKBONE|DICT|INTERRES
   138   69  147 1    
   139   70   71 2    
   140   70   72 1    
   141   72   73 1    
   142   72   74 1    
   143   72  148 1    
   144   73  149 1    
   145   73  150 1    
   146   73  151 1    
   147   74   75 am   BACKBONE|DICT|INTERRES
   148   74  152 1    
   149   75   76 2    
   150   75   77 1    
   151   77   78 1    
   152   77   79 1    
   153   77  153 1    
   154   78  154 1    
   155   78  155 1    
   156   78  156 1    
   157   79   80 am   BACKBONE|DICT|INTERRES
   158   79  157 1    
   159   80   81 2    
@<TRIPOS>SUBSTRUCTURE
     1 UNK         1 GROUP             0       ****    0 ROOT    
