@<TRIPOS>MOLECULE
3R207
157   159    1
SMALL
USER_CHARGES


@<TRIPOS>ATOM
      1 CA        -51.8386  -30.0718    8.8056 C.3       0 UNK        -0.1975 
      2 C         -51.0218  -30.0067    7.5247 C.2       0 UNK         0.4852 
      3 O         -50.3267  -30.9669    7.1927 O.2       0 UNK        -0.5216 
      4 N         -51.0831  -28.8741    6.8110 N.am      1 UNK        -0.4461 
      5 CA        -50.3845  -28.6453    5.5353 C.3       1 UNK         0.0864 
      6 C6        -51.1226  -27.6283    4.6254 C.3       14 UNK        -0.0898 
      7 S7        -52.8490  -28.1146    4.2730 S.3       14 UNK        -0.2598 
      8 C8        -53.8043  -26.7630    5.0356 C.3       14 UNK         0.0286 
      9 C9        -53.6982  -26.7794    6.5528 C.ar      14 UNK        -0.0844 
     10 C10       -52.7666  -25.9645    7.1991 C.ar      14 UNK        -0.0881 
     11 C11       -52.6355  -25.9993    8.5881 C.ar      14 UNK        -0.0643 
     12 C12       -53.4700  -26.8314    9.3410 C.ar      14 UNK        -0.0930 
     13 C13       -54.4214  -27.6373    8.7062 C.ar      14 UNK        -0.0827 
     14 C14       -54.5274  -27.6102    7.3117 C.ar      14 UNK        -0.1249 
     15 C15       -55.3242  -28.5504    9.5212 C.3       14 UNK         0.0141 
     16 S16       -56.6753  -27.6148   10.2986 S.3       14 UNK        -0.2313 
     17 C17       -57.8192  -28.9514   10.7825 C.3       14 UNK        -0.0915 
     18 CA        -57.8473  -29.2080   12.3187 C.3       13 UNK         0.0968 
     19 C         -59.0536  -30.0954   12.7619 C.2       13 UNK         0.5732 
     20 N         -58.9411  -30.8782   13.8288 N.am      13 UNK        -0.7310 
     21 O         -60.1222  -30.0525   12.1561 O.2       13 UNK        -0.5035 
     22 N         -56.5413  -29.6301   12.8637 N.am      13 UNK        -0.4233 
     23 C         -55.9036  -30.7760   12.5853 C.2       13 UNK         0.4989 
     24 O         -56.3073  -31.6136   11.7775 O.2       13 UNK        -0.4996 
     25 CA        -54.5714  -30.9967   13.3174 C.3       12 UNK         0.0216 
     26 CB        -54.0485  -32.4390   13.1702 C.3       12 UNK        -0.1964 
     27 N         -53.5795  -30.0782   12.7577 N.am      12 UNK        -0.4276 
     28 C         -52.9099  -29.0867   13.3589 C.2       12 UNK         0.5020 
     29 O         -52.1214  -28.3875   12.7272 O.2       12 UNK        -0.5489 
     30 CA        -53.0915  -28.8198   14.8632 C.3       11 UNK         0.0294 
     31 CB        -52.2853  -29.8262   15.7069 C.3       11 UNK        -0.2019 
     32 N         -52.6344  -27.4661   15.1717 N.am      11 UNK        -0.4493 
     33 C         -53.0793  -26.7156   16.1872 C.2       11 UNK         0.4932 
     34 O         -53.9603  -27.0778   16.9697 O.2       11 UNK        -0.5029 
     35 CA        -52.4083  -25.3405   16.3597 C.3       10 UNK         0.0280 
     36 CB        -52.8889  -24.5693   17.6073 C.3       10 UNK        -0.1976 
     37 N         -50.9474  -25.4489   16.3316 N.am      10 UNK        -0.4242 
     38 C         -50.1471  -26.1096   17.1814 C.2       10 UNK         0.5072 
     39 O         -50.5321  -26.6728   18.2069 O.2       10 UNK        -0.5224 
     40 CA        -48.6526  -26.1702   16.8144 C.3       9 UNK         0.0343 
     41 CB        -48.3506  -27.4736   16.0567 C.3       9 UNK        -0.2003 
     42 N         -48.2038  -25.0296   16.0095 N.am      9 UNK        -0.4272 
     43 C         -48.0783  -23.7752   16.4684 C.2       9 UNK         0.4988 
     44 O         -48.2498  -23.4552   17.6452 O.2       9 UNK        -0.5108 
     45 CA        -47.7267  -22.6882   15.4366 C.3       8 UNK         0.0248 
     46 CB        -46.2195  -22.6848   15.1353 C.3       8 UNK        -0.2001 
     47 N         -48.4821  -22.8271   14.1883 N.am      8 UNK        -0.4140 
     48 C         -49.8136  -22.6989   14.0843 C.2       8 UNK         0.5028 
     49 O         -50.5486  -22.3735   15.0163 O.2       8 UNK        -0.5428 
     50 CA        -50.4410  -23.0329   12.7221 C.3       7 UNK         0.0264 
     51 CB        -50.3769  -21.8301   11.7671 C.3       7 UNK        -0.1988 
     52 N         -49.8161  -24.1988   12.0966 N.am      7 UNK        -0.4454 
     53 C         -49.9524  -25.4601   12.5334 C.2       7 UNK         0.5027 
     54 O         -50.6307  -25.7700   13.5121 O.2       7 UNK        -0.5083 
     55 CA        -49.1679  -26.5497   11.7709 C.3       6 UNK         0.0844 
     56 C56       -49.9442  -27.0557   10.5287 C.3       14 UNK        -0.0967 
     57 S57       -49.9317  -25.8909    9.1224 S.3       14 UNK        -0.2604 
     58 C58       -51.5824  -25.1339    9.2561 C.3       14 UNK         0.0134 
     59 N         -47.8115  -26.1137   11.4304 N.am      6 UNK        -0.4116 
     60 C         -46.8657  -25.7648   12.3122 C.2       5 UNK         0.5034 
     61 O         -46.9877  -25.8669   13.5318 O.2       5 UNK        -0.5045 
     62 CA        -45.5984  -25.1228   11.7311 C.3       5 UNK         0.0224 
     63 CB        -44.5613  -26.1948   11.3617 C.3       5 UNK        -0.1978 
     64 N         -45.8954  -24.2799   10.5663 N.am      5 UNK        -0.4737 
     65 C         -46.5448  -23.1077   10.6441 C.2       4 UNK         0.5027 
     66 O         -46.9519  -22.6455   11.7099 O.2       4 UNK        -0.5211 
     67 CA        -46.8069  -22.3176    9.3492 C.3       4 UNK         0.0297 
     68 CB        -46.0495  -20.9795    9.3784 C.3       4 UNK        -0.1993 
     69 N         -46.4111  -23.0596    8.1505 N.am      4 UNK        -0.4486 
     70 C         -47.2496  -23.5434    7.2249 C.2       3 UNK         0.4961 
     71 O         -48.4653  -23.3501    7.2255 O.2       3 UNK        -0.5105 
     72 CA        -46.6309  -24.3993    6.1002 C.3       3 UNK         0.0299 
     73 CB        -45.1190  -24.1551    5.8884 C.3       3 UNK        -0.1972 
     74 N         -46.8928  -25.8315    6.2886 N.am      3 UNK        -0.4305 
     75 C         -46.6076  -26.5728    7.3688 C.2       2 UNK         0.5006 
     76 O         -46.0759  -26.1214    8.3844 O.2       2 UNK        -0.5106 
     77 CA        -46.9746  -28.0678    7.3036 C.3       2 UNK         0.0296 
     78 CB        -46.6716  -28.8062    8.6221 C.3       2 UNK        -0.2002 
     79 N         -48.3785  -28.2924    6.9506 N.am      2 UNK        -0.4032 
     80 C         -48.8941  -28.2645    5.7138 C.2       1 UNK         0.5000 
     81 O         -48.2282  -27.9475    4.7254 O.2       1 UNK        -0.5238 
     82 H82       -52.8598  -30.3808    8.5845 H         1 UNK         0.0889 
     83 H83       -51.8669  -29.1048    9.3039 H         1 UNK         0.0889 
     84 H84       -51.4056  -30.7913    9.5002 H         1 UNK         0.0889 
     85 H85       -51.6935  -28.1247    7.1134 H         1 UNK         0.3028 
     86 H86       -50.3731  -29.5938    4.9938 H         1 UNK         0.0864 
     87 H87       -51.0881  -26.6271    5.0540 H         1 UNK         0.0720 
     88 H88       -50.6179  -27.5503    3.6605 H         1 UNK         0.0720 
     89 H89       -54.8504  -26.8626    4.7423 H         1 UNK         0.0814 
     90 H90       -53.4680  -25.8057    4.6340 H         1 UNK         0.0814 
     91 H91       -52.1259  -25.3101    6.6237 H         1 UNK         0.1469 
     92 H92       -53.3793  -26.8572   10.4189 H         1 UNK         0.1381 
     93 H93       -55.2530  -28.2388    6.8134 H         1 UNK         0.1206 
     94 H94       -54.7426  -29.0541   10.2925 H         1 UNK         0.0813 
     95 H95       -55.7377  -29.3336    8.8839 H         1 UNK         0.0813 
     96 H96       -57.5878  -29.8670   10.2373 H         1 UNK         0.0638 
     97 H97       -58.8050  -28.6424   10.4309 H         1 UNK         0.0638 
     98 H98       -58.0514  -28.2468   12.7914 H         1 UNK         0.0568 
     99 H99       -59.7302  -31.4373   14.1123 H         1 UNK         0.3450 
    100 H100      -58.0829  -30.9143   14.3537 H         1 UNK         0.3450 
    101 H101      -56.1316  -28.9929   13.5298 H         1 UNK         0.2987 
    102 H102      -54.7536  -30.8257   14.3774 H         1 UNK         0.0766 
    103 H103      -53.1221  -32.5837   13.7261 H         1 UNK         0.0798 
    104 H104      -53.8536  -32.6983   12.1287 H         1 UNK         0.0798 
    105 H105      -54.7723  -33.1584   13.5558 H         1 UNK         0.0798 
    106 H106      -53.4140  -30.2001   11.7700 H         1 UNK         0.3198 
    107 H107      -54.1518  -28.8818   15.1100 H         1 UNK         0.0843 
    108 H108      -52.5922  -30.8531   15.5095 H         1 UNK         0.0831 
    109 H109      -52.4225  -29.6495   16.7739 H         1 UNK         0.0831 
    110 H110      -51.2175  -29.7591   15.4939 H         1 UNK         0.0831 
    111 H111      -51.9560  -27.0836   14.5152 H         1 UNK         0.3133 
    112 H112      -52.6834  -24.7515   15.4835 H         1 UNK         0.0566 
    113 H113      -52.4008  -23.5974   17.6817 H         1 UNK         0.0814 
    114 H114      -53.9638  -24.3904   17.5633 H         1 UNK         0.0814 
    115 H115      -52.6891  -25.1173   18.5284 H         1 UNK         0.0814 
    116 H116      -50.5214  -25.1067   15.4780 H         1 UNK         0.3091 
    117 H117      -48.0822  -26.1745   17.7455 H         1 UNK         0.0702 
    118 H118      -47.2857  -27.5719   15.8451 H         1 UNK         0.0785 
    119 H119      -48.8859  -27.5201   15.1072 H         1 UNK         0.0785 
    120 H120      -48.6477  -28.3449   16.6420 H         1 UNK         0.0785 
    121 H121      -47.9574  -25.2252   15.0423 H         1 UNK         0.2998 
    122 H122      -47.9867  -21.7208   15.8715 H         1 UNK         0.0697 
    123 H123      -45.8891  -23.6327   14.7106 H         1 UNK         0.0825 
    124 H124      -45.6415  -22.5171   16.0451 H         1 UNK         0.0825 
    125 H125      -45.9565  -21.8939   14.4325 H         1 UNK         0.0825 
    126 H126      -47.9464  -23.0132   13.3445 H         1 UNK         0.3029 
    127 H127      -51.4935  -23.2703   12.8940 H         1 UNK         0.0897 
    128 H128      -50.8580  -22.0532   10.8145 H         1 UNK         0.0792 
    129 H129      -50.8914  -20.9689   12.1954 H         1 UNK         0.0792 
    130 H130      -49.3512  -21.5239   11.5617 H         1 UNK         0.0792 
    131 H131      -49.2266  -24.0288   11.2952 H         1 UNK         0.3086 
    132 H132      -49.0675  -27.3937   12.4568 H         1 UNK         0.0583 
    133 H133      -49.5044  -27.9934   10.1892 H         1 UNK         0.1020 
    134 H134      -50.9724  -27.3042   10.7878 H         1 UNK         0.1020 
    135 H135      -51.8401  -24.9512   10.2996 H         1 UNK         0.0694 
    136 H136      -51.5559  -24.1550    8.7749 H         1 UNK         0.0694 
    137 H137      -47.6177  -25.9812   10.4469 H         1 UNK         0.2989 
    138 H138      -45.1647  -24.4873   12.5061 H         1 UNK         0.1055 
    139 H139      -44.2740  -26.7740   12.2402 H         1 UNK         0.0806 
    140 H140      -43.6532  -25.7468   10.9580 H         1 UNK         0.0806 
    141 H141      -44.9454  -26.8983   10.6230 H         1 UNK         0.0806 
    142 H142      -45.7039  -24.6876    9.6551 H         1 UNK         0.3061 
    143 H143      -47.8769  -22.1011    9.3259 H         1 UNK         0.0734 
    144 H144      -46.3398  -20.3840   10.2453 H         1 UNK         0.0832 
    145 H145      -44.9700  -21.1261    9.4303 H         1 UNK         0.0832 
    146 H146      -46.2655  -20.3833    8.4917 H         1 UNK         0.0832 
    147 H147      -45.4294  -23.2788    8.0583 H         1 UNK         0.3156 
    148 H148      -47.1414  -24.1101    5.1804 H         1 UNK         0.0589 
    149 H149      -44.5166  -24.5049    6.7274 H         1 UNK         0.0808 
    150 H150      -44.7648  -24.6740    4.9975 H         1 UNK         0.0808 
    151 H151      -44.9067  -23.0949    5.7425 H         1 UNK         0.0808 
    152 H152      -47.3553  -26.3075    5.5200 H         1 UNK         0.3098 
    153 H153      -46.3470  -28.5126    6.5284 H         1 UNK         0.0720 
    154 H154      -45.6122  -28.7367    8.8726 H         1 UNK         0.0791 
    155 H155      -46.9148  -29.8664    8.5495 H         1 UNK         0.0791 
    156 H156      -47.2306  -28.3891    9.4596 H         1 UNK         0.0791 
    157 H157      -49.0052  -28.5149    7.7088 H         1 UNK         0.3028 
@<TRIPOS>BOND
     1    1    2 1    
     2    1   82 1    
     3    1   83 1    
     4    1   84 1    
     5    2    3 2    
     6    2    4 am   BACKBONE|DICT|INTERRES
     7    4    5 1    
     8    4   85 1    
     9    5    6 1    
    10    5   80 1    
    11    5   86 1    
    12    6    7 1    
    13    6   87 1    
    14    6   88 1    
    15    7    8 1    
    16    8    9 1    
    17    8   89 1    
    18    8   90 1    
    19    9   10 ar   
    20    9   14 ar   
    21   10   11 ar   
    22   10   91 1    
    23   11   12 ar   
    24   11   58 1    
    25   12   13 ar   
    26   12   92 1    
    27   13   14 ar   
    28   13   15 1    
    29   14   93 1    
    30   15   16 1    
    31   15   94 1    
    32   15   95 1    
    33   16   17 1    
    34   17   18 1    
    35   17   96 1    
    36   17   97 1    
    37   18   19 1    
    38   18   22 1    
    39   18   98 1    
    40   19   20 am   BACKBONE|DICT|INTERRES
    41   19   21 2    
    42   20   99 1    
    43   20  100 1    
    44   22   23 am   BACKBONE|DICT|INTERRES
    45   22  101 1    
    46   23   24 2    
    47   23   25 1    
    48   25   26 1    
    49   25   27 1    
    50   25  102 1    
    51   26  103 1    
    52   26  104 1    
    53   26  105 1    
    54   27   28 am   BACKBONE|DICT|INTERRES
    55   27  106 1    
    56   28   29 2    
    57   28   30 1    
    58   30   31 1    
    59   30   32 1    
    60   30  107 1    
    61   31  108 1    
    62   31  109 1    
    63   31  110 1    
    64   32   33 am   BACKBONE|DICT|INTERRES
    65   32  111 1    
    66   33   34 2    
    67   33   35 1    
    68   35   36 1    
    69   35   37 1    
    70   35  112 1    
    71   36  113 1    
    72   36  114 1    
    73   36  115 1    
    74   37   38 am   BACKBONE|DICT|INTERRES
    75   37  116 1    
    76   38   39 2    
    77   38   40 1    
    78   40   41 1    
    79   40   42 1    
    80   40  117 1    
    81   41  118 1    
    82   41  119 1    
    83   41  120 1    
    84   42   43 am   BACKBONE|DICT|INTERRES
    85   42  121 1    
    86   43   44 2    
    87   43   45 1    
    88   45   46 1    
    89   45   47 1    
    90   45  122 1    
    91   46  123 1    
    92   46  124 1    
    93   46  125 1    
    94   47   48 am   BACKBONE|DICT|INTERRES
    95   47  126 1    
    96   48   49 2    
    97   48   50 1    
    98   50   51 1    
    99   50   52 1    
   100   50  127 1    
   101   51  128 1    
   102   51  129 1    
   103   51  130 1    
   104   52   53 am   BACKBONE|DICT|INTERRES
   105   52  131 1    
   106   53   54 2    
   107   53   55 1    
   108   55   56 1    
   109   55   59 1    
   110   55  132 1    
   111   56   57 1    
   112   56  133 1    
   113   56  134 1    
   114   57   58 1    
   115   58  135 1    
   116   58  136 1    
   117   59   60 am   BACKBONE|DICT|INTERRES
   118   59  137 1    
   119   60   61 2    
   120   60   62 1    
   121   62   63 1    
   122   62   64 1    
   123   62  138 1    
   124   63  139 1    
   125   63  140 1    
   126   63  141 1    
   127   64   65 am   BACKBONE|DICT|INTERRES
   128   64  142 1    
   129   65   66 2    
   130   65   67 1    
   131   67   68 1    
   132   67   69 1    
   133   67  143 1    
   134   68  144 1    
   135   68  145 1    
   136   68  146 1    
   137   69   70 am   BACKBONE|DICT|INTERRES
   138   69  147 1    
   139   70   71 2    
   140   70   72 1    
   141   72   73 1    
   142   72   74 1    
   143   72  148 1    
   144   73  149 1    
   145   73  150 1    
   146   73  151 1    
   147   74   75 am   BACKBONE|DICT|INTERRES
   148   74  152 1    
   149   75   76 2    
   150   75   77 1    
   151   77   78 1    
   152   77   79 1    
   153   77  153 1    
   154   78  154 1    
   155   78  155 1    
   156   78  156 1    
   157   79   80 am   BACKBONE|DICT|INTERRES
   158   79  157 1    
   159   80   81 2    
@<TRIPOS>SUBSTRUCTURE
     1 UNK         1 GROUP             0       ****    0 ROOT    
