@<TRIPOS>MOLECULE
3R207
157   159    1
SMALL
USER_CHARGES


@<TRIPOS>ATOM
      1 CA        -47.1680  -26.3443    4.2690 C.3       0 UNK        -0.1975 
      2 C         -46.6758  -27.3143    5.3416 C.2       0 UNK         0.4852 
      3 O         -45.4702  -27.5368    5.4355 O.2       0 UNK        -0.5216 
      4 N         -47.5463  -27.9309    6.1560 N.am      1 UNK        -0.4461 
      5 CA        -49.0039  -27.7609    6.2339 C.3       1 UNK         0.0864 
      6 C6        -49.6349  -28.7319    7.2604 C.3       14 UNK        -0.0898 
      7 S7        -49.3184  -30.4802    6.8535 S.3       14 UNK        -0.2598 
      8 C8        -50.8298  -31.2790    7.4862 C.3       14 UNK         0.0286 
      9 C9        -50.9739  -31.1246    8.9947 C.ar      14 UNK        -0.0844 
     10 C10       -50.0341  -31.7027    9.8523 C.ar      14 UNK        -0.0881 
     11 C11       -50.1500  -31.5602   11.2381 C.ar      14 UNK        -0.0643 
     12 C12       -51.2309  -30.8510   11.7680 C.ar      14 UNK        -0.0930 
     13 C13       -52.1870  -30.2801   10.9213 C.ar      14 UNK        -0.0827 
     14 C14       -52.0499  -30.4148    9.5358 C.ar      14 UNK        -0.1249 
     15 C15       -53.3514  -29.4947   11.5037 C.3       14 UNK         0.0141 
     16 S16       -54.9401  -30.3340   11.2373 S.3       14 UNK        -0.2313 
     17 C17       -56.0103  -29.4730   12.4375 C.3       14 UNK        -0.0915 
     18 CA        -56.7019  -28.2157   11.8451 C.3       13 UNK         0.0968 
     19 C         -57.9588  -27.8168   12.6753 C.2       13 UNK         0.5732 
     20 N         -58.0485  -26.6236   13.2512 N.am      13 UNK        -0.7310 
     21 O         -58.8905  -28.6103   12.7881 O.2       13 UNK        -0.5035 
     22 N         -55.7440  -27.1168   11.6437 N.am      13 UNK        -0.4233 
     23 C         -55.8987  -26.1293   10.7521 C.2       13 UNK         0.4989 
     24 O         -56.8084  -26.1056    9.9204 O.2       13 UNK        -0.4996 
     25 CA        -54.8754  -24.9720   10.7956 C.3       12 UNK         0.0216 
     26 CB        -55.4227  -23.6732   10.1677 C.3       12 UNK        -0.1964 
     27 N         -54.3314  -24.6924   12.1307 N.am      12 UNK        -0.4276 
     28 C         -55.0070  -24.4234   13.2564 C.2       12 UNK         0.5020 
     29 O         -56.2368  -24.3920   13.3382 O.2       12 UNK        -0.5489 
     30 CA        -54.1463  -24.1746   14.5096 C.3       11 UNK         0.0294 
     31 CB        -54.8420  -23.2097   15.4870 C.3       11 UNK        -0.2019 
     32 N         -53.7246  -25.3677   15.2596 N.am      11 UNK        -0.4493 
     33 C         -53.5066  -26.6288   14.8529 C.2       11 UNK         0.4932 
     34 O         -53.7826  -27.0803   13.7416 O.2       11 UNK        -0.5029 
     35 CA        -52.7892  -27.5254   15.8774 C.3       10 UNK         0.0280 
     36 CB        -52.6803  -28.9929   15.4258 C.3       10 UNK        -0.1976 
     37 N         -51.4417  -27.0097   16.1179 N.am      10 UNK        -0.4242 
     38 C         -51.1332  -26.0296   16.9772 C.2       10 UNK         0.5072 
     39 O         -51.9525  -25.4932   17.7248 O.2       10 UNK        -0.5224 
     40 CA        -49.6843  -25.5272   16.9478 C.3       9 UNK         0.0343 
     41 CB        -48.7122  -26.5860   17.4954 C.3       9 UNK        -0.2003 
     42 N         -49.2981  -25.1555   15.5871 N.am      9 UNK        -0.4272 
     43 C         -49.6143  -23.9942   14.9938 C.2       9 UNK         0.4988 
     44 O         -50.2154  -23.0760   15.5516 O.2       9 UNK        -0.5108 
     45 CA        -49.1814  -23.8319   13.5267 C.3       8 UNK         0.0248 
     46 CB        -47.7145  -23.3754   13.4592 C.3       8 UNK        -0.2001 
     47 N         -49.3532  -25.0746   12.7693 N.am      8 UNK        -0.4140 
     48 C         -50.5505  -25.5749   12.4249 C.2       8 UNK         0.5028 
     49 O         -51.5996  -24.9475   12.5564 O.2       8 UNK        -0.5428 
     50 CA        -50.6189  -26.9935   11.8254 C.3       7 UNK         0.0264 
     51 CB        -50.9112  -26.9107   10.3213 C.3       7 UNK        -0.1988 
     52 N         -49.4172  -27.8029   12.0230 N.am      7 UNK        -0.4454 
     53 C         -48.9062  -28.1810   13.2029 C.2       7 UNK         0.5027 
     54 O         -49.4741  -27.9934   14.2803 O.2       7 UNK        -0.5083 
     55 CA        -47.4724  -28.7610   13.1936 C.3       6 UNK         0.0844 
     56 C56       -47.4429  -30.2849   13.4883 C.3       14 UNK        -0.0967 
     57 S57       -47.4991  -31.3666   12.0129 S.3       14 UNK        -0.2604 
     58 C58       -49.1142  -32.1966   12.1513 C.3       14 UNK         0.0134 
     59 N         -46.6939  -28.3911   11.9991 N.am      6 UNK        -0.4116 
     60 C         -46.4202  -27.1383   11.6059 C.2       5 UNK         0.5034 
     61 O         -46.7283  -26.1530   12.2772 O.2       5 UNK        -0.5045 
     62 CA        -45.7648  -26.9477   10.2235 C.3       5 UNK         0.0224 
     63 CB        -45.9595  -28.1515    9.2793 C.3       5 UNK        -0.1978 
     64 N         -46.2885  -25.7430    9.5674 N.am      5 UNK        -0.4737 
     65 C         -45.7631  -24.5166    9.7019 C.2       4 UNK         0.5027 
     66 O         -44.7442  -24.2744   10.3498 O.2       4 UNK        -0.5211 
     67 CA        -46.4795  -23.3622    8.9868 C.3       4 UNK         0.0297 
     68 CB        -46.0262  -23.2883    7.5186 C.3       4 UNK        -0.1993 
     69 N         -47.9359  -23.5079    9.0271 N.am      4 UNK        -0.4486 
     70 C         -48.7722  -22.7341    9.7362 C.2       3 UNK         0.4961 
     71 O         -48.4033  -21.8218   10.4760 O.2       3 UNK        -0.5105 
     72 CA        -50.2752  -22.9854    9.5233 C.3       3 UNK         0.0299 
     73 CB        -51.1767  -21.8501   10.0428 C.3       3 UNK        -0.1972 
     74 N         -50.4986  -23.2013    8.0984 N.am      3 UNK        -0.4305 
     75 C         -51.3158  -24.1142    7.5689 C.2       2 UNK         0.5006 
     76 O         -52.1958  -24.7063    8.1922 O.2       2 UNK        -0.5106 
     77 CA        -51.0599  -24.4848    6.0968 C.3       2 UNK         0.0296 
     78 CB        -50.1742  -23.4729    5.3309 C.3       2 UNK        -0.2002 
     79 N         -50.4908  -25.8340    5.9814 N.am      2 UNK        -0.4032 
     80 C         -49.3915  -26.3125    6.5891 C.2       1 UNK         0.5000 
     81 O         -48.6956  -25.6796    7.3925 O.2       1 UNK        -0.5238 
     82 H82       -46.4298  -26.2586    3.4718 H         1 UNK         0.0889 
     83 H83       -47.3156  -25.3513    4.6929 H         1 UNK         0.0889 
     84 H84       -48.0994  -26.6756    3.8125 H         1 UNK         0.0889 
     85 H85       -47.1741  -28.5896    6.8229 H         1 UNK         0.3028 
     86 H86       -49.4119  -27.9979    5.2494 H         1 UNK         0.0864 
     87 H87       -50.7150  -28.5791    7.3119 H         1 UNK         0.0720 
     88 H88       -49.2522  -28.5432    8.2646 H         1 UNK         0.0720 
     89 H89       -50.7972  -32.3411    7.2396 H         1 UNK         0.0814 
     90 H90       -51.6975  -30.8712    6.9654 H         1 UNK         0.0814 
     91 H91       -49.2000  -32.2534    9.4390 H         1 UNK         0.1469 
     92 H92       -51.3260  -30.7432   12.8395 H         1 UNK         0.1381 
     93 H93       -52.7854  -29.9656    8.8824 H         1 UNK         0.1206 
     94 H94       -53.2046  -29.3465   12.5715 H         1 UNK         0.0813 
     95 H95       -53.3850  -28.5031   11.0519 H         1 UNK         0.0813 
     96 H96       -55.4455  -29.2215   13.3362 H         1 UNK         0.0638 
     97 H97       -56.7521  -30.2089   12.7531 H         1 UNK         0.0638 
     98 H98       -57.0941  -28.4969   10.8660 H         1 UNK         0.0568 
     99 H99       -58.8790  -26.3982   13.7739 H         1 UNK         0.3450 
    100 H100      -57.3077  -25.9313   13.1703 H         1 UNK         0.3450 
    101 H101      -54.9961  -27.0477   12.3310 H         1 UNK         0.2987 
    102 H102      -54.0300  -25.2990   10.1897 H         1 UNK         0.0766 
    103 H103      -54.6727  -22.8826   10.1786 H         1 UNK         0.0798 
    104 H104      -56.3032  -23.3100   10.6988 H         1 UNK         0.0798 
    105 H105      -55.7078  -23.8292    9.1265 H         1 UNK         0.0798 
    106 H106      -53.3150  -24.7733   12.2192 H         1 UNK         0.3198 
    107 H107      -53.2316  -23.6807   14.1771 H         1 UNK         0.0843 
    108 H108      -55.7232  -23.6648   15.9410 H         1 UNK         0.0831 
    109 H109      -55.1698  -22.3032   14.9762 H         1 UNK         0.0831 
    110 H110      -54.1709  -22.9022   16.2893 H         1 UNK         0.0831 
    111 H111      -53.4099  -25.1732   16.2036 H         1 UNK         0.3133 
    112 H112      -53.3671  -27.5029   16.8037 H         1 UNK         0.0566 
    113 H113      -52.2585  -29.6162   16.2142 H         1 UNK         0.0814 
    114 H114      -53.6592  -29.4038   15.1763 H         1 UNK         0.0814 
    115 H115      -52.0418  -29.0945   14.5486 H         1 UNK         0.0814 
    116 H116      -50.7115  -27.3653   15.5033 H         1 UNK         0.3091 
    117 H117      -49.6182  -24.6456   17.5893 H         1 UNK         0.0702 
    118 H118      -47.6923  -26.2028   17.5319 H         1 UNK         0.0785 
    119 H119      -48.7058  -27.4925   16.8890 H         1 UNK         0.0785 
    120 H120      -48.9850  -26.8754   18.5111 H         1 UNK         0.0785 
    121 H121      -48.8445  -25.8703   15.0356 H         1 UNK         0.2998 
    122 H122      -49.8020  -23.0599   13.0663 H         1 UNK         0.0697 
    123 H123      -47.0504  -24.0589   13.9898 H         1 UNK         0.0825 
    124 H124      -47.5944  -22.3892   13.9090 H         1 UNK         0.0825 
    125 H125      -47.3605  -23.3087   12.4310 H         1 UNK         0.0825 
    126 H126      -48.5070  -25.6053   12.5781 H         1 UNK         0.3029 
    127 H127      -51.4448  -27.5070   12.3193 H         1 UNK         0.0897 
    128 H128      -50.1409  -26.3540    9.7866 H         1 UNK         0.0792 
    129 H129      -51.8623  -26.4099   10.1432 H         1 UNK         0.0792 
    130 H130      -50.9828  -27.8980    9.8711 H         1 UNK         0.0792 
    131 H131      -48.8885  -28.0267   11.1942 H         1 UNK         0.3086 
    132 H132      -46.9741  -28.2735   14.0346 H         1 UNK         0.0583 
    133 H133      -46.5050  -30.5161   13.9957 H         1 UNK         0.1020 
    134 H134      -48.2171  -30.5673   14.2045 H         1 UNK         0.1020 
    135 H135      -48.9902  -33.2416   11.8635 H         1 UNK         0.0694 
    136 H136      -49.4547  -32.2107   13.1874 H         1 UNK         0.0694 
    137 H137      -46.4246  -29.1636   11.4060 H         1 UNK         0.2989 
    138 H138      -44.6929  -26.8306   10.3981 H         1 UNK         0.1055 
    139 H139      -45.4729  -29.0485    9.6645 H         1 UNK         0.0806 
    140 H140      -45.5126  -27.9536    8.3049 H         1 UNK         0.0806 
    141 H141      -47.0133  -28.3827    9.1240 H         1 UNK         0.0806 
    142 H142      -47.1216  -25.8514    9.0034 H         1 UNK         0.3061 
    143 H143      -46.1787  -22.4347    9.4787 H         1 UNK         0.0734 
    144 H144      -46.4762  -22.4371    7.0078 H         1 UNK         0.0832 
    145 H145      -44.9438  -23.1718    7.4499 H         1 UNK         0.0832 
    146 H146      -46.2929  -24.1901    6.9655 H         1 UNK         0.0832 
    147 H147      -48.3252  -24.2541    8.4510 H         1 UNK         0.3156 
    148 H148      -50.5206  -23.8956   10.0709 H         1 UNK         0.0589 
    149 H149      -50.9554  -20.9028    9.5501 H         1 UNK         0.0808 
    150 H150      -52.2298  -22.0780    9.8790 H         1 UNK         0.0808 
    151 H151      -51.0413  -21.7054   11.1153 H         1 UNK         0.0808 
    152 H152      -49.8194  -22.7690    7.4871 H         1 UNK         0.3098 
    153 H153      -52.0371  -24.5075    5.6117 H         1 UNK         0.0720 
    154 H154      -50.1166  -23.7333    4.2739 H         1 UNK         0.0791 
    155 H155      -49.1520  -23.4394    5.7104 H         1 UNK         0.0791 
    156 H156      -50.5871  -22.4645    5.3846 H         1 UNK         0.0791 
    157 H157      -51.0118  -26.4604    5.3835 H         1 UNK         0.3028 
@<TRIPOS>BOND
     1    1    2 1    
     2    1   82 1    
     3    1   83 1    
     4    1   84 1    
     5    2    3 2    
     6    2    4 am   BACKBONE|DICT|INTERRES
     7    4    5 1    
     8    4   85 1    
     9    5    6 1    
    10    5   80 1    
    11    5   86 1    
    12    6    7 1    
    13    6   87 1    
    14    6   88 1    
    15    7    8 1    
    16    8    9 1    
    17    8   89 1    
    18    8   90 1    
    19    9   10 ar   
    20    9   14 ar   
    21   10   11 ar   
    22   10   91 1    
    23   11   12 ar   
    24   11   58 1    
    25   12   13 ar   
    26   12   92 1    
    27   13   14 ar   
    28   13   15 1    
    29   14   93 1    
    30   15   16 1    
    31   15   94 1    
    32   15   95 1    
    33   16   17 1    
    34   17   18 1    
    35   17   96 1    
    36   17   97 1    
    37   18   19 1    
    38   18   22 1    
    39   18   98 1    
    40   19   20 am   BACKBONE|DICT|INTERRES
    41   19   21 2    
    42   20   99 1    
    43   20  100 1    
    44   22   23 am   BACKBONE|DICT|INTERRES
    45   22  101 1    
    46   23   24 2    
    47   23   25 1    
    48   25   26 1    
    49   25   27 1    
    50   25  102 1    
    51   26  103 1    
    52   26  104 1    
    53   26  105 1    
    54   27   28 am   BACKBONE|DICT|INTERRES
    55   27  106 1    
    56   28   29 2    
    57   28   30 1    
    58   30   31 1    
    59   30   32 1    
    60   30  107 1    
    61   31  108 1    
    62   31  109 1    
    63   31  110 1    
    64   32   33 am   BACKBONE|DICT|INTERRES
    65   32  111 1    
    66   33   34 2    
    67   33   35 1    
    68   35   36 1    
    69   35   37 1    
    70   35  112 1    
    71   36  113 1    
    72   36  114 1    
    73   36  115 1    
    74   37   38 am   BACKBONE|DICT|INTERRES
    75   37  116 1    
    76   38   39 2    
    77   38   40 1    
    78   40   41 1    
    79   40   42 1    
    80   40  117 1    
    81   41  118 1    
    82   41  119 1    
    83   41  120 1    
    84   42   43 am   BACKBONE|DICT|INTERRES
    85   42  121 1    
    86   43   44 2    
    87   43   45 1    
    88   45   46 1    
    89   45   47 1    
    90   45  122 1    
    91   46  123 1    
    92   46  124 1    
    93   46  125 1    
    94   47   48 am   BACKBONE|DICT|INTERRES
    95   47  126 1    
    96   48   49 2    
    97   48   50 1    
    98   50   51 1    
    99   50   52 1    
   100   50  127 1    
   101   51  128 1    
   102   51  129 1    
   103   51  130 1    
   104   52   53 am   BACKBONE|DICT|INTERRES
   105   52  131 1    
   106   53   54 2    
   107   53   55 1    
   108   55   56 1    
   109   55   59 1    
   110   55  132 1    
   111   56   57 1    
   112   56  133 1    
   113   56  134 1    
   114   57   58 1    
   115   58  135 1    
   116   58  136 1    
   117   59   60 am   BACKBONE|DICT|INTERRES
   118   59  137 1    
   119   60   61 2    
   120   60   62 1    
   121   62   63 1    
   122   62   64 1    
   123   62  138 1    
   124   63  139 1    
   125   63  140 1    
   126   63  141 1    
   127   64   65 am   BACKBONE|DICT|INTERRES
   128   64  142 1    
   129   65   66 2    
   130   65   67 1    
   131   67   68 1    
   132   67   69 1    
   133   67  143 1    
   134   68  144 1    
   135   68  145 1    
   136   68  146 1    
   137   69   70 am   BACKBONE|DICT|INTERRES
   138   69  147 1    
   139   70   71 2    
   140   70   72 1    
   141   72   73 1    
   142   72   74 1    
   143   72  148 1    
   144   73  149 1    
   145   73  150 1    
   146   73  151 1    
   147   74   75 am   BACKBONE|DICT|INTERRES
   148   74  152 1    
   149   75   76 2    
   150   75   77 1    
   151   77   78 1    
   152   77   79 1    
   153   77  153 1    
   154   78  154 1    
   155   78  155 1    
   156   78  156 1    
   157   79   80 am   BACKBONE|DICT|INTERRES
   158   79  157 1    
   159   80   81 2    
@<TRIPOS>SUBSTRUCTURE
     1 UNK         1 GROUP             0       ****    0 ROOT    
