@<TRIPOS>MOLECULE
3R207
157   159    1
SMALL
USER_CHARGES


@<TRIPOS>ATOM
      1 CA        -46.1410  -25.2965   11.7258 C.3       0 UNK        -0.1975 
      2 C         -46.5927  -25.9640   10.4361 C.2       0 UNK         0.4852 
      3 O         -46.8981  -25.2698    9.4657 O.2       0 UNK        -0.5216 
      4 N         -46.6166  -27.3050   10.4101 N.am      1 UNK        -0.4461 
      5 CA        -47.0489  -28.1456    9.2816 C.3       1 UNK         0.0864 
      6 C6        -48.5683  -28.0213    8.9793 C.3       14 UNK        -0.0898 
      7 S7        -49.5750  -28.5778   10.3977 S.3       14 UNK        -0.2598 
      8 C8        -50.4603  -30.0153    9.7020 C.3       14 UNK         0.0286 
      9 C9        -51.8537  -29.6351    9.2176 C.ar      14 UNK        -0.0844 
     10 C10       -52.0142  -28.7807    8.1222 C.ar      14 UNK        -0.0881 
     11 C11       -53.2888  -28.3655    7.7256 C.ar      14 UNK        -0.0643 
     12 C12       -54.4111  -28.8555    8.3982 C.ar      14 UNK        -0.0930 
     13 C13       -54.2685  -29.7356    9.4741 C.ar      14 UNK        -0.0827 
     14 C14       -52.9870  -30.1219    9.8790 C.ar      14 UNK        -0.1249 
     15 C15       -55.5044  -30.2550   10.2001 C.3       14 UNK         0.0141 
     16 S16       -55.6165  -29.6546   11.9169 S.3       14 UNK        -0.2313 
     17 C17       -55.6047  -27.8391   11.6961 C.3       14 UNK        -0.0915 
     18 CA        -56.8610  -27.1249   12.2507 C.3       13 UNK         0.0968 
     19 C         -58.1384  -27.4306   11.4139 C.2       13 UNK         0.5732 
     20 N         -59.1932  -27.9964   11.9889 N.am      13 UNK        -0.7310 
     21 O         -58.1763  -27.1371   10.2213 O.2       13 UNK        -0.5035 
     22 N         -56.9893  -27.3302   13.7012 N.am      13 UNK        -0.4233 
     23 C         -57.6399  -26.5108   14.5356 C.2       13 UNK         0.4989 
     24 O         -58.2216  -25.4866   14.1753 O.2       13 UNK        -0.4996 
     25 CA        -57.6575  -26.8910   16.0279 C.3       12 UNK         0.0216 
     26 CB        -58.9943  -27.5584   16.3931 C.3       12 UNK        -0.1964 
     27 N         -56.5547  -27.7619   16.4540 N.am      12 UNK        -0.4276 
     28 C         -55.2621  -27.4076   16.5044 C.2       12 UNK         0.5020 
     29 O         -54.8477  -26.3090   16.1335 O.2       12 UNK        -0.5489 
     30 CA        -54.2712  -28.4346   17.0902 C.3       11 UNK         0.0294 
     31 CB        -54.9466  -29.6287   17.7983 C.3       11 UNK        -0.2019 
     32 N         -53.3720  -28.9470   16.0559 N.am      11 UNK        -0.4493 
     33 C         -52.2402  -28.3559   15.6550 C.2       11 UNK         0.4932 
     34 O         -51.8096  -27.2961   16.1152 O.2       11 UNK        -0.5029 
     35 CA        -51.4712  -29.0787   14.5375 C.3       10 UNK         0.0280 
     36 CB        -52.1295  -28.8203   13.1775 C.3       10 UNK        -0.1976 
     37 N         -50.0879  -28.6169   14.4796 N.am      10 UNK        -0.4242 
     38 C         -49.0692  -29.1413   15.1724 C.2       10 UNK         0.5072 
     39 O         -49.1431  -30.1691   15.8473 O.2       10 UNK        -0.5224 
     40 CA        -47.7456  -28.3607   15.1148 C.3       9 UNK         0.0343 
     41 CB        -46.9749  -28.6960   13.8283 C.3       9 UNK        -0.2003 
     42 N         -47.9901  -26.9192   15.1777 N.am      9 UNK        -0.4272 
     43 C         -48.3381  -26.2543   16.2860 C.2       9 UNK         0.4988 
     44 O         -48.3024  -26.7383   17.4178 O.2       9 UNK        -0.5108 
     45 CA        -48.8341  -24.8100   16.0977 C.3       8 UNK         0.0248 
     46 CB        -47.7179  -23.8835   15.5722 C.3       8 UNK        -0.2001 
     47 N         -50.0572  -24.7089   15.2853 N.am      8 UNK        -0.4140 
     48 C         -50.2194  -24.9921   13.9855 C.2       8 UNK         0.5028 
     49 O         -49.3170  -25.4211   13.2564 O.2       8 UNK        -0.5428 
     50 CA        -51.6197  -24.7629   13.3941 C.3       7 UNK         0.0264 
     51 CB        -52.0567  -23.2902   13.5474 C.3       7 UNK        -0.1988 
     52 N         -51.5393  -25.1218   11.9831 N.am      7 UNK        -0.4454 
     53 C         -52.5248  -25.2032   11.0820 C.2       7 UNK         0.5027 
     54 O         -53.7187  -25.0597   11.3493 O.2       7 UNK        -0.5083 
     55 CA        -52.0636  -25.4525    9.6280 C.3       6 UNK         0.0844 
     56 C56       -53.2020  -25.3204    8.5780 C.3       14 UNK        -0.0967 
     57 S57       -52.6231  -25.7766    6.9018 S.3       14 UNK        -0.2604 
     58 C58       -53.4620  -27.3668    6.5886 C.3       14 UNK         0.0134 
     59 N         -50.8817  -24.6411    9.3006 N.am      6 UNK        -0.4116 
     60 C         -50.8003  -23.3008    9.3054 C.2       5 UNK         0.5034 
     61 O         -51.7313  -22.5451    9.5852 O.2       5 UNK        -0.5045 
     62 CA        -49.4342  -22.6981    8.9444 C.3       5 UNK         0.0224 
     63 CB        -48.6055  -22.4598   10.2173 C.3       5 UNK        -0.1978 
     64 N         -48.6775  -23.5459    8.0198 N.am      5 UNK        -0.4737 
     65 C         -48.9411  -23.6476    6.7083 C.2       4 UNK         0.5027 
     66 O         -49.8285  -23.0062    6.1435 O.2       4 UNK        -0.5211 
     67 CA        -48.0659  -24.6262    5.9006 C.3       4 UNK         0.0297 
     68 CB        -48.1241  -24.3813    4.3779 C.3       4 UNK        -0.1993 
     69 N         -46.6801  -24.6715    6.3781 N.am      4 UNK        -0.4486 
     70 C         -45.7896  -23.6659    6.4099 C.2       3 UNK         0.4961 
     71 O         -45.9974  -22.5490    5.9344 O.2       3 UNK        -0.5105 
     72 CA        -44.4428  -23.9281    7.1128 C.3       3 UNK         0.0299 
     73 CB        -44.3183  -23.0591    8.3768 C.3       3 UNK        -0.1972 
     74 N         -44.2604  -25.3317    7.4875 N.am      3 UNK        -0.4305 
     75 C         -43.8023  -26.2906    6.6709 C.2       2 UNK         0.5006 
     76 O         -43.3951  -26.0808    5.5279 O.2       2 UNK        -0.5106 
     77 CA        -43.8172  -27.7340    7.2102 C.3       2 UNK         0.0296 
     78 CB        -42.4353  -28.1120    7.7681 C.3       2 UNK        -0.2002 
     79 N         -44.8369  -27.9766    8.2384 N.am      2 UNK        -0.4032 
     80 C         -46.1626  -27.9118    8.0384 C.2       1 UNK         0.5000 
     81 O         -46.6704  -27.6281    6.9519 O.2       1 UNK        -0.5238 
     82 H82       -45.2966  -24.6365   11.5301 H         1 UNK         0.0889 
     83 H83       -45.8386  -26.0221   12.4798 H         1 UNK         0.0889 
     84 H84       -46.9514  -24.6977   12.1386 H         1 UNK         0.0889 
     85 H85       -46.3410  -27.8134   11.2373 H         1 UNK         0.3028 
     86 H86       -46.8612  -29.1793    9.5773 H         1 UNK         0.0864 
     87 H87       -48.8379  -26.9921    8.7402 H         1 UNK         0.0720 
     88 H88       -48.8298  -28.6095    8.0987 H         1 UNK         0.0720 
     89 H89       -50.5273  -30.7784   10.4788 H         1 UNK         0.0814 
     90 H90       -49.8923  -30.4690    8.8891 H         1 UNK         0.0814 
     91 H91       -51.1465  -28.3958    7.6056 H         1 UNK         0.1469 
     92 H92       -55.3994  -28.5390    8.0936 H         1 UNK         0.1381 
     93 H93       -52.8770  -30.7879   10.7238 H         1 UNK         0.1206 
     94 H94       -56.4156  -29.9729    9.6701 H         1 UNK         0.0813 
     95 H95       -55.4810  -31.3454   10.2089 H         1 UNK         0.0813 
     96 H96       -55.4655  -27.5802   10.6465 H         1 UNK         0.0638 
     97 H97       -54.7190  -27.4553   12.2035 H         1 UNK         0.0638 
     98 H98       -56.6856  -26.0571   12.1044 H         1 UNK         0.0568 
     99 H99       -60.0147  -28.1835   11.4363 H         1 UNK         0.3450 
    100 H100      -59.1726  -28.2426   12.9647 H         1 UNK         0.3450 
    101 H101      -56.5539  -28.1617   14.0700 H         1 UNK         0.2987 
    102 H102      -57.5783  -25.9599   16.5934 H         1 UNK         0.0766 
    103 H103      -59.8374  -26.9249   16.1129 H         1 UNK         0.0798 
    104 H104      -59.0703  -27.7351   17.4663 H         1 UNK         0.0798 
    105 H105      -59.1226  -28.5147   15.8844 H         1 UNK         0.0798 
    106 H106      -56.8076  -28.6818   16.7855 H         1 UNK         0.3198 
    107 H107      -53.6820  -27.9029   17.8410 H         1 UNK         0.0843 
    108 H108      -55.5174  -30.2535   17.1101 H         1 UNK         0.0831 
    109 H109      -55.6200  -29.2926   18.5884 H         1 UNK         0.0831 
    110 H110      -54.2019  -30.2670   18.2746 H         1 UNK         0.0831 
    111 H111      -53.6571  -29.7999   15.5958 H         1 UNK         0.3133 
    112 H112      -51.4910  -30.1526   14.7357 H         1 UNK         0.0566 
    113 H113      -51.6105  -29.3540   12.3838 H         1 UNK         0.0814 
    114 H114      -52.1438  -27.7621   12.9193 H         1 UNK         0.0814 
    115 H115      -53.1583  -29.1720   13.1769 H         1 UNK         0.0814 
    116 H116      -49.9279  -27.7493   13.9890 H         1 UNK         0.3091 
    117 H117      -47.1354  -28.6548   15.9715 H         1 UNK         0.0702 
    118 H118      -46.0146  -28.1815   13.7977 H         1 UNK         0.0785 
    119 H119      -47.5415  -28.4189   12.9387 H         1 UNK         0.0785 
    120 H120      -46.7716  -29.7659   13.7653 H         1 UNK         0.0785 
    121 H121      -48.1304  -26.4286   14.2976 H         1 UNK         0.2998 
    122 H122      -49.1117  -24.4459   17.0882 H         1 UNK         0.0697 
    123 H123      -47.3798  -24.1631   14.5746 H         1 UNK         0.0825 
    124 H124      -46.8470  -23.9154   16.2281 H         1 UNK         0.0825 
    125 H125      -48.0532  -22.8472   15.5306 H         1 UNK         0.0825 
    126 H126      -50.8807  -24.4329   15.8026 H         1 UNK         0.3029 
    127 H127      -52.3304  -25.4236   13.8952 H         1 UNK         0.0897 
    128 H128      -52.1254  -22.9992   14.5958 H         1 UNK         0.0792 
    129 H129      -53.0396  -23.1153   13.1099 H         1 UNK         0.0792 
    130 H130      -51.3534  -22.6116   13.0624 H         1 UNK         0.0792 
    131 H131      -50.5842  -25.3038   11.6928 H         1 UNK         0.3086 
    132 H132      -51.7250  -26.4880    9.6164 H         1 UNK         0.0583 
    133 H133      -54.0553  -25.9428    8.8522 H         1 UNK         0.1020 
    134 H134      -53.5787  -24.2968    8.5488 H         1 UNK         0.1020 
    135 H135      -54.5190  -27.1690    6.4036 H         1 UNK         0.0694 
    136 H136      -53.0654  -27.8005    5.6698 H         1 UNK         0.0694 
    137 H137      -50.0513  -25.1538    9.0455 H         1 UNK         0.2989 
    138 H138      -49.6114  -21.7331    8.4640 H         1 UNK         0.1055 
    139 H139      -48.4576  -23.3815   10.7801 H         1 UNK         0.0806 
    140 H140      -49.1069  -21.7539   10.8806 H         1 UNK         0.0806 
    141 H141      -47.6239  -22.0470    9.9834 H         1 UNK         0.0806 
    142 H142      -47.9329  -24.1146    8.4215 H         1 UNK         0.3061 
    143 H143      -48.4796  -25.6184    6.0877 H         1 UNK         0.0734 
    144 H144      -47.7901  -23.3774    4.1148 H         1 UNK         0.0832 
    145 H145      -47.5030  -25.0955    3.8376 H         1 UNK         0.0832 
    146 H146      -49.1430  -24.4917    4.0046 H         1 UNK         0.0832 
    147 H147      -46.4121  -25.5567    6.7941 H         1 UNK         0.3156 
    148 H148      -43.6494  -23.6361    6.4216 H         1 UNK         0.0589 
    149 H149      -43.3612  -23.2146    8.8746 H         1 UNK         0.0808 
    150 H150      -44.3837  -21.9988    8.1289 H         1 UNK         0.0808 
    151 H151      -45.1108  -23.2716    9.0951 H         1 UNK         0.0808 
    152 H152      -44.5971  -25.5965    8.4021 H         1 UNK         0.3098 
    153 H153      -44.0362  -28.3917    6.3662 H         1 UNK         0.0720 
    154 H154      -41.6582  -27.9690    7.0156 H         1 UNK         0.0791 
    155 H155      -42.4008  -29.1591    8.0697 H         1 UNK         0.0791 
    156 H156      -42.1671  -27.5029    8.6324 H         1 UNK         0.0791 
    157 H157      -44.5017  -28.1997    9.1647 H         1 UNK         0.3028 
@<TRIPOS>BOND
     1    1    2 1    
     2    1   82 1    
     3    1   83 1    
     4    1   84 1    
     5    2    3 2    
     6    2    4 am   BACKBONE|DICT|INTERRES
     7    4    5 1    
     8    4   85 1    
     9    5    6 1    
    10    5   80 1    
    11    5   86 1    
    12    6    7 1    
    13    6   87 1    
    14    6   88 1    
    15    7    8 1    
    16    8    9 1    
    17    8   89 1    
    18    8   90 1    
    19    9   10 ar   
    20    9   14 ar   
    21   10   11 ar   
    22   10   91 1    
    23   11   12 ar   
    24   11   58 1    
    25   12   13 ar   
    26   12   92 1    
    27   13   14 ar   
    28   13   15 1    
    29   14   93 1    
    30   15   16 1    
    31   15   94 1    
    32   15   95 1    
    33   16   17 1    
    34   17   18 1    
    35   17   96 1    
    36   17   97 1    
    37   18   19 1    
    38   18   22 1    
    39   18   98 1    
    40   19   20 am   BACKBONE|DICT|INTERRES
    41   19   21 2    
    42   20   99 1    
    43   20  100 1    
    44   22   23 am   BACKBONE|DICT|INTERRES
    45   22  101 1    
    46   23   24 2    
    47   23   25 1    
    48   25   26 1    
    49   25   27 1    
    50   25  102 1    
    51   26  103 1    
    52   26  104 1    
    53   26  105 1    
    54   27   28 am   BACKBONE|DICT|INTERRES
    55   27  106 1    
    56   28   29 2    
    57   28   30 1    
    58   30   31 1    
    59   30   32 1    
    60   30  107 1    
    61   31  108 1    
    62   31  109 1    
    63   31  110 1    
    64   32   33 am   BACKBONE|DICT|INTERRES
    65   32  111 1    
    66   33   34 2    
    67   33   35 1    
    68   35   36 1    
    69   35   37 1    
    70   35  112 1    
    71   36  113 1    
    72   36  114 1    
    73   36  115 1    
    74   37   38 am   BACKBONE|DICT|INTERRES
    75   37  116 1    
    76   38   39 2    
    77   38   40 1    
    78   40   41 1    
    79   40   42 1    
    80   40  117 1    
    81   41  118 1    
    82   41  119 1    
    83   41  120 1    
    84   42   43 am   BACKBONE|DICT|INTERRES
    85   42  121 1    
    86   43   44 2    
    87   43   45 1    
    88   45   46 1    
    89   45   47 1    
    90   45  122 1    
    91   46  123 1    
    92   46  124 1    
    93   46  125 1    
    94   47   48 am   BACKBONE|DICT|INTERRES
    95   47  126 1    
    96   48   49 2    
    97   48   50 1    
    98   50   51 1    
    99   50   52 1    
   100   50  127 1    
   101   51  128 1    
   102   51  129 1    
   103   51  130 1    
   104   52   53 am   BACKBONE|DICT|INTERRES
   105   52  131 1    
   106   53   54 2    
   107   53   55 1    
   108   55   56 1    
   109   55   59 1    
   110   55  132 1    
   111   56   57 1    
   112   56  133 1    
   113   56  134 1    
   114   57   58 1    
   115   58  135 1    
   116   58  136 1    
   117   59   60 am   BACKBONE|DICT|INTERRES
   118   59  137 1    
   119   60   61 2    
   120   60   62 1    
   121   62   63 1    
   122   62   64 1    
   123   62  138 1    
   124   63  139 1    
   125   63  140 1    
   126   63  141 1    
   127   64   65 am   BACKBONE|DICT|INTERRES
   128   64  142 1    
   129   65   66 2    
   130   65   67 1    
   131   67   68 1    
   132   67   69 1    
   133   67  143 1    
   134   68  144 1    
   135   68  145 1    
   136   68  146 1    
   137   69   70 am   BACKBONE|DICT|INTERRES
   138   69  147 1    
   139   70   71 2    
   140   70   72 1    
   141   72   73 1    
   142   72   74 1    
   143   72  148 1    
   144   73  149 1    
   145   73  150 1    
   146   73  151 1    
   147   74   75 am   BACKBONE|DICT|INTERRES
   148   74  152 1    
   149   75   76 2    
   150   75   77 1    
   151   77   78 1    
   152   77   79 1    
   153   77  153 1    
   154   78  154 1    
   155   78  155 1    
   156   78  156 1    
   157   79   80 am   BACKBONE|DICT|INTERRES
   158   79  157 1    
   159   80   81 2    
@<TRIPOS>SUBSTRUCTURE
     1 UNK         1 GROUP             0       ****    0 ROOT    
