@<TRIPOS>MOLECULE
3R207
157   159    1
SMALL
USER_CHARGES


@<TRIPOS>ATOM
      1 CA        -51.4743  -21.5544   10.1408 C.3       0 UNK        -0.1975 
      2 C         -50.6117  -22.6301    9.5000 C.2       0 UNK         0.4852 
      3 O         -49.7209  -22.3110    8.7133 O.2       0 UNK        -0.5216 
      4 N         -50.8504  -23.9000    9.8576 N.am      1 UNK        -0.4461 
      5 CA        -50.1568  -25.1015    9.3673 C.3       1 UNK         0.0864 
      6 C6        -50.4453  -25.3889    7.8676 C.3       14 UNK        -0.0898 
      7 S7        -52.1969  -25.5726    7.3702 S.3       14 UNK        -0.2598 
      8 C8        -52.9907  -26.5258    8.7146 C.3       14 UNK         0.0286 
      9 C9        -52.4513  -27.9335    8.9808 C.ar      14 UNK        -0.0844 
     10 C10       -51.5060  -28.5670    8.1629 C.ar      14 UNK        -0.0881 
     11 C11       -50.9951  -29.8244    8.4977 C.ar      14 UNK        -0.0643 
     12 C12       -51.4929  -30.4890    9.6228 C.ar      14 UNK        -0.0930 
     13 C13       -52.4825  -29.9002   10.4158 C.ar      14 UNK        -0.0827 
     14 C14       -52.9392  -28.6187   10.0971 C.ar      14 UNK        -0.1249 
     15 C15       -53.1004  -30.6724   11.5752 C.3       14 UNK         0.0141 
     16 S16       -52.9335  -29.8251   13.1794 S.3       14 UNK        -0.2313 
     17 C17       -53.8389  -31.0019   14.2426 C.3       14 UNK        -0.0915 
     18 CA        -55.3313  -30.6023   14.4484 C.3       13 UNK         0.0968 
     19 C         -56.2092  -31.7632   15.0116 C.2       13 UNK         0.5732 
     20 N         -57.2684  -31.4852   15.7630 N.am      13 UNK        -0.7310 
     21 O         -55.9548  -32.9340   14.7376 O.2       13 UNK        -0.5035 
     22 N         -55.4891  -29.3179   15.1532 N.am      13 UNK        -0.4233 
     23 C         -55.1615  -29.0612   16.4289 C.2       13 UNK         0.4989 
     24 O         -54.6751  -29.8956   17.1932 O.2       13 UNK        -0.4996 
     25 CA        -55.4167  -27.6387   16.9607 C.3       12 UNK         0.0216 
     26 CB        -54.0839  -26.9347   17.2617 C.3       12 UNK        -0.1964 
     27 N         -56.1806  -26.8190   16.0172 N.am      12 UNK        -0.4276 
     28 C         -57.5110  -26.6573   16.0442 C.2       12 UNK         0.5020 
     29 O         -58.2392  -27.1352   16.9149 O.2       12 UNK        -0.5489 
     30 CA        -58.1496  -25.8381   14.9042 C.3       11 UNK         0.0294 
     31 CB        -58.3515  -24.3786   15.3428 C.3       11 UNK        -0.2019 
     32 N         -57.3856  -25.8625   13.6527 N.am      11 UNK        -0.4493 
     33 C         -57.1567  -26.9584   12.9154 C.2       11 UNK         0.4932 
     34 O         -57.6107  -28.0702   13.1843 O.2       11 UNK        -0.5029 
     35 CA        -56.2090  -26.8105   11.7114 C.3       10 UNK         0.0280 
     36 CB        -57.0082  -26.5225   10.4310 C.3       10 UNK        -0.1976 
     37 N         -55.1485  -25.8019   11.8636 N.am      10 UNK        -0.4242 
     38 C         -54.2671  -25.7414   12.8727 C.2       10 UNK         0.5072 
     39 O         -54.3117  -26.4669   13.8696 O.2       10 UNK        -0.5224 
     40 CA        -53.1762  -24.6683   12.7735 C.3       9 UNK         0.0343 
     41 CB        -53.7361  -23.2662   13.0713 C.3       9 UNK        -0.2003 
     42 N         -52.1403  -25.0021   13.7417 N.am      9 UNK        -0.4272 
     43 C         -50.8415  -24.6937   13.6804 C.2       9 UNK         0.4988 
     44 O         -50.3384  -24.0073   12.7879 O.2       9 UNK        -0.5108 
     45 CA        -49.9400  -25.2406   14.8095 C.3       8 UNK         0.0248 
     46 CB        -50.6817  -26.1108   15.8492 C.3       8 UNK        -0.2001 
     47 N         -48.7653  -25.9674   14.3144 N.am      8 UNK        -0.4140 
     48 C         -48.7428  -26.9543   13.4077 C.2       8 UNK         0.5028 
     49 O         -49.7260  -27.3734   12.7907 O.2       8 UNK        -0.5428 
     50 CA        -47.3797  -27.6031   13.1573 C.3       7 UNK         0.0264 
     51 CB        -47.0930  -28.7105   14.1876 C.3       7 UNK        -0.1988 
     52 N         -47.4074  -28.1632   11.8132 N.am      7 UNK        -0.4454 
     53 C         -46.3433  -28.3562   11.0284 C.2       7 UNK         0.5027 
     54 O         -45.1876  -28.1836   11.4229 O.2       7 UNK        -0.5083 
     55 CA        -46.5957  -28.7766    9.5608 C.3       6 UNK         0.0844 
     56 C56       -48.1013  -28.9359    9.2118 C.3       14 UNK        -0.0967 
     57 S57       -48.4178  -29.4068    7.4785 S.3       14 UNK        -0.2604 
     58 C58       -49.9000  -30.4642    7.6482 C.3       14 UNK         0.0134 
     59 N         -45.9119  -27.7945    8.7156 N.am      6 UNK        -0.4116 
     60 C         -44.6363  -27.9002    8.3136 C.2       5 UNK         0.5034 
     61 O         -43.9772  -28.9392    8.3965 O.2       5 UNK        -0.5045 
     62 CA        -43.9578  -26.6202    7.7870 C.3       5 UNK         0.0224 
     63 CB        -42.7480  -26.9034    6.8689 C.3       5 UNK        -0.1978 
     64 N         -44.8873  -25.6662    7.1755 N.am      5 UNK        -0.4737 
     65 C         -45.5718  -25.8062    6.0303 C.2       4 UNK         0.5027 
     66 O         -45.4811  -26.7881    5.2933 O.2       4 UNK        -0.5211 
     67 CA        -46.5302  -24.6639    5.6412 C.3       4 UNK         0.0297 
     68 CB        -47.9108  -25.2198    5.2558 C.3       4 UNK        -0.1993 
     69 N         -46.6869  -23.6857    6.7237 N.am      4 UNK        -0.4486 
     70 C         -45.9764  -22.5544    6.8425 C.2       3 UNK         0.4961 
     71 O         -45.1597  -22.1718    6.0046 O.2       3 UNK        -0.5105 
     72 CA        -46.1821  -21.7120    8.1152 C.3       3 UNK         0.0299 
     73 CB        -47.0617  -20.4877    7.8151 C.3       3 UNK        -0.1972 
     74 N         -46.7579  -22.4727    9.2294 N.am      3 UNK        -0.4305 
     75 C         -46.0690  -23.3496    9.9786 C.2       2 UNK         0.5006 
     76 O         -44.8769  -23.6018    9.8020 O.2       2 UNK        -0.5106 
     77 CA        -46.8355  -24.1106   11.0811 C.3       2 UNK         0.0296 
     78 CB        -46.7837  -23.3253   12.4006 C.3       2 UNK        -0.2002 
     79 N         -48.2327  -24.4040   10.7476 N.am      2 UNK        -0.4032 
     80 C         -48.6346  -25.0592    9.6485 C.2       1 UNK         0.5000 
     81 O         -47.8422  -25.5680    8.8503 O.2       1 UNK        -0.5238 
     82 H82       -51.8314  -20.8588    9.3819 H         1 UNK         0.0889 
     83 H83       -50.8921  -20.9945   10.8721 H         1 UNK         0.0889 
     84 H84       -52.3426  -21.9773   10.6447 H         1 UNK         0.0889 
     85 H85       -51.5234  -24.0665   10.5897 H         1 UNK         0.3028 
     86 H86       -50.5264  -25.9407    9.9577 H         1 UNK         0.0864 
     87 H87       -49.9281  -26.2967    7.5599 H         1 UNK         0.0720 
     88 H88       -50.0256  -24.5918    7.2523 H         1 UNK         0.0720 
     89 H89       -54.0502  -26.6142    8.4712 H         1 UNK         0.0814 
     90 H90       -52.9425  -25.9415    9.6326 H         1 UNK         0.0814 
     91 H91       -51.1378  -28.0880    7.2689 H         1 UNK         0.1469 
     92 H92       -51.1221  -31.4741    9.8708 H         1 UNK         0.1381 
     93 H93       -53.6867  -28.1558   10.7235 H         1 UNK         0.1206 
     94 H94       -52.6528  -31.6643   11.6543 H         1 UNK         0.0813 
     95 H95       -54.1592  -30.8278   11.3634 H         1 UNK         0.0813 
     96 H96       -53.7556  -31.9934   13.7948 H         1 UNK         0.0638 
     97 H97       -53.3220  -31.0705   15.2004 H         1 UNK         0.0638 
     98 H98       -55.7501  -30.4280   13.4568 H         1 UNK         0.0568 
     99 H99       -57.5048  -30.5305   15.9805 H         1 UNK         0.3450 
    100 H100      -57.8368  -32.2403   16.1124 H         1 UNK         0.3450 
    101 H101      -55.9098  -28.5795   14.6069 H         1 UNK         0.2987 
    102 H102      -55.9673  -27.7341   17.8989 H         1 UNK         0.0766 
    103 H103      -54.2413  -25.9237   17.6378 H         1 UNK         0.0798 
    104 H104      -53.4619  -26.8717   16.3701 H         1 UNK         0.0798 
    105 H105      -53.5150  -27.4781   18.0173 H         1 UNK         0.0798 
    106 H106      -55.6494  -26.4416   15.2357 H         1 UNK         0.3198 
    107 H107      -59.1303  -26.2743   14.7021 H         1 UNK         0.0843 
    108 H108      -57.4015  -23.8798   15.5388 H         1 UNK         0.0831 
    109 H109      -58.9416  -24.3255   16.2590 H         1 UNK         0.0831 
    110 H110      -58.8843  -23.8048   14.5843 H         1 UNK         0.0831 
    111 H111      -56.9689  -24.9925   13.3548 H         1 UNK         0.3133 
    112 H112      -55.7181  -27.7772   11.5900 H         1 UNK         0.0566 
    113 H113      -56.3710  -26.5532    9.5473 H         1 UNK         0.0814 
    114 H114      -57.7929  -27.2664   10.2846 H         1 UNK         0.0814 
    115 H115      -57.4899  -25.5445   10.4662 H         1 UNK         0.0814 
    116 H116      -55.0681  -25.1301   11.1142 H         1 UNK         0.3091 
    117 H117      -52.7553  -24.7008   11.7691 H         1 UNK         0.0702 
    118 H118      -54.4893  -22.9746   12.3385 H         1 UNK         0.0785 
    119 H119      -54.2023  -23.2219   14.0566 H         1 UNK         0.0785 
    120 H120      -52.9503  -22.5110   13.0445 H         1 UNK         0.0785 
    121 H121      -52.4596  -25.6432   14.4577 H         1 UNK         0.2998 
    122 H122      -49.5565  -24.3623   15.3307 H         1 UNK         0.0697 
    123 H123      -51.1219  -27.0016   15.3975 H         1 UNK         0.0825 
    124 H124      -51.4744  -25.5470   16.3421 H         1 UNK         0.0825 
    125 H125      -50.0034  -26.4454   16.6343 H         1 UNK         0.0825 
    126 H126      -47.8890  -25.6976   14.7386 H         1 UNK         0.3029 
    127 H127      -46.6074  -26.8324   13.2147 H         1 UNK         0.0897 
    128 H128      -47.8503  -29.4950   14.1544 H         1 UNK         0.0792 
    129 H129      -47.0812  -28.3099   15.2020 H         1 UNK         0.0792 
    130 H130      -46.1224  -29.1750   14.0128 H         1 UNK         0.0792 
    131 H131      -48.3484  -28.2855   11.4573 H         1 UNK         0.3086 
    132 H132      -46.1316  -29.7567    9.4339 H         1 UNK         0.0583 
    133 H133      -48.5422  -29.7006    9.8543 H         1 UNK         0.1020 
    134 H134      -48.6563  -28.0170    9.4004 H         1 UNK         0.1020 
    135 H135      -50.2978  -30.6780    6.6554 H         1 UNK         0.0694 
    136 H136      -49.5941  -31.4226    8.0706 H         1 UNK         0.0694 
    137 H137      -46.3948  -26.9087    8.6010 H         1 UNK         0.2989 
    138 H138      -43.5722  -26.1183    8.6763 H         1 UNK         0.1055 
    139 H139      -41.9780  -27.4647    7.3998 H         1 UNK         0.0806 
    140 H140      -42.2885  -25.9787    6.5200 H         1 UNK         0.0806 
    141 H141      -43.0289  -27.4911    5.9946 H         1 UNK         0.0806 
    142 H142      -45.0476  -24.8218    7.7097 H         1 UNK         0.3061 
    143 H143      -46.1103  -24.1735    4.7605 H         1 UNK         0.0734 
    144 H144      -48.6383  -24.4241    5.0957 H         1 UNK         0.0832 
    145 H145      -47.8517  -25.7956    4.3314 H         1 UNK         0.0832 
    146 H146      -48.2955  -25.8904    6.0228 H         1 UNK         0.0832 
    147 H147      -47.3035  -23.9574    7.4806 H         1 UNK         0.3156 
    148 H148      -45.2009  -21.3467    8.4264 H         1 UNK         0.0589 
    149 H149      -46.5945  -19.8499    7.0636 H         1 UNK         0.0808 
    150 H150      -48.0399  -20.7753    7.4292 H         1 UNK         0.0808 
    151 H151      -47.2162  -19.8785    8.7057 H         1 UNK         0.0808 
    152 H152      -47.7566  -22.3639    9.3767 H         1 UNK         0.3098 
    153 H153      -46.3294  -25.0668   11.2284 H         1 UNK         0.0720 
    154 H154      -45.7532  -23.1176   12.6923 H         1 UNK         0.0791 
    155 H155      -47.2439  -23.8814   13.2158 H         1 UNK         0.0791 
    156 H156      -47.3002  -22.3679   12.3192 H         1 UNK         0.0791 
    157 H157      -48.9453  -24.0511   11.3819 H         1 UNK         0.3028 
@<TRIPOS>BOND
     1    1    2 1    
     2    1   82 1    
     3    1   83 1    
     4    1   84 1    
     5    2    3 2    
     6    2    4 am   BACKBONE|DICT|INTERRES
     7    4    5 1    
     8    4   85 1    
     9    5    6 1    
    10    5   80 1    
    11    5   86 1    
    12    6    7 1    
    13    6   87 1    
    14    6   88 1    
    15    7    8 1    
    16    8    9 1    
    17    8   89 1    
    18    8   90 1    
    19    9   10 ar   
    20    9   14 ar   
    21   10   11 ar   
    22   10   91 1    
    23   11   12 ar   
    24   11   58 1    
    25   12   13 ar   
    26   12   92 1    
    27   13   14 ar   
    28   13   15 1    
    29   14   93 1    
    30   15   16 1    
    31   15   94 1    
    32   15   95 1    
    33   16   17 1    
    34   17   18 1    
    35   17   96 1    
    36   17   97 1    
    37   18   19 1    
    38   18   22 1    
    39   18   98 1    
    40   19   20 am   BACKBONE|DICT|INTERRES
    41   19   21 2    
    42   20   99 1    
    43   20  100 1    
    44   22   23 am   BACKBONE|DICT|INTERRES
    45   22  101 1    
    46   23   24 2    
    47   23   25 1    
    48   25   26 1    
    49   25   27 1    
    50   25  102 1    
    51   26  103 1    
    52   26  104 1    
    53   26  105 1    
    54   27   28 am   BACKBONE|DICT|INTERRES
    55   27  106 1    
    56   28   29 2    
    57   28   30 1    
    58   30   31 1    
    59   30   32 1    
    60   30  107 1    
    61   31  108 1    
    62   31  109 1    
    63   31  110 1    
    64   32   33 am   BACKBONE|DICT|INTERRES
    65   32  111 1    
    66   33   34 2    
    67   33   35 1    
    68   35   36 1    
    69   35   37 1    
    70   35  112 1    
    71   36  113 1    
    72   36  114 1    
    73   36  115 1    
    74   37   38 am   BACKBONE|DICT|INTERRES
    75   37  116 1    
    76   38   39 2    
    77   38   40 1    
    78   40   41 1    
    79   40   42 1    
    80   40  117 1    
    81   41  118 1    
    82   41  119 1    
    83   41  120 1    
    84   42   43 am   BACKBONE|DICT|INTERRES
    85   42  121 1    
    86   43   44 2    
    87   43   45 1    
    88   45   46 1    
    89   45   47 1    
    90   45  122 1    
    91   46  123 1    
    92   46  124 1    
    93   46  125 1    
    94   47   48 am   BACKBONE|DICT|INTERRES
    95   47  126 1    
    96   48   49 2    
    97   48   50 1    
    98   50   51 1    
    99   50   52 1    
   100   50  127 1    
   101   51  128 1    
   102   51  129 1    
   103   51  130 1    
   104   52   53 am   BACKBONE|DICT|INTERRES
   105   52  131 1    
   106   53   54 2    
   107   53   55 1    
   108   55   56 1    
   109   55   59 1    
   110   55  132 1    
   111   56   57 1    
   112   56  133 1    
   113   56  134 1    
   114   57   58 1    
   115   58  135 1    
   116   58  136 1    
   117   59   60 am   BACKBONE|DICT|INTERRES
   118   59  137 1    
   119   60   61 2    
   120   60   62 1    
   121   62   63 1    
   122   62   64 1    
   123   62  138 1    
   124   63  139 1    
   125   63  140 1    
   126   63  141 1    
   127   64   65 am   BACKBONE|DICT|INTERRES
   128   64  142 1    
   129   65   66 2    
   130   65   67 1    
   131   67   68 1    
   132   67   69 1    
   133   67  143 1    
   134   68  144 1    
   135   68  145 1    
   136   68  146 1    
   137   69   70 am   BACKBONE|DICT|INTERRES
   138   69  147 1    
   139   70   71 2    
   140   70   72 1    
   141   72   73 1    
   142   72   74 1    
   143   72  148 1    
   144   73  149 1    
   145   73  150 1    
   146   73  151 1    
   147   74   75 am   BACKBONE|DICT|INTERRES
   148   74  152 1    
   149   75   76 2    
   150   75   77 1    
   151   77   78 1    
   152   77   79 1    
   153   77  153 1    
   154   78  154 1    
   155   78  155 1    
   156   78  156 1    
   157   79   80 am   BACKBONE|DICT|INTERRES
   158   79  157 1    
   159   80   81 2    
@<TRIPOS>SUBSTRUCTURE
     1 UNK         1 GROUP             0       ****    0 ROOT    
