@<TRIPOS>MOLECULE
3R207
157   159    1
SMALL
USER_CHARGES


@<TRIPOS>ATOM
      1 CA        -48.1541  -31.0633    4.3190 C.3       0 UNK        -0.1975 
      2 C         -48.7065  -29.8534    5.0572 C.2       0 UNK         0.4852 
      3 O         -49.6341  -29.2071    4.5679 O.2       0 UNK        -0.5216 
      4 N         -48.1362  -29.5290    6.2249 N.am      1 UNK        -0.4461 
      5 CA        -48.5340  -28.4266    7.1114 C.3       1 UNK         0.0864 
      6 C6        -48.0609  -28.6911    8.5666 C.3       14 UNK        -0.0898 
      7 S7        -49.0811  -29.9493    9.4028 S.3       14 UNK        -0.2598 
      8 C8        -50.0199  -28.9272   10.5880 C.3       14 UNK         0.0286 
      9 C9        -51.1949  -28.2090    9.9350 C.ar      14 UNK        -0.0844 
     10 C10       -50.9905  -27.0419    9.1922 C.ar      14 UNK        -0.0881 
     11 C11       -52.0652  -26.3498    8.6201 C.ar      14 UNK        -0.0643 
     12 C12       -53.3582  -26.8467    8.8080 C.ar      14 UNK        -0.0930 
     13 C13       -53.5813  -28.0145    9.5439 C.ar      14 UNK        -0.0827 
     14 C14       -52.4948  -28.6951   10.1000 C.ar      14 UNK        -0.1249 
     15 C15       -54.9990  -28.5347    9.7287 C.3       14 UNK         0.0141 
     16 S16       -55.7254  -27.9338   11.2855 S.3       14 UNK        -0.2313 
     17 C17       -55.2916  -29.2704   12.4524 C.3       14 UNK        -0.0915 
     18 CA        -56.5518  -29.9990   12.9929 C.3       13 UNK         0.0968 
     19 C         -56.1764  -31.2598   13.8268 C.2       13 UNK         0.5732 
     20 N         -56.5930  -31.3945   15.0817 N.am      13 UNK        -0.7310 
     21 O         -55.4996  -32.1488   13.3159 O.2       13 UNK        -0.5035 
     22 N         -57.4567  -29.0730   13.6904 N.am      13 UNK        -0.4233 
     23 C         -58.7802  -29.2460   13.8088 C.2       13 UNK         0.4989 
     24 O         -59.3977  -30.1573   13.2542 O.2       13 UNK        -0.4996 
     25 CA        -59.5446  -28.2377   14.6968 C.3       12 UNK         0.0216 
     26 CB        -60.8513  -28.8270   15.2708 C.3       12 UNK        -0.1964 
     27 N         -58.7294  -27.6533   15.7722 N.am      12 UNK        -0.4276 
     28 C         -58.0734  -28.3167   16.7351 C.2       12 UNK         0.5020 
     29 O         -58.0916  -29.5425   16.8732 O.2       12 UNK        -0.5489 
     30 CA        -57.1945  -27.4669   17.6682 C.3       11 UNK         0.0294 
     31 CB        -57.7268  -27.5110   19.1099 C.3       11 UNK        -0.2019 
     32 N         -55.8012  -27.9212   17.6464 N.am      11 UNK        -0.4493 
     33 C         -55.0264  -27.9665   16.5539 C.2       11 UNK         0.4932 
     34 O         -55.3929  -27.5861   15.4386 O.2       11 UNK        -0.5029 
     35 CA        -53.6256  -28.5741   16.7467 C.3       10 UNK         0.0280 
     36 CB        -53.7032  -30.1072   16.8377 C.3       10 UNK        -0.1976 
     37 N         -52.7118  -28.2180   15.6606 N.am      10 UNK        -0.4242 
     38 C         -52.1636  -27.0102   15.4858 C.2       10 UNK         0.5072 
     39 O         -52.3326  -26.0549   16.2492 O.2       10 UNK        -0.5224 
     40 CA        -51.2880  -26.8458   14.2308 C.3       9 UNK         0.0343 
     41 CB        -52.1260  -26.3058   13.0611 C.3       9 UNK        -0.2003 
     42 N         -50.1450  -25.9599   14.4729 N.am      9 UNK        -0.4272 
     43 C         -49.1187  -26.2609   15.2860 C.2       9 UNK         0.4988 
     44 O         -49.0159  -27.3448   15.8643 O.2       9 UNK        -0.5108 
     45 CA        -48.0180  -25.2021   15.4971 C.3       8 UNK         0.0248 
     46 CB        -46.6138  -25.8353   15.4741 C.3       8 UNK        -0.2001 
     47 N         -48.0676  -24.1512   14.4816 N.am      8 UNK        -0.4140 
     48 C         -48.3491  -22.8589   14.7012 C.2       8 UNK         0.5028 
     49 O         -48.5783  -22.3889   15.8163 O.2       8 UNK        -0.5428 
     50 CA        -48.3877  -21.9193   13.4767 C.3       7 UNK         0.0264 
     51 CB        -47.1182  -21.0539   13.4260 C.3       7 UNK        -0.1988 
     52 N         -48.5409  -22.6149   12.1945 N.am      7 UNK        -0.4454 
     53 C         -49.6243  -23.3258   11.8412 C.2       7 UNK         0.5027 
     54 O         -50.6417  -23.3883   12.5310 O.2       7 UNK        -0.5083 
     55 CA        -49.5471  -24.1590   10.5427 C.3       6 UNK         0.0844 
     56 C56       -50.2658  -23.4099    9.3938 C.3       14 UNK        -0.0967 
     57 S57       -50.2404  -24.3038    7.8051 S.3       14 UNK        -0.2604 
     58 C58       -51.8897  -25.0912    7.7644 C.3       14 UNK         0.0134 
     59 N         -48.1771  -24.5677   10.1990 N.am      6 UNK        -0.4116 
     60 C         -47.3511  -25.2658   10.9931 C.2       5 UNK         0.5034 
     61 O         -47.7093  -25.7772   12.0536 O.2       5 UNK        -0.5045 
     62 CA        -45.8605  -25.3396   10.6078 C.3       5 UNK         0.0224 
     63 CB        -45.4431  -26.7668   10.2207 C.3       5 UNK        -0.1978 
     64 N         -45.4298  -24.4113    9.5566 N.am      5 UNK        -0.4737 
     65 C         -45.4904  -23.0744    9.5940 C.2       4 UNK         0.5027 
     66 O         -45.9823  -22.4497   10.5349 O.2       4 UNK        -0.5211 
     67 CA        -44.9641  -22.2955    8.3711 C.3       4 UNK         0.0297 
     68 CB        -43.5747  -21.6951    8.6612 C.3       4 UNK        -0.1993 
     69 N         -44.9777  -23.0360    7.0954 N.am      4 UNK        -0.4486 
     70 C         -44.2392  -24.0926    6.7211 C.2       3 UNK         0.4961 
     71 O         -43.4084  -24.6419    7.4447 O.2       3 UNK        -0.5105 
     72 CA        -44.5635  -24.6769    5.3397 C.3       3 UNK         0.0299 
     73 CB        -43.6799  -25.8817    4.9601 C.3       3 UNK        -0.1972 
     74 N         -45.9679  -25.0684    5.3460 N.am      3 UNK        -0.4305 
     75 C         -46.8003  -25.1059    4.3047 C.2       2 UNK         0.5006 
     76 O         -46.4550  -24.8619    3.1469 O.2       2 UNK        -0.5106 
     77 CA        -48.2699  -25.4563    4.6263 C.3       2 UNK         0.0296 
     78 CB        -49.1673  -25.4512    3.3746 C.3       2 UNK        -0.2002 
     79 N         -48.4527  -26.7341    5.3255 N.am      2 UNK        -0.4032 
     80 C         -48.0897  -27.0417    6.5787 C.2       1 UNK         0.5000 
     81 O         -47.4493  -26.2746    7.3029 O.2       1 UNK        -0.5238 
     82 H82       -48.9397  -31.8046    4.1752 H         1 UNK         0.0889 
     83 H83       -47.3374  -31.5363    4.8640 H         1 UNK         0.0889 
     84 H84       -47.7815  -30.7667    3.3389 H         1 UNK         0.0889 
     85 H85       -47.3686  -30.0920    6.5629 H         1 UNK         0.3028 
     86 H86       -49.6256  -28.3888    7.1192 H         1 UNK         0.0864 
     87 H87       -48.0786  -27.7884    9.1765 H         1 UNK         0.0720 
     88 H88       -47.0219  -29.0240    8.5762 H         1 UNK         0.0720 
     89 H89       -49.3606  -28.2042   11.0719 H         1 UNK         0.0814 
     90 H90       -50.3806  -29.5759   11.3876 H         1 UNK         0.0814 
     91 H91       -49.9855  -26.6740    9.0633 H         1 UNK         0.1469 
     92 H92       -54.1986  -26.3233    8.3726 H         1 UNK         0.1381 
     93 H93       -52.6622  -29.5974   10.6711 H         1 UNK         0.1206 
     94 H94       -55.0173  -29.6248    9.6901 H         1 UNK         0.0813 
     95 H95       -55.6272  -28.1983    8.9025 H         1 UNK         0.0813 
     96 H96       -54.7126  -28.8403   13.2695 H         1 UNK         0.0638 
     97 H97       -54.6251  -29.9773   11.9573 H         1 UNK         0.0638 
     98 H98       -57.0848  -30.3874   12.1231 H         1 UNK         0.0568 
     99 H99       -56.3458  -32.2286   15.5885 H         1 UNK         0.3450 
    100 H100      -57.1563  -30.6826   15.5356 H         1 UNK         0.3450 
    101 H101      -57.0020  -28.3261   14.2020 H         1 UNK         0.2987 
    102 H102      -59.8176  -27.4116   14.0386 H         1 UNK         0.0766 
    103 H103      -61.5277  -29.1366   14.4730 H         1 UNK         0.0798 
    104 H104      -61.3845  -28.0949   15.8773 H         1 UNK         0.0798 
    105 H105      -60.6603  -29.7023   15.8928 H         1 UNK         0.0798 
    106 H106      -58.6170  -26.6490   15.7300 H         1 UNK         0.3198 
    107 H107      -57.2085  -26.4288   17.3291 H         1 UNK         0.0843 
    108 H108      -57.7103  -28.5236   19.5156 H         1 UNK         0.0831 
    109 H109      -58.7589  -27.1604   19.1545 H         1 UNK         0.0831 
    110 H110      -57.1404  -26.8732   19.7715 H         1 UNK         0.0831 
    111 H111      -55.4349  -28.2869   18.5134 H         1 UNK         0.3133 
    112 H112      -53.2147  -28.1903   17.6830 H         1 UNK         0.0566 
    113 H113      -52.7319  -30.5379   17.0816 H         1 UNK         0.0814 
    114 H114      -54.0366  -30.5496   15.8992 H         1 UNK         0.0814 
    115 H115      -54.4000  -30.4273   17.6136 H         1 UNK         0.0814 
    116 H116      -52.5438  -28.9297   14.9656 H         1 UNK         0.3091 
    117 H117      -50.8951  -27.8241   13.9452 H         1 UNK         0.0702 
    118 H118      -51.5390  -26.2456   12.1464 H         1 UNK         0.0785 
    119 H119      -52.5228  -25.3123   13.2737 H         1 UNK         0.0785 
    120 H120      -52.9760  -26.9567   12.8514 H         1 UNK         0.0785 
    121 H121      -50.1914  -25.0383   14.0586 H         1 UNK         0.2998 
    122 H122      -48.1822  -24.7794   16.4900 H         1 UNK         0.0697 
    123 H123      -46.4132  -26.3318   14.5237 H         1 UNK         0.0825 
    124 H124      -46.5033  -26.5809   16.2625 H         1 UNK         0.0825 
    125 H125      -45.8384  -25.0855   15.6310 H         1 UNK         0.0825 
    126 H126      -47.9176  -24.4711   13.5295 H         1 UNK         0.3029 
    127 H127      -49.2487  -21.2595   13.6037 H         1 UNK         0.0897 
    128 H128      -46.2224  -21.6616   13.2909 H         1 UNK         0.0792 
    129 H129      -46.9928  -20.4870   14.3496 H         1 UNK         0.0792 
    130 H130      -47.1600  -20.3345   12.6079 H         1 UNK         0.0792 
    131 H131      -47.7341  -22.6025   11.5759 H         1 UNK         0.3086 
    132 H132      -50.1003  -25.0728   10.7503 H         1 UNK         0.0583 
    133 H133      -51.3022  -23.2003    9.6667 H         1 UNK         0.1020 
    134 H134      -49.7996  -22.4366    9.2274 H         1 UNK         0.1020 
    135 H135      -52.6418  -24.3503    8.0397 H         1 UNK         0.0694 
    136 H136      -52.0970  -25.3636    6.7287 H         1 UNK         0.0694 
    137 H137      -47.8125  -24.2236    9.3226 H         1 UNK         0.2989 
    138 H138      -45.3123  -25.0695   11.5129 H         1 UNK         0.1055 
    139 H139      -45.7877  -27.0293    9.2220 H         1 UNK         0.0806 
    140 H140      -45.8444  -27.5055   10.9165 H         1 UNK         0.0806 
    141 H141      -44.3582  -26.8724   10.2300 H         1 UNK         0.0806 
    142 H142      -44.9511  -24.8194    8.7616 H         1 UNK         0.3061 
    143 H143      -45.6537  -21.4617    8.2296 H         1 UNK         0.0734 
    144 H144      -42.8275  -22.4657    8.8525 H         1 UNK         0.0832 
    145 H145      -43.2236  -21.0850    7.8292 H         1 UNK         0.0832 
    146 H146      -43.6064  -21.0530    9.5426 H         1 UNK         0.0832 
    147 H147      -45.6625  -22.7068    6.4278 H         1 UNK         0.3156 
    148 H148      -44.4085  -23.8832    4.6059 H         1 UNK         0.0589 
    149 H149      -43.9116  -26.2434    3.9583 H         1 UNK         0.0808 
    150 H150      -42.6236  -25.6102    4.9704 H         1 UNK         0.0808 
    151 H151      -43.8127  -26.7123    5.6546 H         1 UNK         0.0808 
    152 H152      -46.3574  -25.3396    6.2501 H         1 UNK         0.3098 
    153 H153      -48.6322  -24.6674    5.2877 H         1 UNK         0.0720 
    154 H154      -48.8772  -26.2308    2.6690 H         1 UNK         0.0791 
    155 H155      -49.1082  -24.4958    2.8514 H         1 UNK         0.0791 
    156 H156      -50.2138  -25.6084    3.6371 H         1 UNK         0.0791 
    157 H157      -48.9542  -27.4580    4.8168 H         1 UNK         0.3028 
@<TRIPOS>BOND
     1    1    2 1    
     2    1   82 1    
     3    1   83 1    
     4    1   84 1    
     5    2    3 2    
     6    2    4 am   BACKBONE|DICT|INTERRES
     7    4    5 1    
     8    4   85 1    
     9    5    6 1    
    10    5   80 1    
    11    5   86 1    
    12    6    7 1    
    13    6   87 1    
    14    6   88 1    
    15    7    8 1    
    16    8    9 1    
    17    8   89 1    
    18    8   90 1    
    19    9   10 ar   
    20    9   14 ar   
    21   10   11 ar   
    22   10   91 1    
    23   11   12 ar   
    24   11   58 1    
    25   12   13 ar   
    26   12   92 1    
    27   13   14 ar   
    28   13   15 1    
    29   14   93 1    
    30   15   16 1    
    31   15   94 1    
    32   15   95 1    
    33   16   17 1    
    34   17   18 1    
    35   17   96 1    
    36   17   97 1    
    37   18   19 1    
    38   18   22 1    
    39   18   98 1    
    40   19   20 am   BACKBONE|DICT|INTERRES
    41   19   21 2    
    42   20   99 1    
    43   20  100 1    
    44   22   23 am   BACKBONE|DICT|INTERRES
    45   22  101 1    
    46   23   24 2    
    47   23   25 1    
    48   25   26 1    
    49   25   27 1    
    50   25  102 1    
    51   26  103 1    
    52   26  104 1    
    53   26  105 1    
    54   27   28 am   BACKBONE|DICT|INTERRES
    55   27  106 1    
    56   28   29 2    
    57   28   30 1    
    58   30   31 1    
    59   30   32 1    
    60   30  107 1    
    61   31  108 1    
    62   31  109 1    
    63   31  110 1    
    64   32   33 am   BACKBONE|DICT|INTERRES
    65   32  111 1    
    66   33   34 2    
    67   33   35 1    
    68   35   36 1    
    69   35   37 1    
    70   35  112 1    
    71   36  113 1    
    72   36  114 1    
    73   36  115 1    
    74   37   38 am   BACKBONE|DICT|INTERRES
    75   37  116 1    
    76   38   39 2    
    77   38   40 1    
    78   40   41 1    
    79   40   42 1    
    80   40  117 1    
    81   41  118 1    
    82   41  119 1    
    83   41  120 1    
    84   42   43 am   BACKBONE|DICT|INTERRES
    85   42  121 1    
    86   43   44 2    
    87   43   45 1    
    88   45   46 1    
    89   45   47 1    
    90   45  122 1    
    91   46  123 1    
    92   46  124 1    
    93   46  125 1    
    94   47   48 am   BACKBONE|DICT|INTERRES
    95   47  126 1    
    96   48   49 2    
    97   48   50 1    
    98   50   51 1    
    99   50   52 1    
   100   50  127 1    
   101   51  128 1    
   102   51  129 1    
   103   51  130 1    
   104   52   53 am   BACKBONE|DICT|INTERRES
   105   52  131 1    
   106   53   54 2    
   107   53   55 1    
   108   55   56 1    
   109   55   59 1    
   110   55  132 1    
   111   56   57 1    
   112   56  133 1    
   113   56  134 1    
   114   57   58 1    
   115   58  135 1    
   116   58  136 1    
   117   59   60 am   BACKBONE|DICT|INTERRES
   118   59  137 1    
   119   60   61 2    
   120   60   62 1    
   121   62   63 1    
   122   62   64 1    
   123   62  138 1    
   124   63  139 1    
   125   63  140 1    
   126   63  141 1    
   127   64   65 am   BACKBONE|DICT|INTERRES
   128   64  142 1    
   129   65   66 2    
   130   65   67 1    
   131   67   68 1    
   132   67   69 1    
   133   67  143 1    
   134   68  144 1    
   135   68  145 1    
   136   68  146 1    
   137   69   70 am   BACKBONE|DICT|INTERRES
   138   69  147 1    
   139   70   71 2    
   140   70   72 1    
   141   72   73 1    
   142   72   74 1    
   143   72  148 1    
   144   73  149 1    
   145   73  150 1    
   146   73  151 1    
   147   74   75 am   BACKBONE|DICT|INTERRES
   148   74  152 1    
   149   75   76 2    
   150   75   77 1    
   151   77   78 1    
   152   77   79 1    
   153   77  153 1    
   154   78  154 1    
   155   78  155 1    
   156   78  156 1    
   157   79   80 am   BACKBONE|DICT|INTERRES
   158   79  157 1    
   159   80   81 2    
@<TRIPOS>SUBSTRUCTURE
     1 UNK         1 GROUP             0       ****    0 ROOT    
