@<TRIPOS>MOLECULE
3R207
157   159    1
SMALL
USER_CHARGES


@<TRIPOS>ATOM
      1 CA        -50.1137  -26.7353    8.6134 C.3       0 UNK        -0.1975 
      2 C         -49.4389  -27.7173    7.6806 C.2       0 UNK         0.4852 
      3 O         -48.7540  -27.3058    6.7435 O.2       0 UNK        -0.5216 
      4 N         -49.6166  -29.0163    7.9592 N.am      1 UNK        -0.4461 
      5 CA        -49.1011  -30.1519    7.1797 C.3       1 UNK         0.0864 
      6 C6        -49.7720  -30.2704    5.7838 C.3       14 UNK        -0.0898 
      7 S7        -51.5765  -30.5269    5.9043 S.3       14 UNK        -0.2598 
      8 C8        -52.2604  -29.0860    5.0130 C.3       14 UNK         0.0286 
      9 C9        -52.6636  -27.9187    5.9129 C.ar      14 UNK        -0.0844 
     10 C10       -52.3431  -26.6073    5.5425 C.ar      14 UNK        -0.0881 
     11 C11       -52.8173  -25.5178    6.2829 C.ar      14 UNK        -0.0643 
     12 C12       -53.6012  -25.7484    7.4168 C.ar      14 UNK        -0.0930 
     13 C13       -53.9046  -27.0514    7.8165 C.ar      14 UNK        -0.0827 
     14 C14       -53.4408  -28.1306    7.0577 C.ar      14 UNK        -0.1249 
     15 C15       -54.7729  -27.2964    9.0394 C.3       14 UNK         0.0141 
     16 S16       -53.7658  -27.6316   10.5217 S.3       14 UNK        -0.2313 
     17 C17       -54.7934  -28.8963   11.3429 C.3       14 UNK        -0.0915 
     18 CA        -55.7638  -28.2943   12.3933 C.3       13 UNK         0.0968 
     19 C         -56.9256  -29.2882   12.6990 C.2       13 UNK         0.5732 
     20 N         -57.0264  -29.8745   13.8865 N.am      13 UNK        -0.7310 
     21 O         -57.7626  -29.5280   11.8319 O.2       13 UNK        -0.5035 
     22 N         -55.0322  -27.8220   13.5776 N.am      13 UNK        -0.4233 
     23 C         -55.5451  -27.0484   14.5433 C.2       13 UNK         0.4989 
     24 O         -56.6439  -26.4973   14.4625 O.2       13 UNK        -0.4996 
     25 CA        -54.6871  -26.8751   15.8158 C.3       12 UNK         0.0216 
     26 CB        -55.5392  -26.5565   17.0620 C.3       12 UNK        -0.1964 
     27 N         -53.7850  -28.0059   16.0892 N.am      12 UNK        -0.4276 
     28 C         -54.1199  -29.2978   16.2537 C.2       12 UNK         0.5020 
     29 O         -55.2767  -29.7138   16.1812 O.2       12 UNK        -0.5489 
     30 CA        -52.9869  -30.3182   16.4814 C.3       11 UNK         0.0294 
     31 CB        -52.7461  -31.1332   15.1991 C.3       11 UNK        -0.2019 
     32 N         -51.7211  -29.7152   16.9036 N.am      11 UNK        -0.4493 
     33 C         -51.4864  -29.1995   18.1179 C.2       11 UNK         0.4932 
     34 O         -52.2847  -29.2639   19.0530 O.2       11 UNK        -0.5029 
     35 CA        -50.1453  -28.4662   18.3238 C.3       10 UNK         0.0280 
     36 CB        -49.1347  -29.3921   19.0205 C.3       10 UNK        -0.1976 
     37 N         -49.5310  -27.9102   17.1077 N.am      10 UNK        -0.4242 
     38 C         -50.1105  -27.0482   16.2600 C.2       10 UNK         0.5072 
     39 O         -51.2922  -26.7030   16.3337 O.2       10 UNK        -0.5224 
     40 CA        -49.2395  -26.5334   15.1003 C.3       9 UNK         0.0343 
     41 CB        -49.2638  -27.5379   13.9358 C.3       9 UNK        -0.2003 
     42 N         -49.7074  -25.2373   14.6066 N.am      9 UNK        -0.4272 
     43 C         -49.7427  -24.0999   15.3191 C.2       9 UNK         0.4988 
     44 O         -49.2325  -23.9722   16.4331 O.2       9 UNK        -0.5108 
     45 CA        -50.4797  -22.9040   14.6952 C.3       8 UNK         0.0248 
     46 CB        -49.4827  -21.9425   14.0275 C.3       8 UNK        -0.2001 
     47 N         -51.4645  -23.3437   13.7055 N.am      8 UNK        -0.4140 
     48 C         -52.7743  -23.5160   13.9274 C.2       8 UNK         0.5028 
     49 O         -53.3221  -23.2553   14.9993 O.2       8 UNK        -0.5428 
     50 CA        -53.6182  -24.1078   12.7748 C.3       7 UNK         0.0264 
     51 CB        -54.9941  -23.4244   12.6389 C.3       7 UNK        -0.1988 
     52 N         -52.9286  -24.1694   11.4784 N.am      7 UNK        -0.4454 
     53 C         -52.4667  -23.1485   10.7395 C.2       7 UNK         0.5027 
     54 O         -52.6185  -21.9582   11.0178 O.2       7 UNK        -0.5083 
     55 CA        -51.6308  -23.5437    9.5085 C.3       6 UNK         0.0844 
     56 C56       -52.0256  -22.7204    8.2580 C.3       14 UNK        -0.0967 
     57 S57       -51.1814  -23.3080    6.7462 S.3       14 UNK        -0.2604 
     58 C58       -52.5368  -24.0941    5.8190 C.3       14 UNK         0.0134 
     59 N         -50.1906  -23.4559    9.7716 N.am      6 UNK        -0.4116 
     60 C         -49.4901  -24.0622   10.7388 C.2       5 UNK         0.5034 
     61 O         -49.9994  -24.7298   11.6423 O.2       5 UNK        -0.5045 
     62 CA        -47.9559  -23.9357   10.6498 C.3       5 UNK         0.0224 
     63 CB        -47.2267  -24.7594   11.7275 C.3       5 UNK        -0.1978 
     64 N         -47.4439  -24.3412    9.3365 N.am      5 UNK        -0.4737 
     65 C         -47.4659  -23.5904    8.2255 C.2       4 UNK         0.5027 
     66 O         -47.9683  -22.4659    8.1890 O.2       4 UNK        -0.5211 
     67 CA        -46.8358  -24.2000    6.9553 C.3       4 UNK         0.0297 
     68 CB        -46.4298  -23.1336    5.9164 C.3       4 UNK        -0.1993 
     69 N         -45.7170  -25.1045    7.2530 N.am      4 UNK        -0.4486 
     70 C         -44.5810  -24.8057    7.9035 C.2       3 UNK         0.4961 
     71 O         -44.2602  -23.6596    8.2210 O.2       3 UNK        -0.5105 
     72 CA        -43.6384  -25.9703    8.2813 C.3       3 UNK         0.0299 
     73 CB        -43.1617  -25.8498    9.7448 C.3       3 UNK        -0.1972 
     74 N         -44.1549  -27.3265    8.0308 N.am      3 UNK        -0.4305 
     75 C         -45.2407  -27.9065    8.5628 C.2       2 UNK         0.5006 
     76 O         -46.0450  -27.3337    9.3046 O.2       2 UNK        -0.5106 
     77 CA        -45.4606  -29.3788    8.1973 C.3       2 UNK         0.0296 
     78 CB        -44.8357  -30.3007    9.2574 C.3       2 UNK        -0.2002 
     79 N         -46.8969  -29.6187    8.1318 N.am      2 UNK        -0.4032 
     80 C         -47.5532  -30.1838    7.1102 C.2       1 UNK         0.5000 
     81 O         -46.9876  -30.7113    6.1493 O.2       1 UNK        -0.5238 
     82 H82       -51.1432  -27.0294    8.8139 H         1 UNK         0.0889 
     83 H83       -50.1241  -25.7472    8.1579 H         1 UNK         0.0889 
     84 H84       -49.5734  -26.6849    9.5576 H         1 UNK         0.0889 
     85 H85       -50.1988  -29.2697    8.7455 H         1 UNK         0.3028 
     86 H86       -49.3701  -31.0458    7.7448 H         1 UNK         0.0864 
     87 H87       -49.3724  -31.1251    5.2353 H         1 UNK         0.0720 
     88 H88       -49.5508  -29.3924    5.1754 H         1 UNK         0.0720 
     89 H89       -53.1542  -29.4157    4.4820 H         1 UNK         0.0814 
     90 H90       -51.5606  -28.7635    4.2409 H         1 UNK         0.0814 
     91 H91       -51.7553  -26.4302    4.6522 H         1 UNK         0.1469 
     92 H92       -53.9898  -24.9140    7.9822 H         1 UNK         0.1381 
     93 H93       -53.7054  -29.1382    7.3480 H         1 UNK         0.1206 
     94 H94       -55.4467  -28.1267    8.8260 H         1 UNK         0.0813 
     95 H95       -55.4140  -26.4356    9.2359 H         1 UNK         0.0813 
     96 H96       -54.1286  -29.6206   11.8168 H         1 UNK         0.0638 
     97 H97       -55.3298  -29.4618   10.5793 H         1 UNK         0.0638 
     98 H98       -56.2434  -27.4224   11.9442 H         1 UNK         0.0568 
     99 H99       -56.3558  -29.6994   14.6303 H         1 UNK         0.3450 
    100 H100      -57.7918  -30.5078   14.0514 H         1 UNK         0.3450 
    101 H101      -54.1222  -28.2295   13.7247 H         1 UNK         0.2987 
    102 H102      -54.0430  -26.0144   15.6299 H         1 UNK         0.0766 
    103 H103      -56.1079  -25.6359   16.9247 H         1 UNK         0.0798 
    104 H104      -54.9133  -26.4192   17.9438 H         1 UNK         0.0798 
    105 H105      -56.2527  -27.3526   17.2771 H         1 UNK         0.0798 
    106 H106      -52.8042  -27.7425   16.1820 H         1 UNK         0.3198 
    107 H107      -53.3203  -31.0021   17.2651 H         1 UNK         0.0843 
    108 H108      -52.3978  -30.5057   14.3778 H         1 UNK         0.0831 
    109 H109      -53.6641  -31.6216   14.8682 H         1 UNK         0.0831 
    110 H110      -52.0066  -31.9178   15.3604 H         1 UNK         0.0831 
    111 H111      -50.9990  -29.6282   16.2038 H         1 UNK         0.3133 
    112 H112      -50.3464  -27.6240   18.9891 H         1 UNK         0.0566 
    113 H113      -48.2228  -28.8580   19.2880 H         1 UNK         0.0814 
    114 H114      -48.8581  -30.2366   18.3878 H         1 UNK         0.0814 
    115 H115      -49.5491  -29.7998   19.9439 H         1 UNK         0.0814 
    116 H116      -48.5644  -28.1569   16.9479 H         1 UNK         0.3091 
    117 H117      -48.2133  -26.4130   15.4532 H         1 UNK         0.0702 
    118 H118      -48.6365  -27.2037   13.1101 H         1 UNK         0.0785 
    119 H119      -50.2735  -27.6812   13.5478 H         1 UNK         0.0785 
    120 H120      -48.8906  -28.5143   14.2471 H         1 UNK         0.0785 
    121 H121      -50.1046  -25.2326   13.6756 H         1 UNK         0.2998 
    122 H122      -50.9823  -22.3659   15.5016 H         1 UNK         0.0697 
    123 H123      -48.9111  -22.4301   13.2387 H         1 UNK         0.0825 
    124 H124      -48.7675  -21.5579   14.7559 H         1 UNK         0.0825 
    125 H125      -49.9931  -21.0841   13.5904 H         1 UNK         0.0825 
    126 H126      -51.0962  -23.6384   12.8072 H         1 UNK         0.3029 
    127 H127      -53.7980  -25.1462   13.0530 H         1 UNK         0.0897 
    128 H128      -54.8990  -22.3606   12.4194 H         1 UNK         0.0792 
    129 H129      -55.5691  -23.5159   13.5614 H         1 UNK         0.0792 
    130 H130      -55.5864  -23.8815   11.8463 H         1 UNK         0.0792 
    131 H131      -52.7008  -25.1054   11.1678 H         1 UNK         0.3086 
    132 H132      -51.8485  -24.5903    9.2954 H         1 UNK         0.0583 
    133 H133      -53.1058  -22.7359    8.1052 H         1 UNK         0.1020 
    134 H134      -51.7664  -21.6694    8.4007 H         1 UNK         0.1020 
    135 H135      -53.4417  -23.4891    5.8910 H         1 UNK         0.0694 
    136 H136      -52.2671  -24.0964    4.7618 H         1 UNK         0.0694 
    137 H137      -49.6537  -22.9401    9.0805 H         1 UNK         0.2989 
    138 H138      -47.7135  -22.8832   10.8133 H         1 UNK         0.1055 
    139 H139      -47.3994  -25.8283   11.5985 H         1 UNK         0.0806 
    140 H140      -47.5589  -24.4899   12.7305 H         1 UNK         0.0806 
    141 H141      -46.1501  -24.5918   11.6903 H         1 UNK         0.0806 
    142 H142      -47.0246  -25.2629    9.2815 H         1 UNK         0.3061 
    143 H143      -47.6146  -24.8163    6.5039 H         1 UNK         0.0734 
    144 H144      -45.7047  -22.4273    6.3214 H         1 UNK         0.0832 
    145 H145      -45.9955  -23.5900    5.0272 H         1 UNK         0.0832 
    146 H146      -47.2970  -22.5567    5.5923 H         1 UNK         0.0832 
    147 H147      -45.8901  -26.0807    7.0567 H         1 UNK         0.3156 
    148 H148      -42.7626  -25.8618    7.6399 H         1 UNK         0.0589 
    149 H149      -42.4666  -26.6484   10.0037 H         1 UNK         0.0808 
    150 H150      -42.6426  -24.9058    9.9151 H         1 UNK         0.0808 
    151 H151      -43.9962  -25.8911   10.4460 H         1 UNK         0.0808 
    152 H152      -43.5841  -27.8864    7.4112 H         1 UNK         0.3098 
    153 H153      -44.9951  -29.5751    7.2290 H         1 UNK         0.0720 
    154 H154      -43.7588  -30.1423    9.3290 H         1 UNK         0.0791 
    155 H155      -44.9935  -31.3506    9.0097 H         1 UNK         0.0791 
    156 H156      -45.2591  -30.1231   10.2470 H         1 UNK         0.0791 
    157 H157      -47.4359  -29.1424    8.8429 H         1 UNK         0.3028 
@<TRIPOS>BOND
     1    1    2 1    
     2    1   82 1    
     3    1   83 1    
     4    1   84 1    
     5    2    3 2    
     6    2    4 am   BACKBONE|DICT|INTERRES
     7    4    5 1    
     8    4   85 1    
     9    5    6 1    
    10    5   80 1    
    11    5   86 1    
    12    6    7 1    
    13    6   87 1    
    14    6   88 1    
    15    7    8 1    
    16    8    9 1    
    17    8   89 1    
    18    8   90 1    
    19    9   10 ar   
    20    9   14 ar   
    21   10   11 ar   
    22   10   91 1    
    23   11   12 ar   
    24   11   58 1    
    25   12   13 ar   
    26   12   92 1    
    27   13   14 ar   
    28   13   15 1    
    29   14   93 1    
    30   15   16 1    
    31   15   94 1    
    32   15   95 1    
    33   16   17 1    
    34   17   18 1    
    35   17   96 1    
    36   17   97 1    
    37   18   19 1    
    38   18   22 1    
    39   18   98 1    
    40   19   20 am   BACKBONE|DICT|INTERRES
    41   19   21 2    
    42   20   99 1    
    43   20  100 1    
    44   22   23 am   BACKBONE|DICT|INTERRES
    45   22  101 1    
    46   23   24 2    
    47   23   25 1    
    48   25   26 1    
    49   25   27 1    
    50   25  102 1    
    51   26  103 1    
    52   26  104 1    
    53   26  105 1    
    54   27   28 am   BACKBONE|DICT|INTERRES
    55   27  106 1    
    56   28   29 2    
    57   28   30 1    
    58   30   31 1    
    59   30   32 1    
    60   30  107 1    
    61   31  108 1    
    62   31  109 1    
    63   31  110 1    
    64   32   33 am   BACKBONE|DICT|INTERRES
    65   32  111 1    
    66   33   34 2    
    67   33   35 1    
    68   35   36 1    
    69   35   37 1    
    70   35  112 1    
    71   36  113 1    
    72   36  114 1    
    73   36  115 1    
    74   37   38 am   BACKBONE|DICT|INTERRES
    75   37  116 1    
    76   38   39 2    
    77   38   40 1    
    78   40   41 1    
    79   40   42 1    
    80   40  117 1    
    81   41  118 1    
    82   41  119 1    
    83   41  120 1    
    84   42   43 am   BACKBONE|DICT|INTERRES
    85   42  121 1    
    86   43   44 2    
    87   43   45 1    
    88   45   46 1    
    89   45   47 1    
    90   45  122 1    
    91   46  123 1    
    92   46  124 1    
    93   46  125 1    
    94   47   48 am   BACKBONE|DICT|INTERRES
    95   47  126 1    
    96   48   49 2    
    97   48   50 1    
    98   50   51 1    
    99   50   52 1    
   100   50  127 1    
   101   51  128 1    
   102   51  129 1    
   103   51  130 1    
   104   52   53 am   BACKBONE|DICT|INTERRES
   105   52  131 1    
   106   53   54 2    
   107   53   55 1    
   108   55   56 1    
   109   55   59 1    
   110   55  132 1    
   111   56   57 1    
   112   56  133 1    
   113   56  134 1    
   114   57   58 1    
   115   58  135 1    
   116   58  136 1    
   117   59   60 am   BACKBONE|DICT|INTERRES
   118   59  137 1    
   119   60   61 2    
   120   60   62 1    
   121   62   63 1    
   122   62   64 1    
   123   62  138 1    
   124   63  139 1    
   125   63  140 1    
   126   63  141 1    
   127   64   65 am   BACKBONE|DICT|INTERRES
   128   64  142 1    
   129   65   66 2    
   130   65   67 1    
   131   67   68 1    
   132   67   69 1    
   133   67  143 1    
   134   68  144 1    
   135   68  145 1    
   136   68  146 1    
   137   69   70 am   BACKBONE|DICT|INTERRES
   138   69  147 1    
   139   70   71 2    
   140   70   72 1    
   141   72   73 1    
   142   72   74 1    
   143   72  148 1    
   144   73  149 1    
   145   73  150 1    
   146   73  151 1    
   147   74   75 am   BACKBONE|DICT|INTERRES
   148   74  152 1    
   149   75   76 2    
   150   75   77 1    
   151   77   78 1    
   152   77   79 1    
   153   77  153 1    
   154   78  154 1    
   155   78  155 1    
   156   78  156 1    
   157   79   80 am   BACKBONE|DICT|INTERRES
   158   79  157 1    
   159   80   81 2    
@<TRIPOS>SUBSTRUCTURE
     1 UNK         1 GROUP             0       ****    0 ROOT    
