@<TRIPOS>MOLECULE
3R207
157   159    1
SMALL
USER_CHARGES


@<TRIPOS>ATOM
      1 CA        -50.2616  -30.8490    3.8788 C.3       0 UNK        -0.1975 
      2 C         -49.9746  -29.4739    4.4632 C.2       0 UNK         0.4852 
      3 O         -50.3225  -28.4649    3.8490 O.2       0 UNK        -0.5216 
      4 N         -49.3453  -29.4298    5.6457 N.am      1 UNK        -0.4461 
      5 CA        -48.9868  -28.2040    6.3742 C.3       1 UNK         0.0864 
      6 C6        -48.5112  -28.5106    7.8167 C.3       14 UNK        -0.0898 
      7 S7        -49.7254  -29.4901    8.7702 S.3       14 UNK        -0.2598 
      8 C8        -50.1139  -28.3878   10.1650 C.3       14 UNK         0.0286 
      9 C9        -51.2781  -27.4509    9.8707 C.ar      14 UNK        -0.0844 
     10 C10       -51.1393  -26.4018    8.9588 C.ar      14 UNK        -0.0881 
     11 C11       -52.1678  -25.4715    8.7772 C.ar      14 UNK        -0.0643 
     12 C12       -53.3709  -25.6387    9.4722 C.ar      14 UNK        -0.0930 
     13 C13       -53.5428  -26.7089   10.3570 C.ar      14 UNK        -0.0827 
     14 C14       -52.4850  -27.6012   10.5580 C.ar      14 UNK        -0.1249 
     15 C15       -54.8598  -26.8821   11.1090 C.3       14 UNK         0.0141 
     16 S16       -55.5466  -28.5591   10.9171 S.3       14 UNK        -0.2313 
     17 C17       -57.2492  -28.3546   11.5485 C.3       14 UNK        -0.0915 
     18 CA        -57.6147  -29.2706   12.7482 C.3       13 UNK         0.0968 
     19 C         -57.5345  -30.7892   12.4021 C.2       13 UNK         0.5732 
     20 N         -56.7115  -31.5907   13.0707 N.am      13 UNK        -0.7310 
     21 O         -58.2501  -31.2520   11.5166 O.2       13 UNK        -0.5035 
     22 N         -56.9087  -28.8777   13.9763 N.am      13 UNK        -0.4233 
     23 C         -57.3302  -29.1740   15.2137 C.2       13 UNK         0.4989 
     24 O         -58.4163  -29.7064   15.4515 O.2       13 UNK        -0.4996 
     25 CA        -56.3859  -28.8195   16.3806 C.3       12 UNK         0.0216 
     26 CB        -56.6255  -29.6981   17.6268 C.3       12 UNK        -0.1964 
     27 N         -54.9609  -28.8228   16.0253 N.am      12 UNK        -0.4276 
     28 C         -54.2426  -29.8429   15.5310 C.2       12 UNK         0.5020 
     29 O         -54.7221  -30.9349   15.2219 O.2       12 UNK        -0.5489 
     30 CA        -52.7373  -29.6011   15.3246 C.3       11 UNK         0.0294 
     31 CB        -52.4694  -29.0887   13.9030 C.3       11 UNK        -0.2019 
     32 N         -52.1496  -28.6733   16.2959 N.am      11 UNK        -0.4493 
     33 C         -51.9809  -28.9458   17.5989 C.2       11 UNK         0.4932 
     34 O         -52.3039  -30.0103   18.1263 O.2       11 UNK        -0.5029 
     35 CA        -51.3466  -27.8450   18.4607 C.3       10 UNK         0.0280 
     36 CB        -49.8197  -27.8212   18.2777 C.3       10 UNK        -0.1976 
     37 N         -51.9048  -26.5340   18.1298 N.am      10 UNK        -0.4242 
     38 C         -52.9852  -26.0001   18.7184 C.2       10 UNK         0.5072 
     39 O         -53.5866  -26.5274   19.6551 O.2       10 UNK        -0.5224 
     40 CA        -53.4905  -24.6476   18.1786 C.3       9 UNK         0.0343 
     41 CB        -52.9009  -23.4883   18.9979 C.3       9 UNK        -0.2003 
     42 N         -53.1945  -24.4344   16.7600 N.am      9 UNK        -0.4272 
     43 C         -53.7285  -25.1455   15.7576 C.2       9 UNK         0.4988 
     44 O         -54.5739  -26.0242   15.9156 O.2       9 UNK        -0.5108 
     45 CA        -53.1900  -24.8778   14.3440 C.3       8 UNK         0.0248 
     46 CB        -54.0471  -23.8309   13.6168 C.3       8 UNK        -0.2001 
     47 N         -51.7810  -24.4792   14.2996 N.am      8 UNK        -0.4140 
     48 C         -50.7502  -25.2061   14.7521 C.2       8 UNK         0.5028 
     49 O         -50.8886  -26.2655   15.3680 O.2       8 UNK        -0.5428 
     50 CA        -49.3414  -24.6645   14.4360 C.3       7 UNK         0.0264 
     51 CB        -48.2265  -25.5414   15.0350 C.3       7 UNK        -0.1988 
     52 N         -49.1384  -24.5606   12.9887 N.am      7 UNK        -0.4454 
     53 C         -49.6606  -23.6178   12.1934 C.2       7 UNK         0.5027 
     54 O         -50.2658  -22.6308   12.6176 O.2       7 UNK        -0.5083 
     55 CA        -49.5306  -23.8628   10.6821 C.3       6 UNK         0.0844 
     56 C56       -50.4374  -22.9394    9.8267 C.3       14 UNK        -0.0967 
     57 S57       -50.4004  -23.3983    8.0565 S.3       14 UNK        -0.2604 
     58 C58       -51.9877  -24.2804    7.8387 C.3       14 UNK         0.0134 
     59 N         -48.1368  -23.8284   10.2450 N.am      6 UNK        -0.4116 
     60 C         -47.2629  -24.8365   10.3274 C.2       5 UNK         0.5034 
     61 O         -47.5048  -25.8914   10.9174 O.2       5 UNK        -0.5045 
     62 CA        -45.9115  -24.6383    9.6078 C.3       5 UNK         0.0224 
     63 CB        -45.0607  -25.9218    9.5920 C.3       5 UNK        -0.1978 
     64 N         -46.0713  -24.1684    8.2257 N.am      5 UNK        -0.4737 
     65 C         -46.3926  -22.9203    7.8542 C.2       4 UNK         0.5027 
     66 O         -46.6034  -22.0135    8.6622 O.2       4 UNK        -0.5211 
     67 CA        -46.5275  -22.6505    6.3424 C.3       4 UNK         0.0297 
     68 CB        -46.4182  -21.1520    5.9890 C.3       4 UNK        -0.1993 
     69 N         -45.6060  -23.4505    5.5277 N.am      4 UNK        -0.4486 
     70 C         -44.2638  -23.4600    5.5782 C.2       3 UNK         0.4961 
     71 O         -43.5987  -22.7152    6.2997 O.2       3 UNK        -0.5105 
     72 CA        -43.5404  -24.4702    4.6610 C.3       3 UNK         0.0299 
     73 CB        -42.2327  -25.0007    5.2878 C.3       3 UNK        -0.1972 
     74 N         -44.3912  -25.5805    4.2045 N.am      3 UNK        -0.4305 
     75 C         -44.9830  -26.5156    4.9630 C.2       2 UNK         0.5006 
     76 O         -44.8607  -26.5994    6.1873 O.2       2 UNK        -0.5106 
     77 CA        -45.8643  -27.5215    4.2019 C.3       2 UNK         0.0296 
     78 CB        -45.0097  -28.6839    3.6697 C.3       2 UNK        -0.2002 
     79 N         -46.9591  -28.0702    5.0054 N.am      2 UNK        -0.4032 
     80 C         -47.9225  -27.3713    5.6271 C.2       1 UNK         0.5000 
     81 O         -48.0081  -26.1411    5.6114 O.2       1 UNK        -0.5238 
     82 H82       -49.7721  -30.9548    2.9110 H         1 UNK         0.0889 
     83 H83       -51.3339  -30.9787    3.7347 H         1 UNK         0.0889 
     84 H84       -49.9077  -31.6504    4.5272 H         1 UNK         0.0889 
     85 H85       -49.1214  -30.2939    6.1192 H         1 UNK         0.3028 
     86 H86       -49.8879  -27.5901    6.4344 H         1 UNK         0.0864 
     87 H87       -47.5776  -29.0763    7.7987 H         1 UNK         0.0720 
     88 H88       -48.2824  -27.5848    8.3480 H         1 UNK         0.0720 
     89 H89       -50.3457  -29.0113   11.0299 H         1 UNK         0.0814 
     90 H90       -49.2346  -27.8103   10.4493 H         1 UNK         0.0814 
     91 H91       -50.2062  -26.2687    8.4314 H         1 UNK         0.1469 
     92 H92       -54.1751  -24.9306    9.3259 H         1 UNK         0.1381 
     93 H93       -52.6054  -28.4190   11.2519 H         1 UNK         0.1206 
     94 H94       -55.5940  -26.1575   10.7535 H         1 UNK         0.0813 
     95 H95       -54.7062  -26.6773   12.1679 H         1 UNK         0.0813 
     96 H96       -57.9317  -28.5439   10.7181 H         1 UNK         0.0638 
     97 H97       -57.4147  -27.3122   11.8243 H         1 UNK         0.0638 
     98 H98       -58.6750  -29.0919   12.9378 H         1 UNK         0.0568 
     99 H99       -56.6827  -32.5688   12.8328 H         1 UNK         0.3450 
    100 H100      -56.1110  -31.2367   13.8083 H         1 UNK         0.3450 
    101 H101      -55.9990  -28.4598   13.8575 H         1 UNK         0.2987 
    102 H102      -56.6248  -27.7906   16.6534 H         1 UNK         0.0766 
    103 H103      -55.9618  -29.4144   18.4438 H         1 UNK         0.0798 
    104 H104      -57.6480  -29.5952   17.9920 H         1 UNK         0.0798 
    105 H105      -56.4599  -30.7545   17.4123 H         1 UNK         0.0798 
    106 H106      -54.4980  -27.9261   16.1532 H         1 UNK         0.3198 
    107 H107      -52.2346  -30.5641   15.4378 H         1 UNK         0.0843 
    108 H108      -52.9548  -28.1304   13.7217 H         1 UNK         0.0831 
    109 H109      -52.8490  -29.7941   13.1624 H         1 UNK         0.0831 
    110 H110      -51.4022  -28.9641   13.7177 H         1 UNK         0.0831 
    111 H111      -51.7898  -27.7913   15.9345 H         1 UNK         0.3133 
    112 H112      -51.5507  -28.0752   19.5087 H         1 UNK         0.0566 
    113 H113      -49.5337  -27.6250   17.2439 H         1 UNK         0.0814 
    114 H114      -49.3807  -28.7794   18.5587 H         1 UNK         0.0814 
    115 H115      -49.3576  -27.0575   18.9034 H         1 UNK         0.0814 
    116 H116      -51.5063  -26.0703   17.3213 H         1 UNK         0.3091 
    117 H117      -54.5760  -24.6334   18.2990 H         1 UNK         0.0702 
    118 H118      -53.1298  -23.6045   20.0583 H         1 UNK         0.0785 
    119 H119      -51.8155  -23.4365   18.9028 H         1 UNK         0.0785 
    120 H120      -53.3132  -22.5293   18.6832 H         1 UNK         0.0785 
    121 H121      -52.5069  -23.7302   16.5351 H         1 UNK         0.2998 
    122 H122      -53.2660  -25.8149   13.7928 H         1 UNK         0.0697 
    123 H123      -55.0997  -24.1183   13.6181 H         1 UNK         0.0825 
    124 H124      -53.7439  -23.7258   12.5746 H         1 UNK         0.0825 
    125 H125      -53.9751  -22.8505   14.0892 H         1 UNK         0.0825 
    126 H126      -51.5586  -23.6287   13.7917 H         1 UNK         0.3029 
    127 H127      -49.2636  -23.6693   14.8791 H         1 UNK         0.0897 
    128 H128      -47.2401  -25.1277   14.8252 H         1 UNK         0.0792 
    129 H129      -48.3240  -25.6099   16.1193 H         1 UNK         0.0792 
    130 H130      -48.2552  -26.5577   14.6396 H         1 UNK         0.0792 
    131 H131      -48.6462  -25.3265   12.5388 H         1 UNK         0.3086 
    132 H132      -49.8895  -24.8794   10.5480 H         1 UNK         0.0583 
    133 H133      -51.4693  -22.9740   10.1820 H         1 UNK         0.1020 
    134 H134      -50.1205  -21.8992    9.9210 H         1 UNK         0.1020 
    135 H135      -52.7994  -23.5626    7.9677 H         1 UNK         0.0694 
    136 H136      -52.0509  -24.6355    6.8095 H         1 UNK         0.0694 
    137 H137      -47.8346  -22.9918    9.7543 H         1 UNK         0.2989 
    138 H138      -45.3621  -23.8797   10.1698 H         1 UNK         0.1055 
    139 H139      -44.0965  -25.7530    9.1117 H         1 UNK         0.0806 
    140 H140      -45.5620  -26.7294    9.0564 H         1 UNK         0.0806 
    141 H141      -44.8602  -26.2744   10.6046 H         1 UNK         0.0806 
    142 H142      -45.9266  -24.8589    7.4989 H         1 UNK         0.3061 
    143 H143      -47.5326  -22.9795    6.0727 H         1 UNK         0.0734 
    144 H144      -47.1972  -20.5751    6.4890 H         1 UNK         0.0832 
    145 H145      -45.4588  -20.7330    6.2938 H         1 UNK         0.0832 
    146 H146      -46.5326  -20.9866    4.9178 H         1 UNK         0.0832 
    147 H147      -46.0487  -24.1205    4.9137 H         1 UNK         0.3156 
    148 H148      -43.2690  -23.9130    3.7632 H         1 UNK         0.0589 
    149 H149      -42.4131  -25.5002    6.2403 H         1 UNK         0.0808 
    150 H150      -41.7333  -25.7086    4.6266 H         1 UNK         0.0808 
    151 H151      -41.5307  -24.1878    5.4776 H         1 UNK         0.0808 
    152 H152      -44.5568  -25.6090    3.2070 H         1 UNK         0.3098 
    153 H153      -46.3198  -27.0055    3.3542 H         1 UNK         0.0720 
    154 H154      -45.6036  -29.3725    3.0682 H         1 UNK         0.0791 
    155 H155      -44.2003  -28.3204    3.0350 H         1 UNK         0.0791 
    156 H156      -44.5547  -29.2526    4.4820 H         1 UNK         0.0791 
    157 H157      -46.9838  -29.0749    5.0948 H         1 UNK         0.3028 
@<TRIPOS>BOND
     1    1    2 1    
     2    1   82 1    
     3    1   83 1    
     4    1   84 1    
     5    2    3 2    
     6    2    4 am   BACKBONE|DICT|INTERRES
     7    4    5 1    
     8    4   85 1    
     9    5    6 1    
    10    5   80 1    
    11    5   86 1    
    12    6    7 1    
    13    6   87 1    
    14    6   88 1    
    15    7    8 1    
    16    8    9 1    
    17    8   89 1    
    18    8   90 1    
    19    9   10 ar   
    20    9   14 ar   
    21   10   11 ar   
    22   10   91 1    
    23   11   12 ar   
    24   11   58 1    
    25   12   13 ar   
    26   12   92 1    
    27   13   14 ar   
    28   13   15 1    
    29   14   93 1    
    30   15   16 1    
    31   15   94 1    
    32   15   95 1    
    33   16   17 1    
    34   17   18 1    
    35   17   96 1    
    36   17   97 1    
    37   18   19 1    
    38   18   22 1    
    39   18   98 1    
    40   19   20 am   BACKBONE|DICT|INTERRES
    41   19   21 2    
    42   20   99 1    
    43   20  100 1    
    44   22   23 am   BACKBONE|DICT|INTERRES
    45   22  101 1    
    46   23   24 2    
    47   23   25 1    
    48   25   26 1    
    49   25   27 1    
    50   25  102 1    
    51   26  103 1    
    52   26  104 1    
    53   26  105 1    
    54   27   28 am   BACKBONE|DICT|INTERRES
    55   27  106 1    
    56   28   29 2    
    57   28   30 1    
    58   30   31 1    
    59   30   32 1    
    60   30  107 1    
    61   31  108 1    
    62   31  109 1    
    63   31  110 1    
    64   32   33 am   BACKBONE|DICT|INTERRES
    65   32  111 1    
    66   33   34 2    
    67   33   35 1    
    68   35   36 1    
    69   35   37 1    
    70   35  112 1    
    71   36  113 1    
    72   36  114 1    
    73   36  115 1    
    74   37   38 am   BACKBONE|DICT|INTERRES
    75   37  116 1    
    76   38   39 2    
    77   38   40 1    
    78   40   41 1    
    79   40   42 1    
    80   40  117 1    
    81   41  118 1    
    82   41  119 1    
    83   41  120 1    
    84   42   43 am   BACKBONE|DICT|INTERRES
    85   42  121 1    
    86   43   44 2    
    87   43   45 1    
    88   45   46 1    
    89   45   47 1    
    90   45  122 1    
    91   46  123 1    
    92   46  124 1    
    93   46  125 1    
    94   47   48 am   BACKBONE|DICT|INTERRES
    95   47  126 1    
    96   48   49 2    
    97   48   50 1    
    98   50   51 1    
    99   50   52 1    
   100   50  127 1    
   101   51  128 1    
   102   51  129 1    
   103   51  130 1    
   104   52   53 am   BACKBONE|DICT|INTERRES
   105   52  131 1    
   106   53   54 2    
   107   53   55 1    
   108   55   56 1    
   109   55   59 1    
   110   55  132 1    
   111   56   57 1    
   112   56  133 1    
   113   56  134 1    
   114   57   58 1    
   115   58  135 1    
   116   58  136 1    
   117   59   60 am   BACKBONE|DICT|INTERRES
   118   59  137 1    
   119   60   61 2    
   120   60   62 1    
   121   62   63 1    
   122   62   64 1    
   123   62  138 1    
   124   63  139 1    
   125   63  140 1    
   126   63  141 1    
   127   64   65 am   BACKBONE|DICT|INTERRES
   128   64  142 1    
   129   65   66 2    
   130   65   67 1    
   131   67   68 1    
   132   67   69 1    
   133   67  143 1    
   134   68  144 1    
   135   68  145 1    
   136   68  146 1    
   137   69   70 am   BACKBONE|DICT|INTERRES
   138   69  147 1    
   139   70   71 2    
   140   70   72 1    
   141   72   73 1    
   142   72   74 1    
   143   72  148 1    
   144   73  149 1    
   145   73  150 1    
   146   73  151 1    
   147   74   75 am   BACKBONE|DICT|INTERRES
   148   74  152 1    
   149   75   76 2    
   150   75   77 1    
   151   77   78 1    
   152   77   79 1    
   153   77  153 1    
   154   78  154 1    
   155   78  155 1    
   156   78  156 1    
   157   79   80 am   BACKBONE|DICT|INTERRES
   158   79  157 1    
   159   80   81 2    
@<TRIPOS>SUBSTRUCTURE
     1 UNK         1 GROUP             0       ****    0 ROOT    
