@<TRIPOS>MOLECULE
3R207
157   159    1
SMALL
USER_CHARGES


@<TRIPOS>ATOM
      1 CA        -43.9237  -28.8475    8.7161 C.3       0 UNK        -0.1975 
      2 C         -44.7333  -29.2697    7.4989 C.2       0 UNK         0.4852 
      3 O         -44.1635  -29.4931    6.4306 O.2       0 UNK        -0.5216 
      4 N         -46.0599  -29.3777    7.6541 N.am      1 UNK        -0.4461 
      5 CA        -47.0075  -29.7923    6.6079 C.3       1 UNK         0.0864 
      6 C6        -48.4161  -30.0936    7.1835 C.3       14 UNK        -0.0898 
      7 S7        -48.4334  -31.2022    8.6361 S.3       14 UNK        -0.2598 
      8 C8        -48.8564  -30.0647   10.0016 C.3       14 UNK         0.0286 
      9 C9        -50.2385  -29.4443    9.8409 C.ar      14 UNK        -0.0844 
     10 C10       -50.3694  -28.1315    9.3788 C.ar      14 UNK        -0.0881 
     11 C11       -51.6292  -27.5441    9.2387 C.ar      14 UNK        -0.0643 
     12 C12       -52.7693  -28.2887    9.5538 C.ar      14 UNK        -0.0930 
     13 C13       -52.6535  -29.6003   10.0248 C.ar      14 UNK        -0.0827 
     14 C14       -51.3858  -30.1738   10.1660 C.ar      14 UNK        -0.1249 
     15 C15       -53.9021  -30.3980   10.3703 C.3       14 UNK         0.0141 
     16 S16       -54.1328  -30.6026   12.1663 S.3       14 UNK        -0.2313 
     17 C17       -54.2909  -28.8809   12.7517 C.3       14 UNK        -0.0915 
     18 CA        -55.6977  -28.2606   12.5314 C.3       13 UNK         0.0968 
     19 C         -56.7378  -28.7358   13.5925 C.2       13 UNK         0.5732 
     20 N         -57.3072  -27.8659   14.4202 N.am      13 UNK        -0.7310 
     21 O         -57.0569  -29.9200   13.6566 O.2       13 UNK        -0.5035 
     22 N         -55.5967  -26.8003   12.4095 N.am      13 UNK        -0.4233 
     23 C         -56.4822  -26.0229   11.7720 C.2       13 UNK         0.4989 
     24 O         -57.4164  -26.4690   11.1031 O.2       13 UNK        -0.4996 
     25 CA        -56.3030  -24.4927   11.9053 C.3       12 UNK         0.0216 
     26 CB        -57.6284  -23.7245   11.7136 C.3       12 UNK        -0.1964 
     27 N         -55.6429  -24.0715   13.1505 N.am      12 UNK        -0.4276 
     28 C         -56.0357  -24.3363   14.4055 C.2       12 UNK         0.5020 
     29 O         -57.0586  -24.9588   14.6994 O.2       12 UNK        -0.5489 
     30 CA        -55.0726  -23.8972   15.5236 C.3       11 UNK         0.0294 
     31 CB        -55.7843  -22.9828   16.5345 C.3       11 UNK        -0.2019 
     32 N         -54.4887  -25.0441   16.2305 N.am      11 UNK        -0.4493 
     33 C         -53.8278  -26.0556   15.6507 C.2       11 UNK         0.4932 
     34 O         -53.6423  -26.1437   14.4347 O.2       11 UNK        -0.5029 
     35 CA        -53.3176  -27.1668   16.5761 C.3       10 UNK         0.0280 
     36 CB        -54.4650  -28.1434   16.9105 C.3       10 UNK        -0.1976 
     37 N         -52.2137  -27.8501   15.9020 N.am      10 UNK        -0.4242 
     38 C         -51.4483  -28.8349   16.3873 C.2       10 UNK         0.5072 
     39 O         -51.5496  -29.2895   17.5277 O.2       10 UNK        -0.5224 
     40 CA        -50.3779  -29.4073   15.4464 C.3       9 UNK         0.0343 
     41 CB        -50.9721  -29.8532   14.0970 C.3       9 UNK        -0.2003 
     42 N         -49.3346  -28.4136   15.2074 N.am      9 UNK        -0.4272 
     43 C         -48.0736  -28.4849   15.6563 C.2       9 UNK         0.4988 
     44 O         -47.6431  -29.4133   16.3422 O.2       9 UNK        -0.5108 
     45 CA        -47.1068  -27.3481   15.2659 C.3       8 UNK         0.0248 
     46 CB        -46.1540  -27.8183   14.1538 C.3       8 UNK        -0.2001 
     47 N         -47.7901  -26.1286   14.8277 N.am      8 UNK        -0.4140 
     48 C         -48.4072  -25.2710   15.6555 C.2       8 UNK         0.5028 
     49 O         -48.3676  -25.3661   16.8828 O.2       8 UNK        -0.5428 
     50 CA        -49.2296  -24.1254   15.0275 C.3       7 UNK         0.0264 
     51 CB        -48.4434  -22.8058   15.0892 C.3       7 UNK        -0.1988 
     52 N         -49.6681  -24.3536   13.6454 N.am      7 UNK        -0.4454 
     53 C         -50.3996  -25.3957   13.2216 C.2       7 UNK         0.5027 
     54 O         -50.7780  -26.3024   13.9597 O.2       7 UNK        -0.5083 
     55 CA        -50.6934  -25.4940   11.7117 C.3       6 UNK         0.0844 
     56 C56       -52.0513  -24.8158   11.3965 C.3       14 UNK        -0.0967 
     57 S57       -52.8176  -25.0386    9.7452 S.3       14 UNK        -0.2604 
     58 C58       -51.7411  -26.1121    8.7301 C.3       14 UNK         0.0134 
     59 N         -49.5861  -25.0025   10.8772 N.am      6 UNK        -0.4116 
     60 C         -48.3142  -25.4314   10.9402 C.2       5 UNK         0.5034 
     61 O         -47.9171  -26.2572   11.7633 O.2       5 UNK        -0.5045 
     62 CA        -47.3021  -24.8641    9.9303 C.3       5 UNK         0.0224 
     63 CB        -46.5205  -25.9998    9.2446 C.3       5 UNK        -0.1978 
     64 N         -47.8988  -23.9971    8.9070 N.am      5 UNK        -0.4737 
     65 C         -48.1082  -22.6809    9.0618 C.2       4 UNK         0.5027 
     66 O         -47.9289  -22.0964   10.1300 O.2       4 UNK        -0.5211 
     67 CA        -48.5693  -21.8649    7.8384 C.3       4 UNK         0.0297 
     68 CB        -47.4432  -20.9269    7.3718 C.3       4 UNK        -0.1993 
     69 N         -48.9816  -22.6981    6.7073 N.am      4 UNK        -0.4486 
     70 C         -50.2083  -23.2096    6.5433 C.2       3 UNK         0.4961 
     71 O         -51.1495  -22.9797    7.3008 O.2       3 UNK        -0.5105 
     72 CA        -50.4199  -24.1517    5.3404 C.3       3 UNK         0.0299 
     73 CB        -51.0310  -23.3813    4.1591 C.3       3 UNK        -0.1972 
     74 N         -49.2066  -24.8495    4.8897 N.am      3 UNK        -0.4305 
     75 C         -48.4893  -25.6916    5.6449 C.2       2 UNK         0.5006 
     76 O         -48.7503  -25.9343    6.8258 O.2       2 UNK        -0.5106 
     77 CA        -47.2395  -26.3106    5.0012 C.3       2 UNK         0.0296 
     78 CB        -46.0773  -25.3030    5.0181 C.3       2 UNK        -0.2002 
     79 N         -46.8520  -27.4862    5.7766 N.am      2 UNK        -0.4032 
     80 C         -47.1576  -28.7534    5.4723 C.2       1 UNK         0.5000 
     81 O         -47.5924  -29.1112    4.3756 O.2       1 UNK        -0.5238 
     82 H82       -43.1323  -29.5713    8.9094 H         1 UNK         0.0889 
     83 H83       -44.5398  -28.7750    9.6122 H         1 UNK         0.0889 
     84 H84       -43.4620  -27.8761    8.5407 H         1 UNK         0.0889 
     85 H85       -46.4632  -29.2305    8.5669 H         1 UNK         0.3028 
     86 H86       -46.6190  -30.7090    6.1589 H         1 UNK         0.0864 
     87 H87       -48.9261  -29.1636    7.4293 H         1 UNK         0.0720 
     88 H88       -49.0337  -30.5653    6.4167 H         1 UNK         0.0720 
     89 H89       -48.0953  -29.2873   10.0821 H         1 UNK         0.0814 
     90 H90       -48.8196  -30.6171   10.9418 H         1 UNK         0.0814 
     91 H91       -49.4870  -27.5610    9.1257 H         1 UNK         0.1469 
     92 H92       -53.7469  -27.8399    9.4434 H         1 UNK         0.1381 
     93 H93       -51.2929  -31.1882   10.5293 H         1 UNK         0.1206 
     94 H94       -53.8327  -31.3857    9.9124 H         1 UNK         0.0813 
     95 H95       -54.7908  -29.9306    9.9442 H         1 UNK         0.0813 
     96 H96       -53.5262  -28.2836   12.2542 H         1 UNK         0.0638 
     97 H97       -54.0202  -28.8552   13.8072 H         1 UNK         0.0638 
     98 H98       -56.0692  -28.6265   11.5730 H         1 UNK         0.0568 
     99 H99       -57.0991  -26.8725   14.3813 H         1 UNK         0.3450 
    100 H100      -57.9839  -28.2027   15.0853 H         1 UNK         0.3450 
    101 H101      -54.8796  -26.3695   12.9861 H         1 UNK         0.2987 
    102 H102      -55.6340  -24.2025   11.0937 H         1 UNK         0.0766 
    103 H103      -58.0591  -23.9209   10.7309 H         1 UNK         0.0798 
    104 H104      -57.4776  -22.6477   11.7883 H         1 UNK         0.0798 
    105 H105      -58.3719  -24.0116   12.4581 H         1 UNK         0.0798 
    106 H106      -54.7678  -23.5815   13.0272 H         1 UNK         0.3198 
    107 H107      -54.2485  -23.3339   15.0807 H         1 UNK         0.0843 
    108 H108      -56.5938  -23.5027   17.0490 H         1 UNK         0.0831 
    109 H109      -56.2207  -22.1162   16.0359 H         1 UNK         0.0831 
    110 H110      -55.0927  -22.6066   17.2886 H         1 UNK         0.0831 
    111 H111      -54.6284  -25.0714   17.2301 H         1 UNK         0.3133 
    112 H112      -52.9360  -26.7135   17.4927 H         1 UNK         0.0566 
    113 H113      -54.8078  -28.6823   16.0277 H         1 UNK         0.0814 
    114 H114      -55.3268  -27.6156   17.3211 H         1 UNK         0.0814 
    115 H115      -54.1646  -28.8811   17.6539 H         1 UNK         0.0814 
    116 H116      -52.0008  -27.4632   14.9835 H         1 UNK         0.3091 
    117 H117      -49.9598  -30.2930   15.9293 H         1 UNK         0.0702 
    118 H118      -50.2272  -30.3702   13.4920 H         1 UNK         0.0785 
    119 H119      -51.3432  -29.0137   13.5079 H         1 UNK         0.0785 
    120 H120      -51.8031  -30.5438   14.2452 H         1 UNK         0.0785 
    121 H121      -49.6310  -27.5839   14.7000 H         1 UNK         0.2998 
    122 H122      -46.5070  -27.1093   16.1467 H         1 UNK         0.0697 
    123 H123      -45.4506  -27.0344   13.8725 H         1 UNK         0.0825 
    124 H124      -46.6976  -28.1192   13.2573 H         1 UNK         0.0825 
    125 H125      -45.5677  -28.6781   14.4809 H         1 UNK         0.0825 
    126 H126      -47.8782  -25.9982   13.8249 H         1 UNK         0.3029 
    127 H127      -50.1308  -24.0168   15.6350 H         1 UNK         0.0897 
    128 H128      -47.5469  -22.8416   14.4688 H         1 UNK         0.0792 
    129 H129      -48.1248  -22.5874   16.1097 H         1 UNK         0.0792 
    130 H130      -49.0508  -21.9640   14.7561 H         1 UNK         0.0792 
    131 H131      -49.3748  -23.6704   12.9618 H         1 UNK         0.3086 
    132 H132      -50.7940  -26.5610   11.5230 H         1 UNK         0.0583 
    133 H133      -52.8020  -25.1705   12.1053 H         1 UNK         0.1020 
    134 H134      -51.9747  -23.7413   11.5729 H         1 UNK         0.1020 
    135 H135      -52.1598  -26.1486    7.7240 H         1 UNK         0.0694 
    136 H136      -50.7624  -25.6479    8.6178 H         1 UNK         0.0694 
    137 H137      -49.8219  -24.3197   10.1723 H         1 UNK         0.2989 
    138 H138      -46.5846  -24.2780   10.5094 H         1 UNK         0.1055 
    139 H139      -45.9392  -26.5654    9.9741 H         1 UNK         0.0806 
    140 H140      -45.8178  -25.6130    8.5068 H         1 UNK         0.0806 
    141 H141      -47.1866  -26.7045    8.7487 H         1 UNK         0.0806 
    142 H142      -48.1494  -24.4444    8.0308 H         1 UNK         0.3061 
    143 H143      -49.4125  -21.2482    8.1575 H         1 UNK         0.0734 
    144 H144      -46.5603  -21.4816    7.0514 H         1 UNK         0.0832 
    145 H145      -47.7671  -20.2997    6.5411 H         1 UNK         0.0832 
    146 H146      -47.1325  -20.2584    8.1762 H         1 UNK         0.0832 
    147 H147      -48.2723  -22.9296    6.0274 H         1 UNK         0.3156 
    148 H148      -51.1355  -24.9146    5.6541 H         1 UNK         0.0589 
    149 H149      -51.2858  -24.0499    3.3366 H         1 UNK         0.0808 
    150 H150      -50.3497  -22.6200    3.7767 H         1 UNK         0.0808 
    151 H151      -51.9503  -22.8749    4.4573 H         1 UNK         0.0808 
    152 H152      -48.9204  -24.6880    3.9341 H         1 UNK         0.3098 
    153 H153      -47.4656  -26.5869    3.9691 H         1 UNK         0.0720 
    154 H154      -46.3065  -24.4255    4.4122 H         1 UNK         0.0791 
    155 H155      -45.1678  -25.7451    4.6106 H         1 UNK         0.0791 
    156 H156      -45.8540  -24.9543    6.0274 H         1 UNK         0.0791 
    157 H157      -46.5472  -27.3031    6.7202 H         1 UNK         0.3028 
@<TRIPOS>BOND
     1    1    2 1    
     2    1   82 1    
     3    1   83 1    
     4    1   84 1    
     5    2    3 2    
     6    2    4 am   BACKBONE|DICT|INTERRES
     7    4    5 1    
     8    4   85 1    
     9    5    6 1    
    10    5   80 1    
    11    5   86 1    
    12    6    7 1    
    13    6   87 1    
    14    6   88 1    
    15    7    8 1    
    16    8    9 1    
    17    8   89 1    
    18    8   90 1    
    19    9   10 ar   
    20    9   14 ar   
    21   10   11 ar   
    22   10   91 1    
    23   11   12 ar   
    24   11   58 1    
    25   12   13 ar   
    26   12   92 1    
    27   13   14 ar   
    28   13   15 1    
    29   14   93 1    
    30   15   16 1    
    31   15   94 1    
    32   15   95 1    
    33   16   17 1    
    34   17   18 1    
    35   17   96 1    
    36   17   97 1    
    37   18   19 1    
    38   18   22 1    
    39   18   98 1    
    40   19   20 am   BACKBONE|DICT|INTERRES
    41   19   21 2    
    42   20   99 1    
    43   20  100 1    
    44   22   23 am   BACKBONE|DICT|INTERRES
    45   22  101 1    
    46   23   24 2    
    47   23   25 1    
    48   25   26 1    
    49   25   27 1    
    50   25  102 1    
    51   26  103 1    
    52   26  104 1    
    53   26  105 1    
    54   27   28 am   BACKBONE|DICT|INTERRES
    55   27  106 1    
    56   28   29 2    
    57   28   30 1    
    58   30   31 1    
    59   30   32 1    
    60   30  107 1    
    61   31  108 1    
    62   31  109 1    
    63   31  110 1    
    64   32   33 am   BACKBONE|DICT|INTERRES
    65   32  111 1    
    66   33   34 2    
    67   33   35 1    
    68   35   36 1    
    69   35   37 1    
    70   35  112 1    
    71   36  113 1    
    72   36  114 1    
    73   36  115 1    
    74   37   38 am   BACKBONE|DICT|INTERRES
    75   37  116 1    
    76   38   39 2    
    77   38   40 1    
    78   40   41 1    
    79   40   42 1    
    80   40  117 1    
    81   41  118 1    
    82   41  119 1    
    83   41  120 1    
    84   42   43 am   BACKBONE|DICT|INTERRES
    85   42  121 1    
    86   43   44 2    
    87   43   45 1    
    88   45   46 1    
    89   45   47 1    
    90   45  122 1    
    91   46  123 1    
    92   46  124 1    
    93   46  125 1    
    94   47   48 am   BACKBONE|DICT|INTERRES
    95   47  126 1    
    96   48   49 2    
    97   48   50 1    
    98   50   51 1    
    99   50   52 1    
   100   50  127 1    
   101   51  128 1    
   102   51  129 1    
   103   51  130 1    
   104   52   53 am   BACKBONE|DICT|INTERRES
   105   52  131 1    
   106   53   54 2    
   107   53   55 1    
   108   55   56 1    
   109   55   59 1    
   110   55  132 1    
   111   56   57 1    
   112   56  133 1    
   113   56  134 1    
   114   57   58 1    
   115   58  135 1    
   116   58  136 1    
   117   59   60 am   BACKBONE|DICT|INTERRES
   118   59  137 1    
   119   60   61 2    
   120   60   62 1    
   121   62   63 1    
   122   62   64 1    
   123   62  138 1    
   124   63  139 1    
   125   63  140 1    
   126   63  141 1    
   127   64   65 am   BACKBONE|DICT|INTERRES
   128   64  142 1    
   129   65   66 2    
   130   65   67 1    
   131   67   68 1    
   132   67   69 1    
   133   67  143 1    
   134   68  144 1    
   135   68  145 1    
   136   68  146 1    
   137   69   70 am   BACKBONE|DICT|INTERRES
   138   69  147 1    
   139   70   71 2    
   140   70   72 1    
   141   72   73 1    
   142   72   74 1    
   143   72  148 1    
   144   73  149 1    
   145   73  150 1    
   146   73  151 1    
   147   74   75 am   BACKBONE|DICT|INTERRES
   148   74  152 1    
   149   75   76 2    
   150   75   77 1    
   151   77   78 1    
   152   77   79 1    
   153   77  153 1    
   154   78  154 1    
   155   78  155 1    
   156   78  156 1    
   157   79   80 am   BACKBONE|DICT|INTERRES
   158   79  157 1    
   159   80   81 2    
@<TRIPOS>SUBSTRUCTURE
     1 UNK         1 GROUP             0       ****    0 ROOT    
