@<TRIPOS>MOLECULE
3R207
157   159    1
SMALL
USER_CHARGES


@<TRIPOS>ATOM
      1 CA        -44.8011  -27.1517    6.3819 C.3       0 UNK        -0.1975 
      2 C         -45.8828  -27.9672    5.6897 C.2       0 UNK         0.4852 
      3 O         -45.8826  -28.0755    4.4631 O.2       0 UNK        -0.5216 
      4 N         -46.8275  -28.5202    6.4610 N.am      1 UNK        -0.4461 
      5 CA        -47.9577  -29.3484    6.0111 C.3       1 UNK         0.0864 
      6 C6        -48.4529  -30.2300    7.1885 C.3       14 UNK        -0.0898 
      7 S7        -49.2267  -31.8114    6.6879 S.3       14 UNK        -0.2598 
      8 C8        -51.0232  -31.5561    6.9598 C.3       14 UNK         0.0286 
      9 C9        -51.3783  -30.8286    8.2551 C.ar      14 UNK        -0.0844 
     10 C10       -50.7473  -31.1516    9.4601 C.ar      14 UNK        -0.0881 
     11 C11       -50.9902  -30.4015   10.6137 C.ar      14 UNK        -0.0643 
     12 C12       -51.9303  -29.3664   10.5791 C.ar      14 UNK        -0.0930 
     13 C13       -52.6077  -29.0672    9.3935 C.ar      14 UNK        -0.0827 
     14 C14       -52.3205  -29.7951    8.2348 C.ar      14 UNK        -0.1249 
     15 C15       -53.6255  -27.9381    9.3521 C.3       14 UNK         0.0141 
     16 S16       -55.2587  -28.4891    9.9327 S.3       14 UNK        -0.2313 
     17 C17       -56.3166  -27.1307    9.3281 C.3       14 UNK        -0.0915 
     18 CA        -56.1731  -25.7996   10.1174 C.3       13 UNK         0.0968 
     19 C         -57.0074  -24.6746    9.4530 C.2       13 UNK         0.5732 
     20 N         -56.5023  -24.0774    8.3823 N.am      13 UNK        -0.7310 
     21 O         -58.1162  -24.3540    9.8802 O.2       13 UNK        -0.5035 
     22 N         -56.5492  -25.9371   11.5311 N.am      13 UNK        -0.4233 
     23 C         -55.6886  -25.9895   12.5501 C.2       13 UNK         0.4989 
     24 O         -54.4644  -26.0264   12.4188 O.2       13 UNK        -0.4996 
     25 CA        -56.2909  -26.0147   13.9588 C.3       12 UNK         0.0216 
     26 CB        -56.8085  -27.4222   14.3113 C.3       12 UNK        -0.1964 
     27 N         -55.2487  -25.6184   14.9001 N.am      12 UNK        -0.4276 
     28 C         -55.4240  -25.1482   16.1396 C.2       12 UNK         0.5020 
     29 O         -56.5297  -24.9495   16.6477 O.2       12 UNK        -0.5489 
     30 CA        -54.1350  -24.8710   16.9402 C.3       11 UNK         0.0294 
     31 CB        -54.3805  -24.6456   18.4475 C.3       11 UNK        -0.2019 
     32 N         -53.1214  -25.9073   16.7063 N.am      11 UNK        -0.4493 
     33 C         -53.2072  -27.2117   17.0103 C.2       11 UNK         0.4932 
     34 O         -54.1172  -27.7132   17.6711 O.2       11 UNK        -0.5029 
     35 CA        -52.1093  -28.1296   16.4484 C.3       10 UNK         0.0280 
     36 CB        -52.5469  -28.6930   15.0855 C.3       10 UNK        -0.1976 
     37 N         -50.8046  -27.4768   16.3095 N.am      10 UNK        -0.4242 
     38 C         -50.0190  -27.1173   17.3350 C.2       10 UNK         0.5072 
     39 O         -50.3102  -27.2960   18.5187 O.2       10 UNK        -0.5224 
     40 CA        -48.6757  -26.4534   16.9854 C.3       9 UNK         0.0343 
     41 CB        -47.6450  -27.5061   16.5453 C.3       9 UNK        -0.2003 
     42 N         -48.8028  -25.4261   15.9505 N.am      9 UNK        -0.4272 
     43 C         -49.4102  -24.2431   16.1256 C.2       9 UNK         0.4988 
     44 O         -49.8737  -23.8616   17.2006 O.2       9 UNK        -0.5108 
     45 CA        -49.5471  -23.3380   14.8873 C.3       8 UNK         0.0248 
     46 CB        -48.2527  -22.5474   14.6406 C.3       8 UNK        -0.2001 
     47 N         -49.9180  -24.0757   13.6768 N.am      8 UNK        -0.4140 
     48 C         -51.0562  -24.7711   13.5360 C.2       8 UNK         0.5028 
     49 O         -51.9409  -24.8268   14.3901 O.2       8 UNK        -0.5428 
     50 CA        -51.2144  -25.5791   12.2417 C.3       7 UNK         0.0264 
     51 CB        -51.7228  -24.6750   11.1112 C.3       7 UNK        -0.1988 
     52 N         -49.9824  -26.2671   11.8457 N.am      7 UNK        -0.4454 
     53 C         -49.3996  -27.2249   12.5841 C.2       7 UNK         0.5027 
     54 O         -49.8601  -27.6415   13.6462 O.2       7 UNK        -0.5083 
     55 CA        -48.0435  -27.7613   12.0925 C.3       6 UNK         0.0844 
     56 C56       -48.2140  -28.8238   10.9788 C.3       14 UNK        -0.0967 
     57 S57       -48.4008  -30.5139   11.6516 S.3       14 UNK        -0.2604 
     58 C58       -50.2052  -30.6869   11.8849 C.3       14 UNK         0.0134 
     59 N         -47.1583  -26.6625   11.7010 N.am      6 UNK        -0.4116 
     60 C         -46.6535  -25.7665   12.5630 C.2       5 UNK         0.5034 
     61 O         -46.8430  -25.8024   13.7784 O.2       5 UNK        -0.5045 
     62 CA        -45.8266  -24.6122   11.9743 C.3       5 UNK         0.0224 
     63 CB        -44.3351  -24.9813   11.9453 C.3       5 UNK        -0.1978 
     64 N         -46.2529  -24.2029   10.6336 N.am      5 UNK        -0.4737 
     65 C         -47.4621  -23.7171   10.3208 C.2       4 UNK         0.5027 
     66 O         -48.3645  -23.5617   11.1469 O.2       4 UNK        -0.5211 
     67 CA        -47.7045  -23.3441    8.8429 C.3       4 UNK         0.0297 
     68 CB        -46.5876  -23.8177    7.8821 C.3       4 UNK        -0.1993 
     69 N         -49.0049  -23.7994    8.3407 N.am      4 UNK        -0.4486 
     70 C         -49.4794  -25.0530    8.3322 C.2       3 UNK         0.4961 
     71 O         -48.9159  -26.0125    8.8653 O.2       3 UNK        -0.5105 
     72 CA        -50.8076  -25.2873    7.5867 C.3       3 UNK         0.0299 
     73 CB        -51.7032  -24.0334    7.4522 C.3       3 UNK        -0.1972 
     74 N         -50.5651  -25.9095    6.2845 N.am      3 UNK        -0.4305 
     75 C         -49.8735  -25.4197    5.2445 C.2       2 UNK         0.5006 
     76 O         -49.4289  -24.2719    5.1862 O.2       2 UNK        -0.5106 
     77 CA        -49.5940  -26.4156    4.0979 C.3       2 UNK         0.0296 
     78 CB        -48.9455  -25.7454    2.8723 C.3       2 UNK        -0.2002 
     79 N         -48.7250  -27.5022    4.5584 N.am      2 UNK        -0.4032 
     80 C         -49.0877  -28.4888    5.3889 C.2       1 UNK         0.5000 
     81 O         -50.2635  -28.6690    5.7119 O.2       1 UNK        -0.5238 
     82 H82       -44.9218  -27.1480    7.4650 H         1 UNK         0.0889 
     83 H83       -44.8287  -26.1197    6.0330 H         1 UNK         0.0889 
     84 H84       -43.8184  -27.5627    6.1523 H         1 UNK         0.0889 
     85 H85       -46.7959  -28.3525    7.4561 H         1 UNK         0.3028 
     86 H86       -47.5904  -30.0063    5.2205 H         1 UNK         0.0864 
     87 H87       -47.6032  -30.5233    7.8074 H         1 UNK         0.0720 
     88 H88       -49.0922  -29.6546    7.8581 H         1 UNK         0.0720 
     89 H89       -51.5175  -32.5281    6.9590 H         1 UNK         0.0814 
     90 H90       -51.4214  -31.0146    6.1007 H         1 UNK         0.0814 
     91 H91       -50.0139  -31.9460    9.4865 H         1 UNK         0.1469 
     92 H92       -52.1306  -28.7866   11.4701 H         1 UNK         0.1381 
     93 H93       -52.8184  -29.5426    7.3084 H         1 UNK         0.1206 
     94 H94       -53.2897  -27.1162    9.9834 H         1 UNK         0.0813 
     95 H95       -53.7049  -27.5419    8.3386 H         1 UNK         0.0813 
     96 H96       -57.3508  -27.4775    9.3656 H         1 UNK         0.0638 
     97 H97       -56.0917  -26.9785    8.2708 H         1 UNK         0.0638 
     98 H98       -55.1326  -25.4749   10.0565 H         1 UNK         0.0568 
     99 H99       -57.0371  -23.3509    7.9327 H         1 UNK         0.3450 
    100 H100      -55.6013  -24.3357    8.0131 H         1 UNK         0.3450 
    101 H101      -57.5404  -25.8656   11.7145 H         1 UNK         0.2987 
    102 H102      -57.1089  -25.2927   14.0036 H         1 UNK         0.0766 
    103 H103      -57.2436  -27.4481   15.3105 H         1 UNK         0.0798 
    104 H104      -56.0080  -28.1626   14.2770 H         1 UNK         0.0798 
    105 H105      -57.5825  -27.7445   13.6137 H         1 UNK         0.0798 
    106 H106      -54.3084  -25.6843   14.5217 H         1 UNK         0.3198 
    107 H107      -53.7191  -23.9476   16.5339 H         1 UNK         0.0843 
    108 H108      -54.8693  -25.5011   18.9140 H         1 UNK         0.0831 
    109 H109      -55.0227  -23.7793   18.6104 H         1 UNK         0.0831 
    110 H110      -53.4461  -24.4612   18.9774 H         1 UNK         0.0831 
    111 H111      -52.3733  -25.6210   16.0779 H         1 UNK         0.3133 
    112 H112      -51.9933  -28.9672   17.1394 H         1 UNK         0.0566 
    113 H113      -51.8288  -29.4216   14.7103 H         1 UNK         0.0814 
    114 H114      -53.5111  -29.1977   15.1603 H         1 UNK         0.0814 
    115 H115      -52.6485  -27.9058   14.3369 H         1 UNK         0.0814 
    116 H116      -50.4589  -27.3515   15.3592 H         1 UNK         0.3091 
    117 H117      -48.2982  -25.9725   17.8903 H         1 UNK         0.0702 
    118 H118      -46.6667  -27.0551   16.3781 H         1 UNK         0.0785 
    119 H119      -47.9431  -28.0047   15.6223 H         1 UNK         0.0785 
    120 H120      -47.5219  -28.2757   17.3084 H         1 UNK         0.0785 
    121 H121      -48.3870  -25.6351   15.0482 H         1 UNK         0.2998 
    122 H122      -50.3477  -22.6229   15.0876 H         1 UNK         0.0697 
    123 H123      -47.4014  -23.2073   14.4766 H         1 UNK         0.0825 
    124 H124      -48.0135  -21.9181   15.4988 H         1 UNK         0.0825 
    125 H125      -48.3436  -21.8936   13.7728 H         1 UNK         0.0825 
    126 H126      -49.2725  -24.0424   12.8929 H         1 UNK         0.3029 
    127 H127      -51.9630  -26.3499   12.4287 H         1 UNK         0.0897 
    128 H128      -51.9781  -25.2580   10.2313 H         1 UNK         0.0792 
    129 H129      -52.6288  -24.1480   11.4142 H         1 UNK         0.0792 
    130 H130      -50.9881  -23.9220   10.8265 H         1 UNK         0.0792 
    131 H131      -49.5301  -25.9617   10.9916 H         1 UNK         0.3086 
    132 H132      -47.5613  -28.2418   12.9473 H         1 UNK         0.0583 
    133 H133      -49.0242  -28.5776   10.2894 H         1 UNK         0.1020 
    134 H134      -47.3172  -28.8526   10.3584 H         1 UNK         0.1020 
    135 H135      -50.4205  -31.7048   12.2121 H         1 UNK         0.0694 
    136 H136      -50.5257  -30.0338   12.6963 H         1 UNK         0.0694 
    137 H137      -46.9986  -26.5270   10.7132 H         1 UNK         0.2989 
    138 H138      -45.9528  -23.7526   12.6354 H         1 UNK         0.1055 
    139 H139      -43.9855  -25.2689   12.9381 H         1 UNK         0.0806 
    140 H140      -43.7231  -24.1390   11.6218 H         1 UNK         0.0806 
    141 H141      -44.1370  -25.8189   11.2752 H         1 UNK         0.0806 
    142 H142      -45.5701  -24.2897    9.8946 H         1 UNK         0.3061 
    143 H143      -47.7297  -22.2541    8.8108 H         1 UNK         0.0734 
    144 H144      -46.8138  -23.5341    6.8538 H         1 UNK         0.0832 
    145 H145      -45.6261  -23.3646    8.1264 H         1 UNK         0.0832 
    146 H146      -46.4669  -24.9016    7.8996 H         1 UNK         0.0832 
    147 H147      -49.5640  -23.0929    7.8839 H         1 UNK         0.3156 
    148 H148      -51.3580  -26.0283    8.1671 H         1 UNK         0.0589 
    149 H149      -51.2715  -23.2748    6.7992 H         1 UNK         0.0808 
    150 H150      -51.8841  -23.5659    8.4202 H         1 UNK         0.0808 
    151 H151      -52.6770  -24.2979    7.0403 H         1 UNK         0.0808 
    152 H152      -50.7909  -26.9006    6.2311 H         1 UNK         0.3098 
    153 H153      -50.5515  -26.8366    3.7836 H         1 UNK         0.0720 
    154 H154      -49.5712  -24.9362    2.4932 H         1 UNK         0.0791 
    155 H155      -48.8089  -26.4570    2.0578 H         1 UNK         0.0791 
    156 H156      -47.9701  -25.3200    3.1125 H         1 UNK         0.0791 
    157 H157      -47.7358  -27.4264    4.3416 H         1 UNK         0.3028 
@<TRIPOS>BOND
     1    1    2 1    
     2    1   82 1    
     3    1   83 1    
     4    1   84 1    
     5    2    3 2    
     6    2    4 am   BACKBONE|DICT|INTERRES
     7    4    5 1    
     8    4   85 1    
     9    5    6 1    
    10    5   80 1    
    11    5   86 1    
    12    6    7 1    
    13    6   87 1    
    14    6   88 1    
    15    7    8 1    
    16    8    9 1    
    17    8   89 1    
    18    8   90 1    
    19    9   10 ar   
    20    9   14 ar   
    21   10   11 ar   
    22   10   91 1    
    23   11   12 ar   
    24   11   58 1    
    25   12   13 ar   
    26   12   92 1    
    27   13   14 ar   
    28   13   15 1    
    29   14   93 1    
    30   15   16 1    
    31   15   94 1    
    32   15   95 1    
    33   16   17 1    
    34   17   18 1    
    35   17   96 1    
    36   17   97 1    
    37   18   19 1    
    38   18   22 1    
    39   18   98 1    
    40   19   20 am   BACKBONE|DICT|INTERRES
    41   19   21 2    
    42   20   99 1    
    43   20  100 1    
    44   22   23 am   BACKBONE|DICT|INTERRES
    45   22  101 1    
    46   23   24 2    
    47   23   25 1    
    48   25   26 1    
    49   25   27 1    
    50   25  102 1    
    51   26  103 1    
    52   26  104 1    
    53   26  105 1    
    54   27   28 am   BACKBONE|DICT|INTERRES
    55   27  106 1    
    56   28   29 2    
    57   28   30 1    
    58   30   31 1    
    59   30   32 1    
    60   30  107 1    
    61   31  108 1    
    62   31  109 1    
    63   31  110 1    
    64   32   33 am   BACKBONE|DICT|INTERRES
    65   32  111 1    
    66   33   34 2    
    67   33   35 1    
    68   35   36 1    
    69   35   37 1    
    70   35  112 1    
    71   36  113 1    
    72   36  114 1    
    73   36  115 1    
    74   37   38 am   BACKBONE|DICT|INTERRES
    75   37  116 1    
    76   38   39 2    
    77   38   40 1    
    78   40   41 1    
    79   40   42 1    
    80   40  117 1    
    81   41  118 1    
    82   41  119 1    
    83   41  120 1    
    84   42   43 am   BACKBONE|DICT|INTERRES
    85   42  121 1    
    86   43   44 2    
    87   43   45 1    
    88   45   46 1    
    89   45   47 1    
    90   45  122 1    
    91   46  123 1    
    92   46  124 1    
    93   46  125 1    
    94   47   48 am   BACKBONE|DICT|INTERRES
    95   47  126 1    
    96   48   49 2    
    97   48   50 1    
    98   50   51 1    
    99   50   52 1    
   100   50  127 1    
   101   51  128 1    
   102   51  129 1    
   103   51  130 1    
   104   52   53 am   BACKBONE|DICT|INTERRES
   105   52  131 1    
   106   53   54 2    
   107   53   55 1    
   108   55   56 1    
   109   55   59 1    
   110   55  132 1    
   111   56   57 1    
   112   56  133 1    
   113   56  134 1    
   114   57   58 1    
   115   58  135 1    
   116   58  136 1    
   117   59   60 am   BACKBONE|DICT|INTERRES
   118   59  137 1    
   119   60   61 2    
   120   60   62 1    
   121   62   63 1    
   122   62   64 1    
   123   62  138 1    
   124   63  139 1    
   125   63  140 1    
   126   63  141 1    
   127   64   65 am   BACKBONE|DICT|INTERRES
   128   64  142 1    
   129   65   66 2    
   130   65   67 1    
   131   67   68 1    
   132   67   69 1    
   133   67  143 1    
   134   68  144 1    
   135   68  145 1    
   136   68  146 1    
   137   69   70 am   BACKBONE|DICT|INTERRES
   138   69  147 1    
   139   70   71 2    
   140   70   72 1    
   141   72   73 1    
   142   72   74 1    
   143   72  148 1    
   144   73  149 1    
   145   73  150 1    
   146   73  151 1    
   147   74   75 am   BACKBONE|DICT|INTERRES
   148   74  152 1    
   149   75   76 2    
   150   75   77 1    
   151   77   78 1    
   152   77   79 1    
   153   77  153 1    
   154   78  154 1    
   155   78  155 1    
   156   78  156 1    
   157   79   80 am   BACKBONE|DICT|INTERRES
   158   79  157 1    
   159   80   81 2    
@<TRIPOS>SUBSTRUCTURE
     1 UNK         1 GROUP             0       ****    0 ROOT    
