@<TRIPOS>MOLECULE
3R207
157   159    1
SMALL
USER_CHARGES


@<TRIPOS>ATOM
      1 CA        -51.2123  -21.9469    4.5664 C.3       0 UNK        -0.1975 
      2 C         -50.8796  -22.9891    5.6234 C.2       0 UNK         0.4852 
      3 O         -50.9292  -22.6879    6.8160 O.2       0 UNK        -0.5216 
      4 N         -50.5394  -24.2130    5.1952 N.am      1 UNK        -0.4461 
      5 CA        -50.2151  -25.3452    6.0732 C.3       1 UNK         0.0864 
      6 C6        -50.2518  -26.7020    5.3221 C.3       14 UNK        -0.0898 
      7 S7        -51.8674  -27.0289    4.5340 S.3       14 UNK        -0.2598 
      8 C8        -52.5783  -28.3391    5.5967 C.3       14 UNK         0.0286 
      9 C9        -52.7522  -27.9326    7.0588 C.ar      14 UNK        -0.0844 
     10 C10       -53.1993  -26.6535    7.4054 C.ar      14 UNK        -0.0881 
     11 C11       -53.2813  -26.2595    8.7428 C.ar      14 UNK        -0.0643 
     12 C12       -52.9754  -27.1856    9.7455 C.ar      14 UNK        -0.0930 
     13 C13       -52.5736  -28.4825    9.4187 C.ar      14 UNK        -0.0827 
     14 C14       -52.4636  -28.8501    8.0742 C.ar      14 UNK        -0.1249 
     15 C15       -52.2433  -29.4740   10.5228 C.3       14 UNK         0.0141 
     16 S16       -53.7583  -30.1776   11.2379 S.3       14 UNK        -0.2313 
     17 C17       -53.0516  -31.2741   12.5118 C.3       14 UNK        -0.0915 
     18 CA        -54.0848  -31.6571   13.6031 C.3       13 UNK         0.0968 
     19 C         -53.4671  -32.6586   14.6165 C.2       13 UNK         0.5732 
     20 N         -53.5588  -33.9529   14.3433 N.am      13 UNK        -0.7310 
     21 O         -52.8712  -32.2728   15.6209 O.2       13 UNK        -0.5035 
     22 N         -54.6418  -30.4635   14.2521 N.am      13 UNK        -0.4233 
     23 C         -55.6951  -30.4424   15.0783 C.2       13 UNK         0.4989 
     24 O         -56.3492  -31.4403   15.3849 O.2       13 UNK        -0.4996 
     25 CA        -56.1036  -29.0736   15.6522 C.3       12 UNK         0.0216 
     26 CB        -55.6212  -28.9347   17.1052 C.3       12 UNK        -0.1964 
     27 N         -55.5955  -27.9492   14.8567 N.am      12 UNK        -0.4276 
     28 C         -56.1533  -27.5270   13.7096 C.2       12 UNK         0.5020 
     29 O         -57.1755  -28.0291   13.2389 O.2       12 UNK        -0.5489 
     30 CA        -55.4564  -26.3855   12.9342 C.3       11 UNK         0.0294 
     31 CB        -56.4601  -25.4380   12.2444 C.3       11 UNK        -0.2019 
     32 N         -54.4738  -25.6259   13.7173 N.am      11 UNK        -0.4493 
     33 C         -54.6900  -24.8941   14.8214 C.2       11 UNK         0.4932 
     34 O         -55.8058  -24.6783   15.2965 O.2       11 UNK        -0.5029 
     35 CA        -53.4330  -24.3498   15.5327 C.3       10 UNK         0.0280 
     36 CB        -53.6696  -24.0914   17.0355 C.3       10 UNK        -0.1976 
     37 N         -52.2375  -25.1856   15.3427 N.am      10 UNK        -0.4242 
     38 C         -52.0912  -26.4828   15.6565 C.2       10 UNK         0.5072 
     39 O         -52.9989  -27.1790   16.1115 O.2       10 UNK        -0.5224 
     40 CA        -50.7306  -27.1414   15.3692 C.3       9 UNK         0.0343 
     41 CB        -50.7975  -27.9499   14.0633 C.3       9 UNK        -0.2003 
     42 N         -49.6060  -26.2036   15.3020 N.am      9 UNK        -0.4272 
     43 C         -49.0804  -25.5624   16.3571 C.2       9 UNK         0.4988 
     44 O         -49.5138  -25.6616   17.5053 O.2       9 UNK        -0.5108 
     45 CA        -47.8606  -24.6666   16.0918 C.3       8 UNK         0.0248 
     46 CB        -46.5827  -25.5155   15.9805 C.3       8 UNK        -0.2001 
     47 N         -48.0348  -23.8847   14.8675 N.am      8 UNK        -0.4140 
     48 C         -48.4847  -22.6225   14.8254 C.2       8 UNK         0.5028 
     49 O         -48.7231  -21.9464   15.8271 O.2       8 UNK        -0.5428 
     50 CA        -48.7180  -21.9968   13.4341 C.3       7 UNK         0.0264 
     51 CB        -47.4921  -21.1744   13.0049 C.3       7 UNK        -0.1988 
     52 N         -49.0409  -22.9632   12.3782 N.am      7 UNK        -0.4454 
     53 C         -50.1107  -23.7731   12.3842 C.2       7 UNK         0.5027 
     54 O         -50.9523  -23.7714   13.2817 O.2       7 UNK        -0.5083 
     55 CA        -50.2243  -24.8128   11.2428 C.3       6 UNK         0.0844 
     56 C56       -51.0603  -24.2557   10.0619 C.3       14 UNK        -0.0967 
     57 S57       -52.8328  -24.0936   10.5000 S.3       14 UNK        -0.2604 
     58 C58       -53.6935  -24.8266    9.0679 C.3       14 UNK         0.0134 
     59 N         -48.9267  -25.3689   10.8161 N.am      6 UNK        -0.4116 
     60 C         -48.0085  -25.9015   11.6426 C.2       5 UNK         0.5034 
     61 O         -48.1651  -25.9929   12.8623 O.2       5 UNK        -0.5045 
     62 CA        -46.6838  -26.3694   11.0140 C.3       5 UNK         0.0224 
     63 CB        -45.7160  -26.9941   12.0420 C.3       5 UNK        -0.1978 
     64 N         -46.8821  -27.2667    9.8756 N.am      5 UNK        -0.4737 
     65 C         -47.5029  -28.4565    9.8595 C.2       4 UNK         0.5027 
     66 O         -47.9764  -29.0002   10.8572 O.2       4 UNK        -0.5211 
     67 CA        -47.6351  -29.1610    8.4959 C.3       4 UNK         0.0297 
     68 CB        -49.1161  -29.3540    8.1402 C.3       4 UNK        -0.1993 
     69 N         -46.9890  -28.4108    7.4160 N.am      4 UNK        -0.4486 
     70 C         -45.7329  -28.6013    6.9906 C.2       3 UNK         0.4961 
     71 O         -44.9910  -29.4870    7.4155 O.2       3 UNK        -0.5105 
     72 CA        -45.2053  -27.6314    5.9156 C.3       3 UNK         0.0299 
     73 CB        -45.3521  -28.2531    4.5174 C.3       3 UNK        -0.1972 
     74 N         -45.8614  -26.3191    5.9305 N.am      3 UNK        -0.4305 
     75 C         -45.7566  -25.4188    6.9196 C.2       2 UNK         0.5006 
     76 O         -45.0787  -25.5875    7.9324 O.2       2 UNK        -0.5106 
     77 CA        -46.6068  -24.1440    6.7860 C.3       2 UNK         0.0296 
     78 CB        -45.8833  -23.0926    5.9298 C.3       2 UNK        -0.2002 
     79 N         -47.9411  -24.3992    6.2332 N.am      2 UNK        -0.4032 
     80 C         -48.8738  -25.1706    6.8131 C.2       1 UNK         0.5000 
     81 O         -48.7027  -25.7445    7.8905 O.2       1 UNK        -0.5238 
     82 H82       -51.1321  -22.3493    3.5567 H         1 UNK         0.0889 
     83 H83       -50.5332  -21.0988    4.6492 H         1 UNK         0.0889 
     84 H84       -52.2300  -21.5837    4.7066 H         1 UNK         0.0889 
     85 H85       -50.5481  -24.4155    4.2051 H         1 UNK         0.3028 
     86 H86       -50.9734  -25.3712    6.8539 H         1 UNK         0.0864 
     87 H87       -50.0216  -27.5257    5.9986 H         1 UNK         0.0720 
     88 H88       -49.4873  -26.7295    4.5435 H         1 UNK         0.0720 
     89 H89       -51.9441  -29.2238    5.5204 H         1 UNK         0.0814 
     90 H90       -53.5526  -28.6231    5.1975 H         1 UNK         0.0814 
     91 H91       -53.4446  -25.9446    6.6264 H         1 UNK         0.1469 
     92 H92       -53.0405  -26.8984   10.7841 H         1 UNK         0.1381 
     93 H93       -52.1387  -29.8496    7.8190 H         1 UNK         0.1206 
     94 H94       -51.6210  -30.2836   10.1397 H         1 UNK         0.0813 
     95 H95       -51.6612  -28.9778   11.3005 H         1 UNK         0.0813 
     96 H96       -52.1849  -30.7874   12.9624 H         1 UNK         0.0638 
     97 H97       -52.6761  -32.1676   12.0094 H         1 UNK         0.0638 
     98 H98       -54.9184  -32.1621   13.1107 H         1 UNK         0.0568 
     99 H99       -53.1501  -34.6174   14.9816 H         1 UNK         0.3450 
    100 H100      -54.0336  -34.2800   13.5163 H         1 UNK         0.3450 
    101 H101      -54.1625  -29.5971   14.0677 H         1 UNK         0.2987 
    102 H102      -57.1950  -29.0308   15.6563 H         1 UNK         0.0766 
    103 H103      -55.8903  -27.9647   17.5240 H         1 UNK         0.0798 
    104 H104      -54.5394  -29.0471   17.1854 H         1 UNK         0.0798 
    105 H105      -56.0728  -29.6991   17.7389 H         1 UNK         0.0798 
    106 H106      -54.7546  -27.4945   15.2035 H         1 UNK         0.3198 
    107 H107      -54.8914  -26.8827   12.1460 H         1 UNK         0.0843 
    108 H108      -57.1237  -24.9575   12.9636 H         1 UNK         0.0831 
    109 H109      -57.0876  -25.9800   11.5360 H         1 UNK         0.0831 
    110 H110      -55.9462  -24.6560   11.6854 H         1 UNK         0.0831 
    111 H111      -53.5142  -25.7077   13.4125 H         1 UNK         0.3133 
    112 H112      -53.2099  -23.3915   15.0615 H         1 UNK         0.0566 
    113 H113      -52.7739  -23.6965   17.5151 H         1 UNK         0.0814 
    114 H114      -54.4660  -23.3621   17.1890 H         1 UNK         0.0814 
    115 H115      -53.9568  -25.0031   17.5606 H         1 UNK         0.0814 
    116 H116      -51.4739  -24.7226   14.8555 H         1 UNK         0.3091 
    117 H117      -50.5332  -27.8384   16.1864 H         1 UNK         0.0702 
    118 H118      -49.8580  -28.4671   13.8657 H         1 UNK         0.0785 
    119 H119      -51.0143  -27.3152   13.2056 H         1 UNK         0.0785 
    120 H120      -51.5798  -28.7077   14.1153 H         1 UNK         0.0785 
    121 H121      -49.1511  -26.1037   14.3971 H         1 UNK         0.2998 
    122 H122      -47.7426  -23.9979   16.9472 H         1 UNK         0.0697 
    123 H123      -46.6346  -26.2259   15.1545 H         1 UNK         0.0825 
    124 H124      -46.4168  -26.0897   16.8930 H         1 UNK         0.0825 
    125 H125      -45.7038  -24.8891   15.8279 H         1 UNK         0.0825 
    126 H126      -47.9111  -24.3881   13.9959 H         1 UNK         0.3029 
    127 H127      -49.5696  -21.3192   13.5273 H         1 UNK         0.0897 
    128 H128      -46.6114  -21.8032   12.8672 H         1 UNK         0.0792 
    129 H129      -47.2422  -20.4252   13.7577 H         1 UNK         0.0792 
    130 H130      -47.6764  -20.6421   12.0715 H         1 UNK         0.0792 
    131 H131      -48.3929  -23.0283   11.6069 H         1 UNK         0.3086 
    132 H132      -50.7713  -25.6633   11.6508 H         1 UNK         0.0583 
    133 H133      -50.6809  -23.2906    9.7202 H         1 UNK         0.1020 
    134 H134      -50.9722  -24.9243    9.2066 H         1 UNK         0.1020 
    135 H135      -54.7670  -24.8084    9.2591 H         1 UNK         0.0694 
    136 H136      -53.5192  -24.1782    8.2074 H         1 UNK         0.0694 
    137 H137      -48.7508  -25.3990    9.8150 H         1 UNK         0.2989 
    138 H138      -46.2035  -25.4736   10.6168 H         1 UNK         0.1055 
    139 H139      -45.4678  -26.2802   12.8283 H         1 UNK         0.0806 
    140 H140      -44.7797  -27.2955   11.5726 H         1 UNK         0.0806 
    141 H141      -46.1472  -27.8715   12.5254 H         1 UNK         0.0806 
    142 H142      -46.5290  -26.9162    8.9940 H         1 UNK         0.3061 
    143 H143      -47.1751  -30.1472    8.5874 H         1 UNK         0.0734 
    144 H144      -49.2414  -29.7927    7.1503 H         1 UNK         0.0832 
    145 H145      -49.5982  -30.0230    8.8529 H         1 UNK         0.0832 
    146 H146      -49.6577  -28.4077    8.1670 H         1 UNK         0.0832 
    147 H147      -47.5133  -27.6322    7.0429 H         1 UNK         0.3156 
    148 H148      -44.1420  -27.4752    6.1097 H         1 UNK         0.0589 
    149 H149      -46.3980  -28.4176    4.2546 H         1 UNK         0.0808 
    150 H150      -44.9075  -27.6182    3.7508 H         1 UNK         0.0808 
    151 H151      -44.8482  -29.2195    4.4657 H         1 UNK         0.0808 
    152 H152      -46.4333  -26.0883    5.1310 H         1 UNK         0.3098 
    153 H153      -46.7398  -23.7325    7.7889 H         1 UNK         0.0720 
    154 H154      -46.4357  -22.1529    5.9056 H         1 UNK         0.0791 
    155 H155      -45.7467  -23.4288    4.9012 H         1 UNK         0.0791 
    156 H156      -44.8943  -22.8736    6.3351 H         1 UNK         0.0791 
    157 H157      -48.1708  -23.9486    5.3592 H         1 UNK         0.3028 
@<TRIPOS>BOND
     1    1    2 1    
     2    1   82 1    
     3    1   83 1    
     4    1   84 1    
     5    2    3 2    
     6    2    4 am   BACKBONE|DICT|INTERRES
     7    4    5 1    
     8    4   85 1    
     9    5    6 1    
    10    5   80 1    
    11    5   86 1    
    12    6    7 1    
    13    6   87 1    
    14    6   88 1    
    15    7    8 1    
    16    8    9 1    
    17    8   89 1    
    18    8   90 1    
    19    9   10 ar   
    20    9   14 ar   
    21   10   11 ar   
    22   10   91 1    
    23   11   12 ar   
    24   11   58 1    
    25   12   13 ar   
    26   12   92 1    
    27   13   14 ar   
    28   13   15 1    
    29   14   93 1    
    30   15   16 1    
    31   15   94 1    
    32   15   95 1    
    33   16   17 1    
    34   17   18 1    
    35   17   96 1    
    36   17   97 1    
    37   18   19 1    
    38   18   22 1    
    39   18   98 1    
    40   19   20 am   BACKBONE|DICT|INTERRES
    41   19   21 2    
    42   20   99 1    
    43   20  100 1    
    44   22   23 am   BACKBONE|DICT|INTERRES
    45   22  101 1    
    46   23   24 2    
    47   23   25 1    
    48   25   26 1    
    49   25   27 1    
    50   25  102 1    
    51   26  103 1    
    52   26  104 1    
    53   26  105 1    
    54   27   28 am   BACKBONE|DICT|INTERRES
    55   27  106 1    
    56   28   29 2    
    57   28   30 1    
    58   30   31 1    
    59   30   32 1    
    60   30  107 1    
    61   31  108 1    
    62   31  109 1    
    63   31  110 1    
    64   32   33 am   BACKBONE|DICT|INTERRES
    65   32  111 1    
    66   33   34 2    
    67   33   35 1    
    68   35   36 1    
    69   35   37 1    
    70   35  112 1    
    71   36  113 1    
    72   36  114 1    
    73   36  115 1    
    74   37   38 am   BACKBONE|DICT|INTERRES
    75   37  116 1    
    76   38   39 2    
    77   38   40 1    
    78   40   41 1    
    79   40   42 1    
    80   40  117 1    
    81   41  118 1    
    82   41  119 1    
    83   41  120 1    
    84   42   43 am   BACKBONE|DICT|INTERRES
    85   42  121 1    
    86   43   44 2    
    87   43   45 1    
    88   45   46 1    
    89   45   47 1    
    90   45  122 1    
    91   46  123 1    
    92   46  124 1    
    93   46  125 1    
    94   47   48 am   BACKBONE|DICT|INTERRES
    95   47  126 1    
    96   48   49 2    
    97   48   50 1    
    98   50   51 1    
    99   50   52 1    
   100   50  127 1    
   101   51  128 1    
   102   51  129 1    
   103   51  130 1    
   104   52   53 am   BACKBONE|DICT|INTERRES
   105   52  131 1    
   106   53   54 2    
   107   53   55 1    
   108   55   56 1    
   109   55   59 1    
   110   55  132 1    
   111   56   57 1    
   112   56  133 1    
   113   56  134 1    
   114   57   58 1    
   115   58  135 1    
   116   58  136 1    
   117   59   60 am   BACKBONE|DICT|INTERRES
   118   59  137 1    
   119   60   61 2    
   120   60   62 1    
   121   62   63 1    
   122   62   64 1    
   123   62  138 1    
   124   63  139 1    
   125   63  140 1    
   126   63  141 1    
   127   64   65 am   BACKBONE|DICT|INTERRES
   128   64  142 1    
   129   65   66 2    
   130   65   67 1    
   131   67   68 1    
   132   67   69 1    
   133   67  143 1    
   134   68  144 1    
   135   68  145 1    
   136   68  146 1    
   137   69   70 am   BACKBONE|DICT|INTERRES
   138   69  147 1    
   139   70   71 2    
   140   70   72 1    
   141   72   73 1    
   142   72   74 1    
   143   72  148 1    
   144   73  149 1    
   145   73  150 1    
   146   73  151 1    
   147   74   75 am   BACKBONE|DICT|INTERRES
   148   74  152 1    
   149   75   76 2    
   150   75   77 1    
   151   77   78 1    
   152   77   79 1    
   153   77  153 1    
   154   78  154 1    
   155   78  155 1    
   156   78  156 1    
   157   79   80 am   BACKBONE|DICT|INTERRES
   158   79  157 1    
   159   80   81 2    
@<TRIPOS>SUBSTRUCTURE
     1 UNK         1 GROUP             0       ****    0 ROOT    
