@<TRIPOS>MOLECULE
3R207
157   159    1
SMALL
USER_CHARGES


@<TRIPOS>ATOM
      1 CA        -47.3250  -28.7526    2.7801 C.3       0 UNK        -0.1975 
      2 C         -47.6435  -28.1880    4.1561 C.2       0 UNK         0.4852 
      3 O         -46.7277  -27.7954    4.8788 O.2       0 UNK        -0.5216 
      4 N         -48.9354  -28.1254    4.5102 N.am      1 UNK        -0.4461 
      5 CA        -49.5214  -27.6787    5.7887 C.3       1 UNK         0.0864 
      6 C6        -49.0552  -28.4833    7.0336 C.3       14 UNK        -0.0898 
      7 S7        -49.1479  -30.2954    6.8284 S.3       14 UNK        -0.2598 
      8 C8        -50.9071  -30.6436    7.1740 C.3       14 UNK         0.0286 
      9 C9        -51.3600  -30.3001    8.5914 C.ar      14 UNK        -0.0844 
     10 C10       -50.5324  -30.5169    9.6988 C.ar      14 UNK        -0.0881 
     11 C11       -50.9647  -30.1912   10.9876 C.ar      14 UNK        -0.0643 
     12 C12       -52.2518  -29.6781   11.1736 C.ar      14 UNK        -0.0930 
     13 C13       -53.1009  -29.4856   10.0800 C.ar      14 UNK        -0.0827 
     14 C14       -52.6451  -29.7887    8.7938 C.ar      14 UNK        -0.1249 
     15 C15       -54.5134  -28.9555   10.2738 C.3       14 UNK         0.0141 
     16 S16       -55.7052  -30.3144   10.4872 S.3       14 UNK        -0.2313 
     17 C17       -55.7396  -30.4842   12.3027 C.3       14 UNK        -0.0915 
     18 CA        -57.0211  -29.8470   12.9154 C.3       13 UNK         0.0968 
     19 C         -58.1348  -30.9003   13.1897 C.2       13 UNK         0.5732 
     20 N         -58.5683  -31.1034   14.4285 N.am      13 UNK        -0.7310 
     21 O         -58.6239  -31.5378   12.2603 O.2       13 UNK        -0.5035 
     22 N         -56.6899  -28.9910   14.0630 N.am      13 UNK        -0.4233 
     23 C         -57.4143  -27.9484   14.4825 C.2       13 UNK         0.4989 
     24 O         -58.4645  -27.5887   13.9487 O.2       13 UNK        -0.4996 
     25 CA        -56.8889  -27.1524   15.6911 C.3       12 UNK         0.0216 
     26 CB        -57.5368  -27.6405   17.0015 C.3       12 UNK        -0.1964 
     27 N         -55.4247  -27.0863   15.8080 N.am      12 UNK        -0.4276 
     28 C         -54.5397  -28.0552   16.0851 C.2       12 UNK         0.5020 
     29 O         -54.8509  -29.2365   16.2420 O.2       12 UNK        -0.5489 
     30 CA        -53.0514  -27.6588   16.1608 C.3       11 UNK         0.0294 
     31 CB        -52.2793  -28.2524   14.9717 C.3       11 UNK        -0.2019 
     32 N         -52.8263  -26.2108   16.1909 N.am      11 UNK        -0.4493 
     33 C         -53.1145  -25.3998   17.2188 C.2       11 UNK         0.4932 
     34 O         -53.5384  -25.7911   18.3060 O.2       11 UNK        -0.5029 
     35 CA        -52.9415  -23.8939   16.9703 C.3       10 UNK         0.0280 
     36 CB        -51.4930  -23.4592   17.2448 C.3       10 UNK        -0.1976 
     37 N         -53.3174  -23.5301   15.6009 N.am      10 UNK        -0.4242 
     38 C         -54.5791  -23.3617   15.1790 C.2       10 UNK         0.5072 
     39 O         -55.5632  -23.4590   15.9122 O.2       10 UNK        -0.5224 
     40 CA        -54.7866  -23.0465   13.6861 C.3       9 UNK         0.0343 
     41 CB        -54.6728  -21.5345   13.4342 C.3       9 UNK        -0.2003 
     42 N         -53.8534  -23.7571   12.8091 N.am      9 UNK        -0.4272 
     43 C         -53.8763  -25.0794   12.5890 C.2       9 UNK         0.4988 
     44 O         -54.7191  -25.8387   13.0652 O.2       9 UNK        -0.5108 
     45 CA        -52.7522  -25.6621   11.7124 C.3       8 UNK         0.0248 
     46 CB        -53.1505  -25.6158   10.2284 C.3       8 UNK        -0.2001 
     47 N         -51.4362  -25.0323   11.8730 N.am      8 UNK        -0.4140 
     48 C         -50.7958  -24.7917   13.0250 C.2       8 UNK         0.5028 
     49 O         -51.2736  -25.0127   14.1387 O.2       8 UNK        -0.5428 
     50 CA        -49.3687  -24.2329   12.9020 C.3       7 UNK         0.0264 
     51 CB        -48.9137  -23.5005   14.1770 C.3       7 UNK        -0.1988 
     52 N         -48.4317  -25.3171   12.6143 N.am      7 UNK        -0.4454 
     53 C         -48.3126  -25.9255   11.4281 C.2       7 UNK         0.5027 
     54 O         -48.9241  -25.5759   10.4166 O.2       7 UNK        -0.5083 
     55 CA        -47.3992  -27.1568   11.3758 C.3       6 UNK         0.0844 
     56 C56       -48.2093  -28.4681   11.2144 C.3       14 UNK        -0.0967 
     57 S57       -49.2210  -28.8563   12.6861 S.3       14 UNK        -0.2604 
     58 C58       -50.0396  -30.4005   12.1775 C.3       14 UNK         0.0134 
     59 N         -46.4366  -26.9527   10.2988 N.am      6 UNK        -0.4116 
     60 C         -45.2608  -27.5842   10.1983 C.2       5 UNK         0.5034 
     61 O         -44.8793  -28.4533   10.9831 O.2       5 UNK        -0.5045 
     62 CA        -44.3387  -27.1632    9.0463 C.3       5 UNK         0.0224 
     63 CB        -44.8109  -27.7689    7.7149 C.3       5 UNK        -0.1978 
     64 N         -44.2776  -25.7057    8.9312 N.am      5 UNK        -0.4737 
     65 C         -43.3646  -24.9335    9.5362 C.2       4 UNK         0.5027 
     66 O         -42.4339  -25.3775   10.2091 O.2       4 UNK        -0.5211 
     67 CA        -43.4944  -23.4082    9.3601 C.3       4 UNK         0.0297 
     68 CB        -42.5921  -22.9246    8.2133 C.3       4 UNK        -0.1993 
     69 N         -44.8673  -22.9647    9.1094 N.am      4 UNK        -0.4486 
     70 C         -45.8510  -22.9736   10.0195 C.2       3 UNK         0.4961 
     71 O         -45.6913  -23.2867   11.1991 O.2       3 UNK        -0.5105 
     72 CA        -47.2593  -22.5882    9.5270 C.3       3 UNK         0.0299 
     73 CB        -47.5222  -21.0948    9.7771 C.3       3 UNK        -0.1972 
     74 N         -47.5399  -22.9037    8.1184 N.am      3 UNK        -0.4305 
     75 C         -47.4288  -24.1136    7.5509 C.2       2 UNK         0.5006 
     76 O         -46.9658  -25.1031    8.1231 O.2       2 UNK        -0.5106 
     77 CA        -47.8331  -24.2162    6.0731 C.3       2 UNK         0.0296 
     78 CB        -46.6579  -23.8063    5.1704 C.3       2 UNK        -0.2002 
     79 N         -48.2188  -25.5868    5.7452 N.am      2 UNK        -0.4032 
     80 C         -49.3870  -26.1616    6.0528 C.2       1 UNK         0.5000 
     81 O         -50.3463  -25.5440    6.5193 O.2       1 UNK        -0.5238 
     82 H82       -48.2243  -29.0537    2.2431 H         1 UNK         0.0889 
     83 H83       -46.6792  -29.6251    2.8754 H         1 UNK         0.0889 
     84 H84       -46.8043  -28.0068    2.1801 H         1 UNK         0.0889 
     85 H85       -49.6203  -28.4404    3.8372 H         1 UNK         0.3028 
     86 H86       -50.5915  -27.8613    5.6789 H         1 UNK         0.0864 
     87 H87       -48.0204  -28.2392    7.2776 H         1 UNK         0.0720 
     88 H88       -49.6385  -28.1961    7.9104 H         1 UNK         0.0720 
     89 H89       -51.0883  -31.7056    7.0048 H         1 UNK         0.0814 
     90 H90       -51.5130  -30.1097    6.4406 H         1 UNK         0.0814 
     91 H91       -49.5416  -30.9261    9.5581 H         1 UNK         0.1469 
     92 H92       -52.5904  -29.4355   12.1702 H         1 UNK         0.1381 
     93 H93       -53.3021  -29.6378    7.9479 H         1 UNK         0.1206 
     94 H94       -54.8083  -28.3702    9.4016 H         1 UNK         0.0813 
     95 H95       -54.5609  -28.2734   11.1243 H         1 UNK         0.0813 
     96 H96       -55.6508  -31.5426   12.5549 H         1 UNK         0.0638 
     97 H97       -54.8394  -30.0235   12.7111 H         1 UNK         0.0638 
     98 H98       -57.4546  -29.1780   12.1693 H         1 UNK         0.0568 
     99 H99       -59.2934  -31.7839   14.5923 H         1 UNK         0.3450 
    100 H100      -58.1735  -30.5887   15.1988 H         1 UNK         0.3450 
    101 H101      -55.8866  -29.2569   14.6243 H         1 UNK         0.2987 
    102 H102      -57.2068  -26.1201   15.5347 H         1 UNK         0.0766 
    103 H103      -57.2772  -28.6753   17.2266 H         1 UNK         0.0798 
    104 H104      -57.2279  -27.0261   17.8474 H         1 UNK         0.0798 
    105 H105      -58.6246  -27.5857   16.9414 H         1 UNK         0.0798 
    106 H106      -55.0324  -26.1771   15.6037 H         1 UNK         0.3198 
    107 H107      -52.6486  -28.0848   17.0819 H         1 UNK         0.0843 
    108 H108      -52.3707  -29.3390   14.9440 H         1 UNK         0.0831 
    109 H109      -51.2161  -28.0180   15.0299 H         1 UNK         0.0831 
    110 H110      -52.6539  -27.8678   14.0240 H         1 UNK         0.0831 
    111 H111      -52.3955  -25.7978   15.3640 H         1 UNK         0.3133 
    112 H112      -53.5912  -23.3589   17.6665 H         1 UNK         0.0566 
    113 H113      -51.3620  -22.3887   17.0868 H         1 UNK         0.0814 
    114 H114      -51.2137  -23.6712   18.2777 H         1 UNK         0.0814 
    115 H115      -50.7836  -23.9829   16.6038 H         1 UNK         0.0814 
    116 H116      -52.5722  -23.5412   14.9149 H         1 UNK         0.3091 
    117 H117      -55.7996  -23.3585   13.4219 H         1 UNK         0.0702 
    118 H118      -54.9010  -21.2867   12.3973 H         1 UNK         0.0785 
    119 H119      -53.6732  -21.1596   13.6579 H         1 UNK         0.0785 
    120 H120      -55.3755  -20.9816   14.0594 H         1 UNK         0.0785 
    121 H121      -53.1279  -23.2104   12.3689 H         1 UNK         0.2998 
    122 H122      -52.6352  -26.7090   11.9949 H         1 UNK         0.0697 
    123 H123      -53.1500  -24.5960    9.8419 H         1 UNK         0.0825 
    124 H124      -54.1523  -26.0176   10.0739 H         1 UNK         0.0825 
    125 H125      -52.4673  -26.2071    9.6173 H         1 UNK         0.0825 
    126 H126      -50.8997  -24.9025   11.0228 H         1 UNK         0.3029 
    127 H127      -49.3539  -23.5138   12.0805 H         1 UNK         0.0897 
    128 H128      -47.9325  -23.0451   14.0405 H         1 UNK         0.0792 
    129 H129      -49.6084  -22.7009   14.4377 H         1 UNK         0.0792 
    130 H130      -48.8539  -24.1737   15.0331 H         1 UNK         0.0792 
    131 H131      -47.9287  -25.6942   13.4047 H         1 UNK         0.3086 
    132 H132      -46.8385  -27.2068   12.3121 H         1 UNK         0.0583 
    133 H133      -48.8507  -28.4051   10.3338 H         1 UNK         0.1020 
    134 H134      -47.5368  -29.3093   11.0414 H         1 UNK         0.1020 
    135 H135      -49.2825  -31.1529   11.9507 H         1 UNK         0.0694 
    136 H136      -50.6124  -30.7889   13.0209 H         1 UNK         0.0694 
    137 H137      -46.6966  -26.2524    9.6054 H         1 UNK         0.2989 
    138 H138      -43.3422  -27.5586    9.2569 H         1 UNK         0.1055 
    139 H139      -44.1177  -27.5375    6.9062 H         1 UNK         0.0806 
    140 H140      -45.7925  -27.3965    7.4238 H         1 UNK         0.0806 
    141 H141      -44.8817  -28.8554    7.7805 H         1 UNK         0.0806 
    142 H142      -45.0606  -25.2637    8.4593 H         1 UNK         0.3061 
    143 H143      -43.1505  -22.9408   10.2855 H         1 UNK         0.0734 
    144 H144      -41.5546  -23.2147    8.3856 H         1 UNK         0.0832 
    145 H145      -42.8931  -23.3493    7.2547 H         1 UNK         0.0832 
    146 H146      -42.6112  -21.8384    8.1224 H         1 UNK         0.0832 
    147 H147      -45.0938  -22.6842    8.1666 H         1 UNK         0.3156 
    148 H148      -47.9720  -23.1542   10.1259 H         1 UNK         0.0589 
    149 H149      -48.5546  -20.8284    9.5496 H         1 UNK         0.0808 
    150 H150      -47.3483  -20.8378   10.8232 H         1 UNK         0.0808 
    151 H151      -46.8694  -20.4628    9.1737 H         1 UNK         0.0808 
    152 H152      -47.9021  -22.1456    7.5576 H         1 UNK         0.3098 
    153 H153      -48.6801  -23.5529    5.8855 H         1 UNK         0.0720 
    154 H154      -46.9274  -23.8738    4.1162 H         1 UNK         0.0791 
    155 H155      -45.7849  -24.4406    5.3326 H         1 UNK         0.0791 
    156 H156      -46.3543  -22.7759    5.3600 H         1 UNK         0.0791 
    157 H157      -47.4807  -26.2097    5.4236 H         1 UNK         0.3028 
@<TRIPOS>BOND
     1    1    2 1    
     2    1   82 1    
     3    1   83 1    
     4    1   84 1    
     5    2    3 2    
     6    2    4 am   BACKBONE|DICT|INTERRES
     7    4    5 1    
     8    4   85 1    
     9    5    6 1    
    10    5   80 1    
    11    5   86 1    
    12    6    7 1    
    13    6   87 1    
    14    6   88 1    
    15    7    8 1    
    16    8    9 1    
    17    8   89 1    
    18    8   90 1    
    19    9   10 ar   
    20    9   14 ar   
    21   10   11 ar   
    22   10   91 1    
    23   11   12 ar   
    24   11   58 1    
    25   12   13 ar   
    26   12   92 1    
    27   13   14 ar   
    28   13   15 1    
    29   14   93 1    
    30   15   16 1    
    31   15   94 1    
    32   15   95 1    
    33   16   17 1    
    34   17   18 1    
    35   17   96 1    
    36   17   97 1    
    37   18   19 1    
    38   18   22 1    
    39   18   98 1    
    40   19   20 am   BACKBONE|DICT|INTERRES
    41   19   21 2    
    42   20   99 1    
    43   20  100 1    
    44   22   23 am   BACKBONE|DICT|INTERRES
    45   22  101 1    
    46   23   24 2    
    47   23   25 1    
    48   25   26 1    
    49   25   27 1    
    50   25  102 1    
    51   26  103 1    
    52   26  104 1    
    53   26  105 1    
    54   27   28 am   BACKBONE|DICT|INTERRES
    55   27  106 1    
    56   28   29 2    
    57   28   30 1    
    58   30   31 1    
    59   30   32 1    
    60   30  107 1    
    61   31  108 1    
    62   31  109 1    
    63   31  110 1    
    64   32   33 am   BACKBONE|DICT|INTERRES
    65   32  111 1    
    66   33   34 2    
    67   33   35 1    
    68   35   36 1    
    69   35   37 1    
    70   35  112 1    
    71   36  113 1    
    72   36  114 1    
    73   36  115 1    
    74   37   38 am   BACKBONE|DICT|INTERRES
    75   37  116 1    
    76   38   39 2    
    77   38   40 1    
    78   40   41 1    
    79   40   42 1    
    80   40  117 1    
    81   41  118 1    
    82   41  119 1    
    83   41  120 1    
    84   42   43 am   BACKBONE|DICT|INTERRES
    85   42  121 1    
    86   43   44 2    
    87   43   45 1    
    88   45   46 1    
    89   45   47 1    
    90   45  122 1    
    91   46  123 1    
    92   46  124 1    
    93   46  125 1    
    94   47   48 am   BACKBONE|DICT|INTERRES
    95   47  126 1    
    96   48   49 2    
    97   48   50 1    
    98   50   51 1    
    99   50   52 1    
   100   50  127 1    
   101   51  128 1    
   102   51  129 1    
   103   51  130 1    
   104   52   53 am   BACKBONE|DICT|INTERRES
   105   52  131 1    
   106   53   54 2    
   107   53   55 1    
   108   55   56 1    
   109   55   59 1    
   110   55  132 1    
   111   56   57 1    
   112   56  133 1    
   113   56  134 1    
   114   57   58 1    
   115   58  135 1    
   116   58  136 1    
   117   59   60 am   BACKBONE|DICT|INTERRES
   118   59  137 1    
   119   60   61 2    
   120   60   62 1    
   121   62   63 1    
   122   62   64 1    
   123   62  138 1    
   124   63  139 1    
   125   63  140 1    
   126   63  141 1    
   127   64   65 am   BACKBONE|DICT|INTERRES
   128   64  142 1    
   129   65   66 2    
   130   65   67 1    
   131   67   68 1    
   132   67   69 1    
   133   67  143 1    
   134   68  144 1    
   135   68  145 1    
   136   68  146 1    
   137   69   70 am   BACKBONE|DICT|INTERRES
   138   69  147 1    
   139   70   71 2    
   140   70   72 1    
   141   72   73 1    
   142   72   74 1    
   143   72  148 1    
   144   73  149 1    
   145   73  150 1    
   146   73  151 1    
   147   74   75 am   BACKBONE|DICT|INTERRES
   148   74  152 1    
   149   75   76 2    
   150   75   77 1    
   151   77   78 1    
   152   77   79 1    
   153   77  153 1    
   154   78  154 1    
   155   78  155 1    
   156   78  156 1    
   157   79   80 am   BACKBONE|DICT|INTERRES
   158   79  157 1    
   159   80   81 2    
@<TRIPOS>SUBSTRUCTURE
     1 UNK         1 GROUP             0       ****    0 ROOT    
