@<TRIPOS>MOLECULE
3R207
157   159    1
SMALL
USER_CHARGES


@<TRIPOS>ATOM
      1 CA        -50.4058  -27.0874    8.6771 C.3       0 UNK        -0.1975 
      2 C         -49.6743  -27.7122    7.5064 C.2       0 UNK         0.4852 
      3 O         -48.5322  -28.1504    7.6533 O.2       0 UNK        -0.5216 
      4 N         -50.3414  -27.7501    6.3480 N.am      1 UNK        -0.4461 
      5 CA        -49.8791  -28.3497    5.0934 C.3       1 UNK         0.0864 
      6 C6        -50.9422  -28.2068    3.9799 C.3       14 UNK        -0.0898 
      7 S7        -52.5268  -28.9879    4.4348 S.3       14 UNK        -0.2598 
      8 C8        -53.6649  -27.5671    4.4278 C.3       14 UNK         0.0286 
      9 C9        -53.5794  -26.7261    5.6962 C.ar      14 UNK        -0.0844 
     10 C10       -52.9410  -25.4809    5.6871 C.ar      14 UNK        -0.0881 
     11 C11       -52.9762  -24.6552    6.8175 C.ar      14 UNK        -0.0643 
     12 C12       -53.6482  -25.0901    7.9636 C.ar      14 UNK        -0.0930 
     13 C13       -54.2569  -26.3457    7.9978 C.ar      14 UNK        -0.0827 
     14 C14       -54.2162  -27.1608    6.8624 C.ar      14 UNK        -0.1249 
     15 C15       -55.0019  -26.8006    9.2427 C.3       14 UNK         0.0141 
     16 S16       -53.8635  -27.4100   10.5283 S.3       14 UNK        -0.2313 
     17 C17       -54.9142  -28.6598   11.3459 C.3       14 UNK        -0.0915 
     18 CA        -54.9626  -28.5448   12.8989 C.3       13 UNK         0.0968 
     19 C         -55.9737  -29.5276   13.5564 C.2       13 UNK         0.5732 
     20 N         -56.1159  -29.4949   14.8754 N.am      13 UNK        -0.7310 
     21 O         -56.6364  -30.3169   12.8862 O.2       13 UNK        -0.5035 
     22 N         -53.6565  -28.5935   13.5777 N.am      13 UNK        -0.4233 
     23 C         -52.7075  -29.5313   13.4337 C.2       13 UNK         0.4989 
     24 O         -52.7153  -30.4206   12.5829 O.2       13 UNK        -0.4996 
     25 CA        -51.5616  -29.4940   14.4617 C.3       12 UNK         0.0216 
     26 CB        -50.5617  -28.3703   14.1369 C.3       12 UNK        -0.1964 
     27 N         -52.0562  -29.3389   15.8327 N.am      12 UNK        -0.4276 
     28 C         -52.8454  -30.2185   16.4677 C.2       12 UNK         0.5020 
     29 O         -53.1278  -31.3305   16.0202 O.2       12 UNK        -0.5489 
     30 CA        -53.4346  -29.7932   17.8258 C.3       11 UNK         0.0294 
     31 CB        -52.7315  -30.5384   18.9722 C.3       11 UNK        -0.2019 
     32 N         -53.3857  -28.3533   18.1014 N.am      11 UNK        -0.4493 
     33 C         -53.9946  -27.3769   17.4173 C.2       11 UNK         0.4932 
     34 O         -54.6380  -27.5638   16.3841 O.2       11 UNK        -0.5029 
     35 CA        -53.8113  -25.9438   17.9480 C.3       10 UNK         0.0280 
     36 CB        -54.6131  -25.7152   19.2439 C.3       10 UNK        -0.1976 
     37 N         -52.4037  -25.5422   18.0937 N.am      10 UNK        -0.4242 
     38 C         -51.4618  -26.0391   18.9148 C.2       10 UNK         0.5072 
     39 O         -51.6858  -26.9053   19.7625 O.2       10 UNK        -0.5224 
     40 CA        -50.0229  -25.5288   18.7186 C.3       9 UNK         0.0343 
     41 CB        -48.9669  -26.5740   19.1269 C.3       9 UNK        -0.2003 
     42 N         -49.8045  -25.1477   17.3224 N.am      9 UNK        -0.4272 
     43 C         -49.3358  -23.9662   16.9082 C.2       9 UNK         0.4988 
     44 O         -48.9163  -23.0857   17.6603 O.2       9 UNK        -0.5108 
     45 CA        -49.3646  -23.7100   15.3909 C.3       8 UNK         0.0248 
     46 CB        -48.0387  -24.1495   14.7497 C.3       8 UNK        -0.2001 
     47 N         -50.4892  -24.3233   14.6658 N.am      8 UNK        -0.4140 
     48 C         -51.7934  -24.1313   14.9304 C.2       8 UNK         0.5028 
     49 O         -52.2057  -23.5573   15.9396 O.2       8 UNK        -0.5428 
     50 CA        -52.8065  -24.6862   13.9045 C.3       7 UNK         0.0264 
     51 CB        -54.1892  -24.0086   13.9957 C.3       7 UNK        -0.1988 
     52 N         -52.3067  -24.6547   12.5246 N.am      7 UNK        -0.4454 
     53 C         -51.8646  -23.5878   11.8389 C.2       7 UNK         0.5027 
     54 O         -51.9063  -22.4275   12.2516 O.2       7 UNK        -0.5083 
     55 CA        -51.2145  -23.8904   10.4746 C.3       6 UNK         0.0844 
     56 C56       -51.4737  -22.7609    9.4444 C.3       14 UNK        -0.0967 
     57 S57       -50.8272  -23.1640    7.7797 S.3       14 UNK        -0.2604 
     58 C58       -52.3439  -23.2701    6.7771 C.3       14 UNK         0.0134 
     59 N         -49.7787  -24.1646   10.5911 N.am      6 UNK        -0.4116 
     60 C         -49.1627  -25.1083   11.3144 C.2       5 UNK         0.5034 
     61 O         -49.7282  -25.8180   12.1473 O.2       5 UNK        -0.5045 
     62 CA        -47.6655  -25.3281   11.0154 C.3       5 UNK         0.0224 
     63 CB        -47.1327  -26.6386   11.6250 C.3       5 UNK        -0.1978 
     64 N         -47.3869  -25.3385    9.5745 N.am      5 UNK        -0.4737 
     65 C         -47.2298  -24.2541    8.8032 C.2       4 UNK         0.5027 
     66 O         -47.3389  -23.1070    9.2380 O.2       4 UNK        -0.5211 
     67 CA        -46.9580  -24.4857    7.3033 C.3       4 UNK         0.0297 
     68 CB        -46.1413  -23.3431    6.6653 C.3       4 UNK        -0.1993 
     69 N         -46.3581  -25.7914    7.0024 N.am      4 UNK        -0.4486 
     70 C         -45.1722  -26.2660    7.4195 C.2       3 UNK         0.4961 
     71 O         -44.3874  -25.6337    8.1266 O.2       3 UNK        -0.5105 
     72 CA        -44.7966  -27.6991    6.9974 C.3       3 UNK         0.0299 
     73 CB        -44.9825  -28.6705    8.1751 C.3       3 UNK        -0.1972 
     74 N         -45.5693  -28.1803    5.8497 N.am      3 UNK        -0.4305 
     75 C         -45.3593  -27.7986    4.5810 C.2       2 UNK         0.5006 
     76 O         -44.4299  -27.0695    4.2324 O.2       2 UNK        -0.5106 
     77 CA        -46.3567  -28.2962    3.5170 C.3       2 UNK         0.0296 
     78 CB        -45.7813  -29.5098    2.7685 C.3       2 UNK        -0.2002 
     79 N         -47.6838  -28.6381    4.0429 N.am      2 UNK        -0.4032 
     80 C         -48.5310  -27.7715    4.6171 C.2       1 UNK         0.5000 
     81 O         -48.2849  -26.5724    4.7722 O.2       1 UNK        -0.5238 
     82 H82       -50.2583  -26.0113    8.6495 H         1 UNK         0.0889 
     83 H83       -50.0306  -27.4752    9.6237 H         1 UNK         0.0889 
     84 H84       -51.4754  -27.2890    8.6281 H         1 UNK         0.0889 
     85 H85       -51.2737  -27.3600    6.3089 H         1 UNK         0.3028 
     86 H86       -49.7336  -29.4128    5.2965 H         1 UNK         0.0864 
     87 H87       -51.1018  -27.1548    3.7355 H         1 UNK         0.0720 
     88 H88       -50.5988  -28.6822    3.0589 H         1 UNK         0.0720 
     89 H89       -54.6831  -27.9454    4.3253 H         1 UNK         0.0814 
     90 H90       -53.4886  -26.9559    3.5412 H         1 UNK         0.0814 
     91 H91       -52.4518  -25.1357    4.7863 H         1 UNK         0.1469 
     92 H92       -53.7105  -24.4501    8.8308 H         1 UNK         0.1381 
     93 H93       -54.7108  -28.1228    6.8726 H         1 UNK         0.1206 
     94 H94       -55.5948  -25.9793    9.6479 H         1 UNK         0.0813 
     95 H95       -55.7119  -27.5813    8.9664 H         1 UNK         0.0813 
     96 H96       -54.5756  -29.6477   11.0328 H         1 UNK         0.0638 
     97 H97       -55.9303  -28.5699   10.9595 H         1 UNK         0.0638 
     98 H98       -55.3619  -27.5533   13.1163 H         1 UNK         0.0568 
     99 H99       -55.6023  -28.8210   15.4365 H         1 UNK         0.3450 
    100 H100      -56.7669  -30.1252   15.3147 H         1 UNK         0.3450 
    101 H101      -53.5830  -27.9776   14.3740 H         1 UNK         0.2987 
    102 H102      -51.0324  -30.4477   14.4047 H         1 UNK         0.0766 
    103 H103      -50.1787  -28.4723   13.1201 H         1 UNK         0.0798 
    104 H104      -49.7017  -28.3959   14.8063 H         1 UNK         0.0798 
    105 H105      -51.0154  -27.3824   14.2101 H         1 UNK         0.0798 
    106 H106      -51.8564  -28.4707   16.3038 H         1 UNK         0.3198 
    107 H107      -54.4864  -30.0869   17.8190 H         1 UNK         0.0843 
    108 H108      -51.6803  -30.2578   19.0498 H         1 UNK         0.0831 
    109 H109      -52.7714  -31.6183   18.8216 H         1 UNK         0.0831 
    110 H110      -53.2060  -30.3301   19.9314 H         1 UNK         0.0831 
    111 H111      -52.8306  -28.0596   18.9041 H         1 UNK         0.3133 
    112 H112      -54.2275  -25.2767   17.1918 H         1 UNK         0.0566 
    113 H113      -55.6701  -25.9360   19.0896 H         1 UNK         0.0814 
    114 H114      -54.5443  -24.6781   19.5720 H         1 UNK         0.0814 
    115 H115      -54.2682  -26.3475   20.0624 H         1 UNK         0.0814 
    116 H116      -52.1219  -24.8030   17.4535 H         1 UNK         0.3091 
    117 H117      -49.9173  -24.6605   19.3721 H         1 UNK         0.0702 
    118 H118      -47.9565  -26.1912   18.9823 H         1 UNK         0.0785 
    119 H119      -49.0636  -27.4926   18.5470 H         1 UNK         0.0785 
    120 H120      -49.0618  -26.8394   20.1807 H         1 UNK         0.0785 
    121 H121      -50.1073  -25.8089   16.6223 H         1 UNK         0.2998 
    122 H122      -49.4589  -22.6302   15.2588 H         1 UNK         0.0697 
    123 H123      -47.9402  -25.2354   14.7277 H         1 UNK         0.0825 
    124 H124      -47.1840  -23.7548   15.3014 H         1 UNK         0.0825 
    125 H125      -47.9541  -23.7788   13.7293 H         1 UNK         0.0825 
    126 H126      -50.2521  -24.8359   13.8215 H         1 UNK         0.3029 
    127 H127      -52.9430  -25.7374   14.1582 H         1 UNK         0.0897 
    128 H128      -54.1261  -22.9358   13.8110 H         1 UNK         0.0792 
    129 H129      -54.6293  -24.1430   14.9844 H         1 UNK         0.0792 
    130 H130      -54.8863  -24.4337   13.2734 H         1 UNK         0.0792 
    131 H131      -52.1609  -25.5619   12.0997 H         1 UNK         0.3086 
    132 H132      -51.6825  -24.7996   10.0946 H         1 UNK         0.0583 
    133 H133      -52.5380  -22.5291    9.3835 H         1 UNK         0.1020 
    134 H134      -50.9939  -21.8357    9.7703 H         1 UNK         0.1020 
    135 H135      -53.0664  -22.5202    7.1020 H         1 UNK         0.0694 
    136 H136      -52.0864  -23.0071    5.7501 H         1 UNK         0.0694 
    137 H137      -49.1887  -23.6195    9.9722 H         1 UNK         0.2989 
    138 H138      -47.1219  -24.4993   11.4740 H         1 UNK         0.1055 
    139 H139      -46.0684  -26.7650   11.4254 H         1 UNK         0.0806 
    140 H140      -47.6550  -27.5095   11.2264 H         1 UNK         0.0806 
    141 H141      -47.2599  -26.6502   12.7082 H         1 UNK         0.0806 
    142 H142      -47.3262  -26.2447    9.1299 H         1 UNK         0.3061 
    143 H143      -47.9383  -24.4941    6.8237 H         1 UNK         0.0734 
    144 H144      -45.1680  -23.2253    7.1424 H         1 UNK         0.0832 
    145 H145      -45.9765  -23.5199    5.6024 H         1 UNK         0.0832 
    146 H146      -46.6646  -22.3904    6.7561 H         1 UNK         0.0832 
    147 H147      -46.9283  -26.3899    6.4137 H         1 UNK         0.3156 
    148 H148      -43.7385  -27.6949    6.7265 H         1 UNK         0.0589 
    149 H149      -46.0231  -28.7242    8.4972 H         1 UNK         0.0808 
    150 H150      -44.3924  -28.3559    9.0371 H         1 UNK         0.0808 
    151 H151      -44.6591  -29.6781    7.9138 H         1 UNK         0.0808 
    152 H152      -46.3615  -28.7735    6.0543 H         1 UNK         0.3098 
    153 H153      -46.4889  -27.4845    2.7983 H         1 UNK         0.0720 
    154 H154      -44.8059  -29.2769    2.3385 H         1 UNK         0.0791 
    155 H155      -46.4294  -29.8145    1.9465 H         1 UNK         0.0791 
    156 H156      -45.6489  -30.3672    3.4297 H         1 UNK         0.0791 
    157 H157      -47.9657  -29.6038    3.9491 H         1 UNK         0.3028 
@<TRIPOS>BOND
     1    1    2 1    
     2    1   82 1    
     3    1   83 1    
     4    1   84 1    
     5    2    3 2    
     6    2    4 am   BACKBONE|DICT|INTERRES
     7    4    5 1    
     8    4   85 1    
     9    5    6 1    
    10    5   80 1    
    11    5   86 1    
    12    6    7 1    
    13    6   87 1    
    14    6   88 1    
    15    7    8 1    
    16    8    9 1    
    17    8   89 1    
    18    8   90 1    
    19    9   10 ar   
    20    9   14 ar   
    21   10   11 ar   
    22   10   91 1    
    23   11   12 ar   
    24   11   58 1    
    25   12   13 ar   
    26   12   92 1    
    27   13   14 ar   
    28   13   15 1    
    29   14   93 1    
    30   15   16 1    
    31   15   94 1    
    32   15   95 1    
    33   16   17 1    
    34   17   18 1    
    35   17   96 1    
    36   17   97 1    
    37   18   19 1    
    38   18   22 1    
    39   18   98 1    
    40   19   20 am   BACKBONE|DICT|INTERRES
    41   19   21 2    
    42   20   99 1    
    43   20  100 1    
    44   22   23 am   BACKBONE|DICT|INTERRES
    45   22  101 1    
    46   23   24 2    
    47   23   25 1    
    48   25   26 1    
    49   25   27 1    
    50   25  102 1    
    51   26  103 1    
    52   26  104 1    
    53   26  105 1    
    54   27   28 am   BACKBONE|DICT|INTERRES
    55   27  106 1    
    56   28   29 2    
    57   28   30 1    
    58   30   31 1    
    59   30   32 1    
    60   30  107 1    
    61   31  108 1    
    62   31  109 1    
    63   31  110 1    
    64   32   33 am   BACKBONE|DICT|INTERRES
    65   32  111 1    
    66   33   34 2    
    67   33   35 1    
    68   35   36 1    
    69   35   37 1    
    70   35  112 1    
    71   36  113 1    
    72   36  114 1    
    73   36  115 1    
    74   37   38 am   BACKBONE|DICT|INTERRES
    75   37  116 1    
    76   38   39 2    
    77   38   40 1    
    78   40   41 1    
    79   40   42 1    
    80   40  117 1    
    81   41  118 1    
    82   41  119 1    
    83   41  120 1    
    84   42   43 am   BACKBONE|DICT|INTERRES
    85   42  121 1    
    86   43   44 2    
    87   43   45 1    
    88   45   46 1    
    89   45   47 1    
    90   45  122 1    
    91   46  123 1    
    92   46  124 1    
    93   46  125 1    
    94   47   48 am   BACKBONE|DICT|INTERRES
    95   47  126 1    
    96   48   49 2    
    97   48   50 1    
    98   50   51 1    
    99   50   52 1    
   100   50  127 1    
   101   51  128 1    
   102   51  129 1    
   103   51  130 1    
   104   52   53 am   BACKBONE|DICT|INTERRES
   105   52  131 1    
   106   53   54 2    
   107   53   55 1    
   108   55   56 1    
   109   55   59 1    
   110   55  132 1    
   111   56   57 1    
   112   56  133 1    
   113   56  134 1    
   114   57   58 1    
   115   58  135 1    
   116   58  136 1    
   117   59   60 am   BACKBONE|DICT|INTERRES
   118   59  137 1    
   119   60   61 2    
   120   60   62 1    
   121   62   63 1    
   122   62   64 1    
   123   62  138 1    
   124   63  139 1    
   125   63  140 1    
   126   63  141 1    
   127   64   65 am   BACKBONE|DICT|INTERRES
   128   64  142 1    
   129   65   66 2    
   130   65   67 1    
   131   67   68 1    
   132   67   69 1    
   133   67  143 1    
   134   68  144 1    
   135   68  145 1    
   136   68  146 1    
   137   69   70 am   BACKBONE|DICT|INTERRES
   138   69  147 1    
   139   70   71 2    
   140   70   72 1    
   141   72   73 1    
   142   72   74 1    
   143   72  148 1    
   144   73  149 1    
   145   73  150 1    
   146   73  151 1    
   147   74   75 am   BACKBONE|DICT|INTERRES
   148   74  152 1    
   149   75   76 2    
   150   75   77 1    
   151   77   78 1    
   152   77   79 1    
   153   77  153 1    
   154   78  154 1    
   155   78  155 1    
   156   78  156 1    
   157   79   80 am   BACKBONE|DICT|INTERRES
   158   79  157 1    
   159   80   81 2    
@<TRIPOS>SUBSTRUCTURE
     1 UNK         1 GROUP             0       ****    0 ROOT    
