@<TRIPOS>MOLECULE
3R207
157   159    1
SMALL
USER_CHARGES


@<TRIPOS>ATOM
      1 CA        -55.1195  -25.1899    7.2614 C.3       0 UNK        -0.1975 
      2 C         -53.7882  -25.6250    7.8534 C.2       0 UNK         0.4852 
      3 O         -53.6347  -25.6412    9.0747 O.2       0 UNK        -0.5216 
      4 N         -52.8219  -25.9724    6.9954 N.am      1 UNK        -0.4461 
      5 CA        -51.4803  -26.4288    7.3874 C.3       1 UNK         0.0864 
      6 C6        -50.7929  -27.2412    6.2589 C.3       14 UNK        -0.0898 
      7 S7        -51.8310  -28.6084    5.6373 S.3       14 UNK        -0.2598 
      8 C8        -50.9663  -30.0808    6.2793 C.3       14 UNK         0.0286 
      9 C9        -50.9754  -30.2015    7.8015 C.ar      14 UNK        -0.0844 
     10 C10       -49.8143  -30.6163    8.4641 C.ar      14 UNK        -0.0881 
     11 C11       -49.8077  -30.7867    9.8512 C.ar      14 UNK        -0.0643 
     12 C12       -50.9736  -30.5334   10.5789 C.ar      14 UNK        -0.0930 
     13 C13       -52.1349  -30.1019    9.9357 C.ar      14 UNK        -0.0827 
     14 C14       -52.1357  -29.9501    8.5460 C.ar      14 UNK        -0.1249 
     15 C15       -53.3779  -29.7976   10.7558 C.3       14 UNK         0.0141 
     16 S16       -54.3892  -31.2927   10.9849 S.3       14 UNK        -0.2313 
     17 C17       -55.2286  -30.9442   12.5673 C.3       14 UNK        -0.0915 
     18 CA        -56.6333  -30.3143   12.3829 C.3       13 UNK         0.0968 
     19 C         -57.4170  -30.3247   13.7178 C.2       13 UNK         0.5732 
     20 N         -58.3438  -31.2571   13.8895 N.am      13 UNK        -0.7310 
     21 O         -57.1679  -29.5196   14.6132 O.2       13 UNK        -0.5035 
     22 N         -56.5336  -28.9375   11.8939 N.am      13 UNK        -0.4233 
     23 C         -56.9215  -28.4888   10.6987 C.2       13 UNK         0.4989 
     24 O         -57.4309  -29.2000    9.8320 O.2       13 UNK        -0.4996 
     25 CA        -56.6872  -26.9978   10.3860 C.3       12 UNK         0.0216 
     26 CB        -57.9415  -26.1613   10.7050 C.3       12 UNK        -0.1964 
     27 N         -55.4786  -26.4029   10.9829 N.am      12 UNK        -0.4276 
     28 C         -55.1958  -26.1807   12.2719 C.2       12 UNK         0.5020 
     29 O         -55.9472  -26.4853   13.2018 O.2       12 UNK        -0.5489 
     30 CA        -53.8514  -25.4959   12.5661 C.3       11 UNK         0.0294 
     31 CB        -53.9555  -23.9793   12.3344 C.3       11 UNK        -0.2019 
     32 N         -53.4626  -25.7385   13.9559 N.am      11 UNK        -0.4493 
     33 C         -52.7801  -26.8105   14.3699 C.2       11 UNK         0.4932 
     34 O         -52.2637  -27.6347   13.6140 O.2       11 UNK        -0.5029 
     35 CA        -52.6682  -27.0017   15.8847 C.3       10 UNK         0.0280 
     36 CB        -53.2376  -28.3701   16.3098 C.3       10 UNK        -0.1976 
     37 N         -51.2677  -26.8757   16.2787 N.am      10 UNK        -0.4242 
     38 C         -50.8380  -26.6374   17.5251 C.2       10 UNK         0.5072 
     39 O         -51.5855  -26.4975   18.4944 O.2       10 UNK        -0.5224 
     40 CA        -49.3208  -26.5203   17.7302 C.3       9 UNK         0.0343 
     41 CB        -48.6310  -27.8849   17.5589 C.3       9 UNK        -0.2003 
     42 N         -48.7470  -25.5556   16.7938 N.am      9 UNK        -0.4272 
     43 C         -48.5052  -24.2662   17.0726 C.2       9 UNK         0.4988 
     44 O         -48.6776  -23.7610   18.1825 O.2       9 UNK        -0.5108 
     45 CA        -47.9767  -23.3797   15.9277 C.3       8 UNK         0.0248 
     46 CB        -46.4445  -23.2762   15.9925 C.3       8 UNK        -0.2001 
     47 N         -48.3778  -23.8586   14.6026 N.am      8 UNK        -0.4140 
     48 C         -49.6326  -23.7926   14.1304 C.2       8 UNK         0.5028 
     49 O         -50.5485  -23.2119   14.7132 O.2       8 UNK        -0.5428 
     50 CA        -49.9423  -24.5216   12.8094 C.3       7 UNK         0.0264 
     51 CB        -50.0592  -23.5312   11.6429 C.3       7 UNK        -0.1988 
     52 N         -48.9951  -25.5785   12.4475 N.am      7 UNK        -0.4454 
     53 C         -48.7369  -26.6719   13.1812 C.2       7 UNK         0.5027 
     54 O         -49.2445  -26.8957   14.2799 O.2       7 UNK        -0.5083 
     55 CA        -47.7113  -27.6680   12.6097 C.3       6 UNK         0.0844 
     56 C56       -48.4570  -28.6630   11.6926 C.3       14 UNK        -0.0967 
     57 S57       -47.3781  -29.8707   10.8532 S.3       14 UNK        -0.2604 
     58 C58       -48.5441  -31.2427   10.5704 C.3       14 UNK         0.0134 
     59 N         -46.5847  -27.0251   11.9267 N.am      6 UNK        -0.4116 
     60 C         -45.8026  -26.0367   12.3867 C.2       5 UNK         0.5034 
     61 O         -45.9443  -25.4994   13.4858 O.2       5 UNK        -0.5045 
     62 CA        -44.6805  -25.5481   11.4501 C.3       5 UNK         0.0224 
     63 CB        -43.3178  -26.0770   11.9255 C.3       5 UNK        -0.1978 
     64 N         -44.8804  -25.9236   10.0434 N.am      5 UNK        -0.4737 
     65 C         -45.8627  -25.4475    9.2673 C.2       4 UNK         0.5027 
     66 O         -46.6801  -24.6067    9.6481 O.2       4 UNK        -0.5211 
     67 CA        -45.9715  -26.0646    7.8663 C.3       4 UNK         0.0297 
     68 CB        -46.6048  -27.4658    7.9461 C.3       4 UNK        -0.1993 
     69 N         -46.8154  -25.2236    7.0227 N.am      4 UNK        -0.4486 
     70 C         -46.3801  -24.4497    6.0193 C.2       3 UNK         0.4961 
     71 O         -45.2046  -24.4036    5.6538 O.2       3 UNK        -0.5105 
     72 CA        -47.4193  -23.5875    5.2742 C.3       3 UNK         0.0299 
     73 CB        -47.7164  -24.1865    3.8892 C.3       3 UNK        -0.1972 
     74 N         -48.6798  -23.4356    6.0024 N.am      3 UNK        -0.4305 
     75 C         -48.8528  -22.6730    7.0910 C.2       2 UNK         0.5006 
     76 O         -47.9943  -21.9098    7.5341 O.2       2 UNK        -0.5106 
     77 CA        -50.2070  -22.7856    7.8169 C.3       2 UNK         0.0296 
     78 CB        -51.0963  -21.5732    7.4966 C.3       2 UNK        -0.2002 
     79 N         -50.9528  -24.0168    7.5244 N.am      2 UNK        -0.4032 
     80 C         -50.5658  -25.2661    7.8325 C.2       1 UNK         0.5000 
     81 O         -49.5066  -25.5219    8.4034 O.2       1 UNK        -0.5238 
     82 H82       -54.9926  -24.7566    6.2696 H         1 UNK         0.0889 
     83 H83       -55.5919  -24.4411    7.8970 H         1 UNK         0.0889 
     84 H84       -55.7921  -26.0426    7.1780 H         1 UNK         0.0889 
     85 H85       -53.0146  -25.9835    6.0033 H         1 UNK         0.3028 
     86 H86       -51.5863  -27.0864    8.2533 H         1 UNK         0.0864 
     87 H87       -50.5566  -26.5969    5.4099 H         1 UNK         0.0720 
     88 H88       -49.8395  -27.6452    6.6061 H         1 UNK         0.0720 
     89 H89       -49.9443  -30.0755    5.8969 H         1 UNK         0.0814 
     90 H90       -51.4430  -30.9693    5.8636 H         1 UNK         0.0814 
     91 H91       -48.9120  -30.8165    7.9021 H         1 UNK         0.1469 
     92 H92       -50.9785  -30.6641   11.6524 H         1 UNK         0.1381 
     93 H93       -53.0409  -29.6352    8.0452 H         1 UNK         0.1206 
     94 H94       -53.9731  -29.0254   10.2673 H         1 UNK         0.0813 
     95 H95       -53.0827  -29.3889   11.7229 H         1 UNK         0.0813 
     96 H96       -55.3114  -31.9002   13.0880 H         1 UNK         0.0638 
     97 H97       -54.5970  -30.3160   13.1985 H         1 UNK         0.0638 
     98 H98       -57.1906  -30.9214   11.6666 H         1 UNK         0.0568 
     99 H99       -58.8526  -31.2857   14.7592 H         1 UNK         0.3450 
    100 H100      -58.5467  -31.9319   13.1683 H         1 UNK         0.3450 
    101 H101      -56.2341  -28.2480   12.5798 H         1 UNK         0.2987 
    102 H102      -56.5288  -26.9421    9.3088 H         1 UNK         0.0766 
    103 H103      -57.8107  -25.1215   10.4052 H         1 UNK         0.0798 
    104 H104      -58.1834  -26.1764   11.7681 H         1 UNK         0.0798 
    105 H105      -58.8115  -26.5455   10.1708 H         1 UNK         0.0798 
    106 H106      -54.7676  -26.1221   10.3033 H         1 UNK         0.3198 
    107 H107      -53.0926  -25.9032   11.8932 H         1 UNK         0.0843 
    108 H108      -54.7535  -23.5325   12.9289 H         1 UNK         0.0831 
    109 H109      -54.1654  -23.7585   11.2868 H         1 UNK         0.0831 
    110 H110      -53.0251  -23.4727   12.5902 H         1 UNK         0.0831 
    111 H111      -53.8978  -25.1450   14.6475 H         1 UNK         0.3133 
    112 H112      -53.2432  -26.2169   16.3811 H         1 UNK         0.0566 
    113 H113      -53.2470  -28.4821   17.3938 H         1 UNK         0.0814 
    114 H114      -54.2658  -28.4883   15.9637 H         1 UNK         0.0814 
    115 H115      -52.6566  -29.1937   15.8929 H         1 UNK         0.0814 
    116 H116      -50.5890  -26.9633   15.5218 H         1 UNK         0.3091 
    117 H117      -49.1456  -26.1901   18.7565 H         1 UNK         0.0702 
    118 H118      -47.5620  -27.8132   17.7595 H         1 UNK         0.0785 
    119 H119      -48.7543  -28.2858   16.5523 H         1 UNK         0.0785 
    120 H120      -49.0425  -28.6180   18.2539 H         1 UNK         0.0785 
    121 H121      -48.6349  -25.8790   15.8387 H         1 UNK         0.2998 
    122 H122      -48.3902  -22.3784   16.0669 H         1 UNK         0.0697 
    123 H123      -45.9689  -24.2525   15.8917 H         1 UNK         0.0825 
    124 H124      -46.1230  -22.8557   16.9464 H         1 UNK         0.0825 
    125 H125      -46.0547  -22.6302   15.2057 H         1 UNK         0.0825 
    126 H126      -47.6760  -24.3608   14.0695 H         1 UNK         0.3029 
    127 H127      -50.9140  -24.9977   12.9412 H         1 UNK         0.0897 
    128 H128      -50.4778  -24.0236   10.7656 H         1 UNK         0.0792 
    129 H129      -50.7202  -22.6997   11.8913 H         1 UNK         0.0792 
    130 H130      -49.0905  -23.1114   11.3685 H         1 UNK         0.0792 
    131 H131      -48.5121  -25.4672   11.5653 H         1 UNK         0.3086 
    132 H132      -47.2907  -28.2223   13.4509 H         1 UNK         0.0583 
    133 H133      -49.1917  -29.2081   12.2882 H         1 UNK         0.1020 
    134 H134      -49.0206  -28.1357   10.9186 H         1 UNK         0.1020 
    135 H135      -48.0458  -32.0163    9.9844 H         1 UNK         0.0694 
    136 H136      -48.7947  -31.7012   11.5284 H         1 UNK         0.0694 
    137 H137      -46.3667  -27.4016   11.0165 H         1 UNK         0.2989 
    138 H138      -44.6675  -24.4573   11.5110 H         1 UNK         0.1055 
    139 H139      -43.1267  -25.7886   12.9604 H         1 UNK         0.0806 
    140 H140      -42.5028  -25.6731   11.3245 H         1 UNK         0.0806 
    141 H141      -43.2662  -27.1655   11.8764 H         1 UNK         0.0806 
    142 H142      -44.2445  -26.6104    9.6618 H         1 UNK         0.3061 
    143 H143      -44.9681  -26.1533    7.4446 H         1 UNK         0.0734 
    144 H144      -46.7390  -27.8966    6.9538 H         1 UNK         0.0832 
    145 H145      -45.9747  -28.1538    8.5106 H         1 UNK         0.0832 
    146 H146      -47.5811  -27.4448    8.4330 H         1 UNK         0.0832 
    147 H147      -47.7739  -25.1306    7.3443 H         1 UNK         0.3156 
    148 H148      -46.9823  -22.5969    5.1315 H         1 UNK         0.0589 
    149 H149      -48.1573  -25.1814    3.9645 H         1 UNK         0.0808 
    150 H150      -48.4008  -23.5559    3.3212 H         1 UNK         0.0808 
    151 H151      -46.8027  -24.2800    3.3004 H         1 UNK         0.0808 
    152 H152      -49.4527  -24.0051    5.6928 H         1 UNK         0.3098 
    153 H153      -49.9892  -22.7726    8.8847 H         1 UNK         0.0720 
    154 H154      -50.5835  -20.6394    7.7323 H         1 UNK         0.0791 
    155 H155      -52.0163  -21.5902    8.0814 H         1 UNK         0.0791 
    156 H156      -51.3675  -21.5381    6.4407 H         1 UNK         0.0791 
    157 H157      -51.8393  -23.9055    7.0546 H         1 UNK         0.3028 
@<TRIPOS>BOND
     1    1    2 1    
     2    1   82 1    
     3    1   83 1    
     4    1   84 1    
     5    2    3 2    
     6    2    4 am   BACKBONE|DICT|INTERRES
     7    4    5 1    
     8    4   85 1    
     9    5    6 1    
    10    5   80 1    
    11    5   86 1    
    12    6    7 1    
    13    6   87 1    
    14    6   88 1    
    15    7    8 1    
    16    8    9 1    
    17    8   89 1    
    18    8   90 1    
    19    9   10 ar   
    20    9   14 ar   
    21   10   11 ar   
    22   10   91 1    
    23   11   12 ar   
    24   11   58 1    
    25   12   13 ar   
    26   12   92 1    
    27   13   14 ar   
    28   13   15 1    
    29   14   93 1    
    30   15   16 1    
    31   15   94 1    
    32   15   95 1    
    33   16   17 1    
    34   17   18 1    
    35   17   96 1    
    36   17   97 1    
    37   18   19 1    
    38   18   22 1    
    39   18   98 1    
    40   19   20 am   BACKBONE|DICT|INTERRES
    41   19   21 2    
    42   20   99 1    
    43   20  100 1    
    44   22   23 am   BACKBONE|DICT|INTERRES
    45   22  101 1    
    46   23   24 2    
    47   23   25 1    
    48   25   26 1    
    49   25   27 1    
    50   25  102 1    
    51   26  103 1    
    52   26  104 1    
    53   26  105 1    
    54   27   28 am   BACKBONE|DICT|INTERRES
    55   27  106 1    
    56   28   29 2    
    57   28   30 1    
    58   30   31 1    
    59   30   32 1    
    60   30  107 1    
    61   31  108 1    
    62   31  109 1    
    63   31  110 1    
    64   32   33 am   BACKBONE|DICT|INTERRES
    65   32  111 1    
    66   33   34 2    
    67   33   35 1    
    68   35   36 1    
    69   35   37 1    
    70   35  112 1    
    71   36  113 1    
    72   36  114 1    
    73   36  115 1    
    74   37   38 am   BACKBONE|DICT|INTERRES
    75   37  116 1    
    76   38   39 2    
    77   38   40 1    
    78   40   41 1    
    79   40   42 1    
    80   40  117 1    
    81   41  118 1    
    82   41  119 1    
    83   41  120 1    
    84   42   43 am   BACKBONE|DICT|INTERRES
    85   42  121 1    
    86   43   44 2    
    87   43   45 1    
    88   45   46 1    
    89   45   47 1    
    90   45  122 1    
    91   46  123 1    
    92   46  124 1    
    93   46  125 1    
    94   47   48 am   BACKBONE|DICT|INTERRES
    95   47  126 1    
    96   48   49 2    
    97   48   50 1    
    98   50   51 1    
    99   50   52 1    
   100   50  127 1    
   101   51  128 1    
   102   51  129 1    
   103   51  130 1    
   104   52   53 am   BACKBONE|DICT|INTERRES
   105   52  131 1    
   106   53   54 2    
   107   53   55 1    
   108   55   56 1    
   109   55   59 1    
   110   55  132 1    
   111   56   57 1    
   112   56  133 1    
   113   56  134 1    
   114   57   58 1    
   115   58  135 1    
   116   58  136 1    
   117   59   60 am   BACKBONE|DICT|INTERRES
   118   59  137 1    
   119   60   61 2    
   120   60   62 1    
   121   62   63 1    
   122   62   64 1    
   123   62  138 1    
   124   63  139 1    
   125   63  140 1    
   126   63  141 1    
   127   64   65 am   BACKBONE|DICT|INTERRES
   128   64  142 1    
   129   65   66 2    
   130   65   67 1    
   131   67   68 1    
   132   67   69 1    
   133   67  143 1    
   134   68  144 1    
   135   68  145 1    
   136   68  146 1    
   137   69   70 am   BACKBONE|DICT|INTERRES
   138   69  147 1    
   139   70   71 2    
   140   70   72 1    
   141   72   73 1    
   142   72   74 1    
   143   72  148 1    
   144   73  149 1    
   145   73  150 1    
   146   73  151 1    
   147   74   75 am   BACKBONE|DICT|INTERRES
   148   74  152 1    
   149   75   76 2    
   150   75   77 1    
   151   77   78 1    
   152   77   79 1    
   153   77  153 1    
   154   78  154 1    
   155   78  155 1    
   156   78  156 1    
   157   79   80 am   BACKBONE|DICT|INTERRES
   158   79  157 1    
   159   80   81 2    
@<TRIPOS>SUBSTRUCTURE
     1 UNK         1 GROUP             0       ****    0 ROOT    
