@<TRIPOS>MOLECULE
3R207
157   159    1
SMALL
USER_CHARGES


@<TRIPOS>ATOM
      1 CA        -50.8737  -29.5200    0.8756 C.3       0 UNK        -0.1975 
      2 C         -50.5821  -28.1581    1.4886 C.2       0 UNK         0.4852 
      3 O         -50.1100  -27.2603    0.7891 O.2       0 UNK        -0.5216 
      4 N         -50.8683  -27.9954    2.7862 N.am      1 UNK        -0.4461 
      5 CA        -50.5822  -26.7893    3.5678 C.3       1 UNK         0.0864 
      6 C6        -51.4050  -26.7455    4.8834 C.3       14 UNK        -0.0898 
      7 S7        -51.2919  -28.2606    5.9009 S.3       14 UNK        -0.2598 
      8 C8        -51.3864  -27.5653    7.5773 C.3       14 UNK         0.0286 
      9 C9        -51.3444  -28.6669    8.6253 C.ar      14 UNK        -0.0844 
     10 C10       -50.1172  -29.1083    9.1208 C.ar      14 UNK        -0.0881 
     11 C11       -50.0506  -30.1362   10.0645 C.ar      14 UNK        -0.0643 
     12 C12       -51.2355  -30.7299   10.5102 C.ar      14 UNK        -0.0930 
     13 C13       -52.4768  -30.2960   10.0268 C.ar      14 UNK        -0.0827 
     14 C14       -52.5226  -29.2585    9.0886 C.ar      14 UNK        -0.1249 
     15 C15       -53.7727  -30.9776   10.4576 C.3       14 UNK         0.0141 
     16 S16       -53.9038  -31.2674   12.2533 S.3       14 UNK        -0.2313 
     17 C17       -53.9729  -29.5652   12.8993 C.3       14 UNK        -0.0915 
     18 CA        -55.4022  -28.9573   12.9191 C.3       13 UNK         0.0968 
     19 C         -56.2569  -29.4478   14.1285 C.2       13 UNK         0.5732 
     20 N         -56.7771  -28.5783   14.9889 N.am      13 UNK        -0.7310 
     21 O         -56.4795  -30.6457   14.2830 O.2       13 UNK        -0.5035 
     22 N         -55.3221  -27.4966   12.8163 N.am      13 UNK        -0.4233 
     23 C         -56.2281  -26.7080   12.2278 C.2       13 UNK         0.4989 
     24 O         -57.1968  -27.1348   11.5967 O.2       13 UNK        -0.4996 
     25 CA        -56.0127  -25.1861   12.3679 C.3       12 UNK         0.0216 
     26 CB        -57.3175  -24.3794   12.1951 C.3       12 UNK        -0.1964 
     27 N         -55.3261  -24.8032   13.6088 N.am      12 UNK        -0.4276 
     28 C         -55.7322  -25.0231   14.8668 C.2       12 UNK         0.5020 
     29 O         -56.7782  -25.6004   15.1720 O.2       12 UNK        -0.5489 
     30 CA        -54.7701  -24.5579   15.9741 C.3       11 UNK         0.0294 
     31 CB        -55.5104  -23.7144   17.0260 C.3       11 UNK        -0.2019 
     32 N         -54.0639  -25.6523   16.6497 N.am      11 UNK        -0.4493 
     33 C         -53.4449  -26.6940   16.0760 C.2       11 UNK         0.4932 
     34 O         -53.4570  -26.9457   14.8714 O.2       11 UNK        -0.5029 
     35 CA        -52.5782  -27.5417   17.0092 C.3       10 UNK         0.0280 
     36 CB        -52.5031  -29.0151   16.5726 C.3       10 UNK        -0.1976 
     37 N         -51.2491  -26.9504   16.9413 N.am      10 UNK        -0.4242 
     38 C         -50.6809  -26.2214   17.9076 C.2       10 UNK         0.5072 
     39 O         -51.1342  -26.1125   19.0481 O.2       10 UNK        -0.5224 
     40 CA        -49.4098  -25.4470   17.5224 C.3       9 UNK         0.0343 
     41 CB        -48.1973  -26.3883   17.4479 C.3       9 UNK        -0.2003 
     42 N         -49.5468  -24.7091   16.2615 N.am      9 UNK        -0.4272 
     43 C         -50.4115  -23.7024   16.0513 C.2       9 UNK         0.4988 
     44 O         -51.1994  -23.2829   16.8993 O.2       9 UNK        -0.5108 
     45 CA        -50.3899  -23.0407   14.6660 C.3       8 UNK         0.0248 
     46 CB        -49.1904  -22.0881   14.5340 C.3       8 UNK        -0.2001 
     47 N         -50.3504  -24.0407   13.6011 N.am      8 UNK        -0.4140 
     48 C         -51.4297  -24.6471   13.0899 C.2       8 UNK         0.5028 
     49 O         -52.5858  -24.3161   13.3561 O.2       8 UNK        -0.5428 
     50 CA        -51.1968  -25.8037   12.0987 C.3       7 UNK         0.0264 
     51 CB        -51.3379  -25.3004   10.6562 C.3       7 UNK        -0.1988 
     52 N         -49.9007  -26.4742   12.2547 N.am      7 UNK        -0.4454 
     53 C         -49.5573  -27.2094   13.3234 C.2       7 UNK         0.5027 
     54 O         -50.3036  -27.4173   14.2790 O.2       7 UNK        -0.5083 
     55 CA        -48.1129  -27.7397   13.3949 C.3       6 UNK         0.0844 
     56 C56       -47.9676  -29.1925   12.8687 C.3       14 UNK        -0.0967 
     57 S57       -47.5733  -29.3331   11.0929 S.3       14 UNK        -0.2604 
     58 C58       -48.6977  -30.6559   10.5352 C.3       14 UNK         0.0134 
     59 N         -47.1432  -26.7987   12.8254 N.am      6 UNK        -0.4116 
     60 C         -46.8416  -25.6121   13.3688 C.2       5 UNK         0.5034 
     61 O         -47.3414  -25.1909   14.4128 O.2       5 UNK        -0.5045 
     62 CA        -45.8522  -24.7287   12.5930 C.3       5 UNK         0.0224 
     63 CB        -44.4384  -25.3335   12.6063 C.3       5 UNK        -0.1978 
     64 N         -46.2695  -24.4723   11.2109 N.am      5 UNK        -0.4737 
     65 C         -47.4027  -23.8488   10.8565 C.2       4 UNK         0.5027 
     66 O         -48.2375  -23.4467   11.6631 O.2       4 UNK        -0.5211 
     67 CA        -47.6561  -23.6223    9.3564 C.3       4 UNK         0.0297 
     68 CB        -47.2590  -22.1922    8.9584 C.3       4 UNK        -0.1993 
     69 N         -46.9735  -24.5716    8.4756 N.am      4 UNK        -0.4486 
     70 C         -47.2187  -25.8851    8.4132 C.2       3 UNK         0.4961 
     71 O         -48.0311  -26.4579    9.1392 O.2       3 UNK        -0.5105 
     72 CA        -46.4344  -26.6617    7.3367 C.3       3 UNK         0.0299 
     73 CB        -46.5570  -28.1882    7.4827 C.3       3 UNK        -0.1972 
     74 N         -46.8578  -26.2861    5.9867 N.am      3 UNK        -0.4305 
     75 C         -46.5727  -25.1429    5.3531 C.2       2 UNK         0.5006 
     76 O         -45.8557  -24.2640    5.8353 O.2       2 UNK        -0.5106 
     77 CA        -47.1974  -24.9168    3.9629 C.3       2 UNK         0.0296 
     78 CB        -46.2887  -25.4825    2.8536 C.3       2 UNK        -0.2002 
     79 N         -48.5887  -25.3785    3.8092 N.am      2 UNK        -0.4032 
     80 C         -49.0661  -26.6330    3.8157 C.2       1 UNK         0.5000 
     81 O         -48.3719  -27.6314    4.0288 O.2       1 UNK        -0.5238 
     82 H82       -49.9559  -29.9600    0.4867 H         1 UNK         0.0889 
     83 H83       -51.5794  -29.4176    0.0517 H         1 UNK         0.0889 
     84 H84       -51.2994  -30.2112    1.6029 H         1 UNK         0.0889 
     85 H85       -51.2186  -28.7750    3.3253 H         1 UNK         0.3028 
     86 H86       -50.8997  -25.9369    2.9625 H         1 UNK         0.0864 
     87 H87       -52.4587  -26.5977    4.6414 H         1 UNK         0.0720 
     88 H88       -51.1206  -25.8774    5.4814 H         1 UNK         0.0720 
     89 H89       -52.3025  -26.9816    7.6809 H         1 UNK         0.0814 
     90 H90       -50.5549  -26.8740    7.7273 H         1 UNK         0.0814 
     91 H91       -49.2053  -28.6590    8.7602 H         1 UNK         0.1469 
     92 H92       -51.1927  -31.5456   11.2187 H         1 UNK         0.1381 
     93 H93       -53.4743  -28.9264    8.6966 H         1 UNK         0.1206 
     94 H94       -53.8416  -31.9384    9.9462 H         1 UNK         0.0813 
     95 H95       -54.6391  -30.3977   10.1361 H         1 UNK         0.0813 
     96 H96       -53.3036  -28.9517   12.2939 H         1 UNK         0.0638 
     97 H97       -53.5392  -29.5592   13.8985 H         1 UNK         0.0638 
     98 H98       -55.9228  -29.3142   12.0290 H         1 UNK         0.0568 
     99 H99       -56.6465  -27.5780   14.8816 H         1 UNK         0.3450 
    100 H100      -57.3345  -28.9259   15.7520 H         1 UNK         0.3450 
    101 H101      -54.5941  -27.0730   13.3881 H         1 UNK         0.2987 
    102 H102      -55.3404  -24.9050   11.5559 H         1 UNK         0.0766 
    103 H103      -57.1358  -23.3082   12.2809 H         1 UNK         0.0798 
    104 H104      -58.0640  -24.6542   12.9411 H         1 UNK         0.0798 
    105 H105      -57.7599  -24.5532   11.2134 H         1 UNK         0.0798 
    106 H106      -54.3734  -24.4513   13.4878 H         1 UNK         0.3198 
    107 H107      -54.0062  -23.9204   15.5255 H         1 UNK         0.0843 
    108 H108      -56.2426  -24.3072   17.5758 H         1 UNK         0.0831 
    109 H109      -56.0471  -22.8889   16.5562 H         1 UNK         0.0831 
    110 H110      -54.8178  -23.2792   17.7468 H         1 UNK         0.0831 
    111 H111      -53.9566  -25.5462   17.6481 H         1 UNK         0.3133 
    112 H112      -52.9905  -27.5015   18.0196 H         1 UNK         0.0566 
    113 H113      -51.9405  -29.6088   17.2927 H         1 UNK         0.0814 
    114 H114      -53.4998  -29.4515   16.4953 H         1 UNK         0.0814 
    115 H115      -52.0167  -29.1259   15.6031 H         1 UNK         0.0814 
    116 H116      -50.8249  -26.9660   16.0144 H         1 UNK         0.3091 
    117 H117      -49.2187  -24.7137   18.3087 H         1 UNK         0.0702 
    118 H118      -47.2810  -25.8396   17.2291 H         1 UNK         0.0785 
    119 H119      -48.3241  -27.1492   16.6781 H         1 UNK         0.0785 
    120 H120      -48.0472  -26.9060   18.3962 H         1 UNK         0.0785 
    121 H121      -48.8918  -24.9504   15.5225 H         1 UNK         0.2998 
    122 H122      -51.2997  -22.4450   14.5639 H         1 UNK         0.0697 
    123 H123      -48.2393  -22.6168   14.6036 H         1 UNK         0.0825 
    124 H124      -49.2035  -21.3318   15.3199 H         1 UNK         0.0825 
    125 H125      -49.2081  -21.5639   13.5783 H         1 UNK         0.0825 
    126 H126      -49.4368  -24.2844   13.2363 H         1 UNK         0.3029 
    127 H127      -51.9765  -26.5470   12.2816 H         1 UNK         0.0897 
    128 H128      -52.3314  -24.8848   10.4828 H         1 UNK         0.0792 
    129 H129      -51.1938  -26.1101    9.9447 H         1 UNK         0.0792 
    130 H130      -50.6118  -24.5199   10.4300 H         1 UNK         0.0792 
    131 H131      -49.2305  -26.3622   11.5051 H         1 UNK         0.3086 
    132 H132      -47.8850  -27.7939   14.4612 H         1 UNK         0.0583 
    133 H133      -47.1526  -29.6798   13.4060 H         1 UNK         0.1020 
    134 H134      -48.8552  -29.7832   13.1060 H         1 UNK         0.1020 
    135 H135      -48.2259  -31.1716    9.6978 H         1 UNK         0.0694 
    136 H136      -48.8105  -31.4004   11.3247 H         1 UNK         0.0694 
    137 H137      -46.7290  -27.0655   11.9433 H         1 UNK         0.2989 
    138 H138      -45.8127  -23.7655   13.1070 H         1 UNK         0.1055 
    139 H139      -44.1108  -25.5368   13.6270 H         1 UNK         0.0806 
    140 H140      -43.7119  -24.6497   12.1670 H         1 UNK         0.0806 
    141 H141      -44.3892  -26.2732   12.0548 H         1 UNK         0.0806 
    142 H142      -45.6430  -24.7669   10.4762 H         1 UNK         0.3061 
    143 H143      -48.7287  -23.7345    9.1884 H         1 UNK         0.0734 
    144 H144      -47.5181  -21.9815    7.9206 H         1 UNK         0.0832 
    145 H145      -47.7778  -21.4571    9.5758 H         1 UNK         0.0832 
    146 H146      -46.1885  -22.0221    9.0795 H         1 UNK         0.0832 
    147 H147      -46.3385  -24.1872    7.7822 H         1 UNK         0.3156 
    148 H148      -45.3800  -26.4040    7.4564 H         1 UNK         0.0589 
    149 H149      -47.5634  -28.5363    7.2520 H         1 UNK         0.0808 
    150 H150      -45.8698  -28.7027    6.8110 H         1 UNK         0.0808 
    151 H151      -46.3160  -28.5087    8.4965 H         1 UNK         0.0808 
    152 H152      -47.4405  -26.9524    5.4843 H         1 UNK         0.3098 
    153 H153      -47.2382  -23.8352    3.8230 H         1 UNK         0.0720 
    154 H154      -46.6838  -25.2555    1.8634 H         1 UNK         0.0791 
    155 H155      -46.1751  -26.5644    2.9289 H         1 UNK         0.0791 
    156 H156      -45.2894  -25.0487    2.9111 H         1 UNK         0.0791 
    157 H157      -49.2563  -24.6330    3.6652 H         1 UNK         0.3028 
@<TRIPOS>BOND
     1    1    2 1    
     2    1   82 1    
     3    1   83 1    
     4    1   84 1    
     5    2    3 2    
     6    2    4 am   BACKBONE|DICT|INTERRES
     7    4    5 1    
     8    4   85 1    
     9    5    6 1    
    10    5   80 1    
    11    5   86 1    
    12    6    7 1    
    13    6   87 1    
    14    6   88 1    
    15    7    8 1    
    16    8    9 1    
    17    8   89 1    
    18    8   90 1    
    19    9   10 ar   
    20    9   14 ar   
    21   10   11 ar   
    22   10   91 1    
    23   11   12 ar   
    24   11   58 1    
    25   12   13 ar   
    26   12   92 1    
    27   13   14 ar   
    28   13   15 1    
    29   14   93 1    
    30   15   16 1    
    31   15   94 1    
    32   15   95 1    
    33   16   17 1    
    34   17   18 1    
    35   17   96 1    
    36   17   97 1    
    37   18   19 1    
    38   18   22 1    
    39   18   98 1    
    40   19   20 am   BACKBONE|DICT|INTERRES
    41   19   21 2    
    42   20   99 1    
    43   20  100 1    
    44   22   23 am   BACKBONE|DICT|INTERRES
    45   22  101 1    
    46   23   24 2    
    47   23   25 1    
    48   25   26 1    
    49   25   27 1    
    50   25  102 1    
    51   26  103 1    
    52   26  104 1    
    53   26  105 1    
    54   27   28 am   BACKBONE|DICT|INTERRES
    55   27  106 1    
    56   28   29 2    
    57   28   30 1    
    58   30   31 1    
    59   30   32 1    
    60   30  107 1    
    61   31  108 1    
    62   31  109 1    
    63   31  110 1    
    64   32   33 am   BACKBONE|DICT|INTERRES
    65   32  111 1    
    66   33   34 2    
    67   33   35 1    
    68   35   36 1    
    69   35   37 1    
    70   35  112 1    
    71   36  113 1    
    72   36  114 1    
    73   36  115 1    
    74   37   38 am   BACKBONE|DICT|INTERRES
    75   37  116 1    
    76   38   39 2    
    77   38   40 1    
    78   40   41 1    
    79   40   42 1    
    80   40  117 1    
    81   41  118 1    
    82   41  119 1    
    83   41  120 1    
    84   42   43 am   BACKBONE|DICT|INTERRES
    85   42  121 1    
    86   43   44 2    
    87   43   45 1    
    88   45   46 1    
    89   45   47 1    
    90   45  122 1    
    91   46  123 1    
    92   46  124 1    
    93   46  125 1    
    94   47   48 am   BACKBONE|DICT|INTERRES
    95   47  126 1    
    96   48   49 2    
    97   48   50 1    
    98   50   51 1    
    99   50   52 1    
   100   50  127 1    
   101   51  128 1    
   102   51  129 1    
   103   51  130 1    
   104   52   53 am   BACKBONE|DICT|INTERRES
   105   52  131 1    
   106   53   54 2    
   107   53   55 1    
   108   55   56 1    
   109   55   59 1    
   110   55  132 1    
   111   56   57 1    
   112   56  133 1    
   113   56  134 1    
   114   57   58 1    
   115   58  135 1    
   116   58  136 1    
   117   59   60 am   BACKBONE|DICT|INTERRES
   118   59  137 1    
   119   60   61 2    
   120   60   62 1    
   121   62   63 1    
   122   62   64 1    
   123   62  138 1    
   124   63  139 1    
   125   63  140 1    
   126   63  141 1    
   127   64   65 am   BACKBONE|DICT|INTERRES
   128   64  142 1    
   129   65   66 2    
   130   65   67 1    
   131   67   68 1    
   132   67   69 1    
   133   67  143 1    
   134   68  144 1    
   135   68  145 1    
   136   68  146 1    
   137   69   70 am   BACKBONE|DICT|INTERRES
   138   69  147 1    
   139   70   71 2    
   140   70   72 1    
   141   72   73 1    
   142   72   74 1    
   143   72  148 1    
   144   73  149 1    
   145   73  150 1    
   146   73  151 1    
   147   74   75 am   BACKBONE|DICT|INTERRES
   148   74  152 1    
   149   75   76 2    
   150   75   77 1    
   151   77   78 1    
   152   77   79 1    
   153   77  153 1    
   154   78  154 1    
   155   78  155 1    
   156   78  156 1    
   157   79   80 am   BACKBONE|DICT|INTERRES
   158   79  157 1    
   159   80   81 2    
@<TRIPOS>SUBSTRUCTURE
     1 UNK         1 GROUP             0       ****    0 ROOT    
