@<TRIPOS>MOLECULE
3R207
157   159    1
SMALL
USER_CHARGES


@<TRIPOS>ATOM
      1 CA        -47.2551  -29.3566    6.1148 C.3       0 UNK        -0.1975 
      2 C         -48.1250  -28.4769    5.2316 C.2       0 UNK         0.4852 
      3 O         -48.0215  -28.5410    4.0057 O.2       0 UNK        -0.5216 
      4 N         -48.9640  -27.6305    5.8404 N.am      1 UNK        -0.4461 
      5 CA        -49.8637  -26.6966    5.1540 C.3       1 UNK         0.0864 
      6 C6        -51.1386  -26.4087    5.9889 C.3       14 UNK        -0.0898 
      7 S7        -52.2775  -27.8348    5.9926 S.3       14 UNK        -0.2598 
      8 C8        -53.0483  -27.7081    7.6454 C.3       14 UNK         0.0286 
      9 C9        -52.3810  -28.5283    8.7525 C.ar      14 UNK        -0.0844 
     10 C10       -51.0568  -28.9784    8.6728 C.ar      14 UNK        -0.0881 
     11 C11       -50.4891  -29.7292    9.7059 C.ar      14 UNK        -0.0643 
     12 C12       -51.2559  -30.0396   10.8321 C.ar      14 UNK        -0.0930 
     13 C13       -52.5788  -29.5978   10.9303 C.ar      14 UNK        -0.0827 
     14 C14       -53.1269  -28.8337    9.8950 C.ar      14 UNK        -0.1249 
     15 C15       -53.4045  -29.9135   12.1688 C.3       14 UNK         0.0141 
     16 S16       -54.9355  -30.8167   11.7787 S.3       14 UNK        -0.2313 
     17 C17       -55.8251  -30.6844   13.3679 C.3       14 UNK        -0.0915 
     18 CA        -56.8725  -29.5370   13.3610 C.3       13 UNK         0.0968 
     19 C         -57.8196  -29.5900   14.5956 C.2       13 UNK         0.5732 
     20 N         -58.0840  -28.4895   15.2927 N.am      13 UNK        -0.7310 
     21 O         -58.3546  -30.6494   14.9152 O.2       13 UNK        -0.5035 
     22 N         -56.2229  -28.2288   13.2083 N.am      13 UNK        -0.4233 
     23 C         -56.5026  -27.3234   12.2638 C.2       13 UNK         0.4989 
     24 O         -57.3131  -27.5126   11.3551 O.2       13 UNK        -0.4996 
     25 CA        -55.7428  -25.9804   12.3285 C.3       12 UNK         0.0216 
     26 CB        -56.5902  -24.7999   11.8101 C.3       12 UNK        -0.1964 
     27 N         -55.1739  -25.6618   13.6450 N.am      12 UNK        -0.4276 
     28 C         -55.8195  -25.5352   14.8120 C.2       12 UNK         0.5020 
     29 O         -57.0364  -25.6889   14.9416 O.2       12 UNK        -0.5489 
     30 CA        -54.9363  -25.2528   16.0451 C.3       11 UNK         0.0294 
     31 CB        -55.7361  -25.2950   17.3637 C.3       11 UNK        -0.2019 
     32 N         -53.7606  -26.1308   16.1516 N.am      11 UNK        -0.4493 
     33 C         -53.7331  -27.4730   16.1050 C.2       11 UNK         0.4932 
     34 O         -54.7171  -28.1654   15.8417 O.2       11 UNK        -0.5029 
     35 CA        -52.3927  -28.1719   16.4062 C.3       10 UNK         0.0280 
     36 CB        -52.1671  -29.4013   15.5132 C.3       10 UNK        -0.1976 
     37 N         -51.2359  -27.2825   16.2785 N.am      10 UNK        -0.4242 
     38 C         -50.6473  -26.6423   17.2967 C.2       10 UNK         0.5072 
     39 O         -51.0340  -26.7048   18.4644 O.2       10 UNK        -0.5224 
     40 CA        -49.4258  -25.7718   16.9569 C.3       9 UNK         0.0343 
     41 CB        -48.1629  -26.6401   16.8421 C.3       9 UNK        -0.2003 
     42 N         -49.5906  -24.9751   15.7374 N.am      9 UNK        -0.4272 
     43 C         -50.5128  -24.0138   15.5750 C.2       9 UNK         0.4988 
     44 O         -51.3467  -23.7097   16.4290 O.2       9 UNK        -0.5108 
     45 CA        -50.5239  -23.2817   14.2231 C.3       8 UNK         0.0248 
     46 CB        -49.3489  -22.2957   14.1190 C.3       8 UNK        -0.2001 
     47 N         -50.4974  -24.2018   13.0868 N.am      8 UNK        -0.4140 
     48 C         -51.4618  -25.0868   12.8023 C.2       8 UNK         0.5028 
     49 O         -52.5104  -25.1863   13.4359 O.2       8 UNK        -0.5428 
     50 CA        -51.1943  -26.0576   11.6443 C.3       7 UNK         0.0264 
     51 CB        -51.4372  -25.3779   10.2874 C.3       7 UNK        -0.1988 
     52 N         -49.8418  -26.6136   11.6932 N.am      7 UNK        -0.4454 
     53 C         -49.3727  -27.3834   12.6865 C.2       7 UNK         0.5027 
     54 O         -50.0367  -27.7208   13.6666 O.2       7 UNK        -0.5083 
     55 CA        -47.8923  -27.7999   12.6074 C.3       6 UNK         0.0844 
     56 C56       -47.6887  -29.1120   11.8103 C.3       14 UNK        -0.0967 
     57 S57       -47.8428  -28.9352    9.9978 S.3       14 UNK        -0.2604 
     58 C58       -49.0568  -30.2265    9.5792 C.3       14 UNK         0.0134 
     59 N         -47.0364  -26.7024   12.1458 N.am      6 UNK        -0.4116 
     60 C         -46.8079  -25.5840   12.8496 C.2       5 UNK         0.5034 
     61 O         -47.2660  -25.3727   13.9727 O.2       5 UNK        -0.5045 
     62 CA        -45.9642  -24.4942   12.1686 C.3       5 UNK         0.0224 
     63 CB        -44.4680  -24.8395   12.2381 C.3       5 UNK        -0.1978 
     64 N         -46.3461  -24.2358   10.7765 N.am      5 UNK        -0.4737 
     65 C         -47.5666  -23.8590   10.3689 C.2       4 UNK         0.5027 
     66 O         -48.5176  -23.7144   11.1348 O.2       4 UNK        -0.5211 
     67 CA        -47.7761  -23.5823    8.8696 C.3       4 UNK         0.0297 
     68 CB        -48.1052  -22.0990    8.6366 C.3       4 UNK        -0.1993 
     69 N         -46.6397  -23.9551    8.0225 N.am      4 UNK        -0.4486 
     70 C         -46.3260  -25.2094    7.6812 C.2       3 UNK         0.4961 
     71 O         -46.9345  -26.2028    8.0797 O.2       3 UNK        -0.5105 
     72 CA        -45.1863  -25.3662    6.6639 C.3       3 UNK         0.0299 
     73 CB        -44.3813  -26.6586    6.8873 C.3       3 UNK        -0.1972 
     74 N         -45.7870  -25.3885    5.3345 N.am      3 UNK        -0.4305 
     75 C         -46.1598  -24.2979    4.6494 C.2       2 UNK         0.5006 
     76 O         -45.8089  -23.1518    4.9329 O.2       2 UNK        -0.5106 
     77 CA        -47.1519  -24.5290    3.4960 C.3       2 UNK         0.0296 
     78 CB        -46.4148  -24.9351    2.2098 C.3       2 UNK        -0.2002 
     79 N         -48.1516  -25.5473    3.8378 N.am      2 UNK        -0.4032 
     80 C         -49.0771  -25.4191    4.8020 C.2       1 UNK         0.5000 
     81 O         -49.2748  -24.3758    5.4282 O.2       1 UNK        -0.5238 
     82 H82       -46.2610  -29.4646    5.6820 H         1 UNK         0.0889 
     83 H83       -47.6957  -30.3486    6.2072 H         1 UNK         0.0889 
     84 H84       -47.1422  -28.9336    7.1123 H         1 UNK         0.0889 
     85 H85       -48.9275  -27.5423    6.8468 H         1 UNK         0.3028 
     86 H86       -50.1854  -27.1347    4.2061 H         1 UNK         0.0864 
     87 H87       -51.6916  -25.5631    5.5753 H         1 UNK         0.0720 
     88 H88       -50.8747  -26.1324    7.0113 H         1 UNK         0.0720 
     89 H89       -54.0819  -28.0418    7.5416 H         1 UNK         0.0814 
     90 H90       -53.1001  -26.6621    7.9495 H         1 UNK         0.0814 
     91 H91       -50.4571  -28.7557    7.8052 H         1 UNK         0.1469 
     92 H92       -50.8210  -30.6225   11.6321 H         1 UNK         0.1381 
     93 H93       -54.1478  -28.4855    9.9778 H         1 UNK         0.1206 
     94 H94       -53.6411  -28.9777   12.6753 H         1 UNK         0.0813 
     95 H95       -52.8293  -30.5208   12.8680 H         1 UNK         0.0813 
     96 H96       -55.1136  -30.5546   14.1853 H         1 UNK         0.0638 
     97 H97       -56.3105  -31.6468   13.5385 H         1 UNK         0.0638 
     98 H98       -57.5323  -29.7138   12.5101 H         1 UNK         0.0568 
     99 H99       -57.6668  -27.5968   15.0503 H         1 UNK         0.3450 
    100 H100      -58.7063  -28.5500   16.0819 H         1 UNK         0.3450 
    101 H101      -55.5944  -27.9786   13.9638 H         1 UNK         0.2987 
    102 H102      -54.8893  -26.0927   11.6581 H         1 UNK         0.0766 
    103 H103      -56.0266  -23.8672   11.8343 H         1 UNK         0.0798 
    104 H104      -57.4940  -24.6616   12.4045 H         1 UNK         0.0798 
    105 H105      -56.9010  -24.9604   10.7770 H         1 UNK         0.0798 
    106 H106      -54.1584  -25.5218   13.6531 H         1 UNK         0.3198 
    107 H107      -54.5525  -24.2390   15.9192 H         1 UNK         0.0843 
    108 H108      -56.1618  -26.2831   17.5435 H         1 UNK         0.0831 
    109 H109      -56.5618  -24.5825   17.3450 H         1 UNK         0.0831 
    110 H110      -55.1084  -25.0395   18.2174 H         1 UNK         0.0831 
    111 H111      -52.8815  -25.6551   16.3094 H         1 UNK         0.3133 
    112 H112      -52.4651  -28.5329   17.4339 H         1 UNK         0.0566 
    113 H113      -51.2600  -29.9346   15.7976 H         1 UNK         0.0814 
    114 H114      -52.9934  -30.1096   15.5829 H         1 UNK         0.0814 
    115 H115      -52.0637  -29.1069   14.4717 H         1 UNK         0.0814 
    116 H116      -50.8344  -27.2021   15.3463 H         1 UNK         0.3091 
    117 H117      -49.2807  -25.0741   17.7844 H         1 UNK         0.0702 
    118 H118      -47.2719  -26.0270   16.7055 H         1 UNK         0.0785 
    119 H119      -48.2250  -27.3317   16.0011 H         1 UNK         0.0785 
    120 H120      -48.0119  -27.2341   17.7445 H         1 UNK         0.0785 
    121 H121      -48.9191  -25.1427   14.9929 H         1 UNK         0.2998 
    122 H122      -51.4524  -22.7102   14.1626 H         1 UNK         0.0697 
    123 H123      -48.3864  -22.8083   14.1343 H         1 UNK         0.0825 
    124 H124      -49.3571  -21.5881   14.9491 H         1 UNK         0.0825 
    125 H125      -49.4004  -21.7162   13.1970 H         1 UNK         0.0825 
    126 H126      -49.6897  -24.1480   12.4674 H         1 UNK         0.3029 
    127 H127      -51.8926  -26.8909   11.7407 H         1 UNK         0.0897 
    128 H128      -50.8476  -24.4688   10.1703 H         1 UNK         0.0792 
    129 H129      -52.4863  -25.1005   10.1777 H         1 UNK         0.0792 
    130 H130      -51.1867  -26.0421    9.4621 H         1 UNK         0.0792 
    131 H131      -49.2183  -26.3737   10.9368 H         1 UNK         0.3086 
    132 H132      -47.5884  -28.0171   13.6339 H         1 UNK         0.0583 
    133 H133      -46.6885  -29.4982   12.0123 H         1 UNK         0.1020 
    134 H134      -48.3700  -29.8833   12.1741 H         1 UNK         0.1020 
    135 H135      -48.8804  -30.5462    8.5514 H         1 UNK         0.0694 
    136 H136      -48.8933  -31.1110   10.1967 H         1 UNK         0.0694 
    137 H137      -46.6549  -26.7879   11.2142 H         1 UNK         0.2989 
    138 H138      -46.1266  -23.5691   12.7263 H         1 UNK         0.1055 
    139 H139      -44.1586  -25.0272   13.2675 H         1 UNK         0.0806 
    140 H140      -43.8539  -24.0205   11.8631 H         1 UNK         0.0806 
    141 H141      -44.2288  -25.7317   11.6581 H         1 UNK         0.0806 
    142 H142      -45.6236  -24.3239   10.0772 H         1 UNK         0.3061 
    143 H143      -48.6410  -24.1713    8.5554 H         1 UNK         0.0734 
    144 H144      -47.2774  -21.4503    8.9255 H         1 UNK         0.0832 
    145 H145      -48.3373  -21.9059    7.5888 H         1 UNK         0.0832 
    146 H146      -48.9762  -21.7950    9.2191 H         1 UNK         0.0832 
    147 H147      -46.1178  -23.1974    7.6030 H         1 UNK         0.3156 
    148 H148      -44.5019  -24.5196    6.7527 H         1 UNK         0.0589 
    149 H149      -45.0022  -27.5502    6.8022 H         1 UNK         0.0808 
    150 H150      -43.5689  -26.7478    6.1660 H         1 UNK         0.0808 
    151 H151      -43.9345  -26.6694    7.8822 H         1 UNK         0.0808 
    152 H152      -46.1430  -26.2803    5.0252 H         1 UNK         0.3098 
    153 H153      -47.6756  -23.5886    3.3115 H         1 UNK         0.0720 
    154 H154      -47.1054  -25.0328    1.3719 H         1 UNK         0.0791 
    155 H155      -45.8895  -25.8843    2.3240 H         1 UNK         0.0791 
    156 H156      -45.6745  -24.1836    1.9318 H         1 UNK         0.0791 
    157 H157      -48.0473  -26.4604    3.4093 H         1 UNK         0.3028 
@<TRIPOS>BOND
     1    1    2 1    
     2    1   82 1    
     3    1   83 1    
     4    1   84 1    
     5    2    3 2    
     6    2    4 am   BACKBONE|DICT|INTERRES
     7    4    5 1    
     8    4   85 1    
     9    5    6 1    
    10    5   80 1    
    11    5   86 1    
    12    6    7 1    
    13    6   87 1    
    14    6   88 1    
    15    7    8 1    
    16    8    9 1    
    17    8   89 1    
    18    8   90 1    
    19    9   10 ar   
    20    9   14 ar   
    21   10   11 ar   
    22   10   91 1    
    23   11   12 ar   
    24   11   58 1    
    25   12   13 ar   
    26   12   92 1    
    27   13   14 ar   
    28   13   15 1    
    29   14   93 1    
    30   15   16 1    
    31   15   94 1    
    32   15   95 1    
    33   16   17 1    
    34   17   18 1    
    35   17   96 1    
    36   17   97 1    
    37   18   19 1    
    38   18   22 1    
    39   18   98 1    
    40   19   20 am   BACKBONE|DICT|INTERRES
    41   19   21 2    
    42   20   99 1    
    43   20  100 1    
    44   22   23 am   BACKBONE|DICT|INTERRES
    45   22  101 1    
    46   23   24 2    
    47   23   25 1    
    48   25   26 1    
    49   25   27 1    
    50   25  102 1    
    51   26  103 1    
    52   26  104 1    
    53   26  105 1    
    54   27   28 am   BACKBONE|DICT|INTERRES
    55   27  106 1    
    56   28   29 2    
    57   28   30 1    
    58   30   31 1    
    59   30   32 1    
    60   30  107 1    
    61   31  108 1    
    62   31  109 1    
    63   31  110 1    
    64   32   33 am   BACKBONE|DICT|INTERRES
    65   32  111 1    
    66   33   34 2    
    67   33   35 1    
    68   35   36 1    
    69   35   37 1    
    70   35  112 1    
    71   36  113 1    
    72   36  114 1    
    73   36  115 1    
    74   37   38 am   BACKBONE|DICT|INTERRES
    75   37  116 1    
    76   38   39 2    
    77   38   40 1    
    78   40   41 1    
    79   40   42 1    
    80   40  117 1    
    81   41  118 1    
    82   41  119 1    
    83   41  120 1    
    84   42   43 am   BACKBONE|DICT|INTERRES
    85   42  121 1    
    86   43   44 2    
    87   43   45 1    
    88   45   46 1    
    89   45   47 1    
    90   45  122 1    
    91   46  123 1    
    92   46  124 1    
    93   46  125 1    
    94   47   48 am   BACKBONE|DICT|INTERRES
    95   47  126 1    
    96   48   49 2    
    97   48   50 1    
    98   50   51 1    
    99   50   52 1    
   100   50  127 1    
   101   51  128 1    
   102   51  129 1    
   103   51  130 1    
   104   52   53 am   BACKBONE|DICT|INTERRES
   105   52  131 1    
   106   53   54 2    
   107   53   55 1    
   108   55   56 1    
   109   55   59 1    
   110   55  132 1    
   111   56   57 1    
   112   56  133 1    
   113   56  134 1    
   114   57   58 1    
   115   58  135 1    
   116   58  136 1    
   117   59   60 am   BACKBONE|DICT|INTERRES
   118   59  137 1    
   119   60   61 2    
   120   60   62 1    
   121   62   63 1    
   122   62   64 1    
   123   62  138 1    
   124   63  139 1    
   125   63  140 1    
   126   63  141 1    
   127   64   65 am   BACKBONE|DICT|INTERRES
   128   64  142 1    
   129   65   66 2    
   130   65   67 1    
   131   67   68 1    
   132   67   69 1    
   133   67  143 1    
   134   68  144 1    
   135   68  145 1    
   136   68  146 1    
   137   69   70 am   BACKBONE|DICT|INTERRES
   138   69  147 1    
   139   70   71 2    
   140   70   72 1    
   141   72   73 1    
   142   72   74 1    
   143   72  148 1    
   144   73  149 1    
   145   73  150 1    
   146   73  151 1    
   147   74   75 am   BACKBONE|DICT|INTERRES
   148   74  152 1    
   149   75   76 2    
   150   75   77 1    
   151   77   78 1    
   152   77   79 1    
   153   77  153 1    
   154   78  154 1    
   155   78  155 1    
   156   78  156 1    
   157   79   80 am   BACKBONE|DICT|INTERRES
   158   79  157 1    
   159   80   81 2    
@<TRIPOS>SUBSTRUCTURE
     1 UNK         1 GROUP             0       ****    0 ROOT    
