@<TRIPOS>MOLECULE
3R207
157   159    1
SMALL
USER_CHARGES


@<TRIPOS>ATOM
      1 CA        -44.0920  -29.6348    3.9774 C.3       0 UNK        -0.1975 
      2 C         -45.6017  -29.7068    4.1521 C.2       0 UNK         0.4852 
      3 O         -46.3326  -29.6816    3.1614 O.2       0 UNK        -0.5216 
      4 N         -46.0712  -29.7989    5.4045 N.am      1 UNK        -0.4461 
      5 CA        -47.4931  -29.8449    5.7708 C.3       1 UNK         0.0864 
      6 C6        -47.6632  -30.3292    7.2324 C.3       14 UNK        -0.0898 
      7 S7        -49.3610  -30.8518    7.6588 S.3       14 UNK        -0.2598 
      8 C8        -49.7453  -29.8158    9.1105 C.3       14 UNK         0.0286 
      9 C9        -51.0199  -29.0161    8.9009 C.ar      14 UNK        -0.0844 
     10 C10       -50.9931  -27.8396    8.1472 C.ar      14 UNK        -0.0881 
     11 C11       -52.1538  -27.0779    7.9713 C.ar      14 UNK        -0.0643 
     12 C12       -53.3510  -27.5169    8.5431 C.ar      14 UNK        -0.0930 
     13 C13       -53.3930  -28.6996    9.2867 C.ar      14 UNK        -0.0827 
     14 C14       -52.2235  -29.4426    9.4690 C.ar      14 UNK        -0.1249 
     15 C15       -54.7076  -29.1767    9.8795 C.3       14 UNK         0.0141 
     16 S16       -55.0352  -28.3664   11.4692 S.3       14 UNK        -0.2313 
     17 C17       -56.7059  -29.0089   11.8103 C.3       14 UNK        -0.0915 
     18 CA        -57.2948  -28.4257   13.1251 C.3       13 UNK         0.0968 
     19 C         -58.8045  -28.7592   13.3316 C.2       13 UNK         0.5732 
     20 N         -59.2938  -28.8708   14.5622 N.am      13 UNK        -0.7310 
     21 O         -59.5564  -28.8858   12.3676 O.2       13 UNK        -0.5035 
     22 N         -56.4480  -28.6914   14.2983 N.am      13 UNK        -0.4233 
     23 C         -56.2061  -29.8875   14.8567 C.2       13 UNK         0.4989 
     24 O         -56.6167  -30.9558   14.4018 O.2       13 UNK        -0.4996 
     25 CA        -55.3862  -29.9073   16.1628 C.3       12 UNK         0.0216 
     26 CB        -53.9728  -30.4529   15.9021 C.3       12 UNK        -0.1964 
     27 N         -55.2983  -28.5974   16.8199 N.am      12 UNK        -0.4276 
     28 C         -56.3454  -27.9508   17.3577 C.2       12 UNK         0.5020 
     29 O         -57.4727  -28.4408   17.4427 O.2       12 UNK        -0.5489 
     30 CA        -56.1304  -26.5012   17.8313 C.3       11 UNK         0.0294 
     31 CB        -55.9461  -26.4581   19.3566 C.3       11 UNK        -0.2019 
     32 N         -55.0059  -25.8113   17.1918 N.am      11 UNK        -0.4493 
     33 C         -54.8596  -25.5767   15.8789 C.2       11 UNK         0.4932 
     34 O         -55.6789  -25.9196   15.0259 O.2       11 UNK        -0.5029 
     35 CA        -53.5585  -24.8743   15.4410 C.3       10 UNK         0.0280 
     36 CB        -52.8910  -24.0627   16.5722 C.3       10 UNK        -0.1976 
     37 N         -52.5799  -25.7886   14.8360 N.am      10 UNK        -0.4242 
     38 C         -52.1776  -26.9838   15.2997 C.2       10 UNK         0.5072 
     39 O         -52.6186  -27.5195   16.3185 O.2       10 UNK        -0.5224 
     40 CA        -51.0709  -27.6960   14.5039 C.3       9 UNK         0.0343 
     41 CB        -51.5660  -28.1378   13.1151 C.3       9 UNK        -0.2003 
     42 N         -49.8678  -26.8717   14.3706 N.am      9 UNK        -0.4272 
     43 C         -49.0732  -26.5069   15.3899 C.2       9 UNK         0.4988 
     44 O         -49.2261  -26.8856   16.5516 O.2       9 UNK        -0.5108 
     45 CA        -47.9088  -25.5538   15.0657 C.3       8 UNK         0.0248 
     46 CB        -46.7007  -26.3334   14.5229 C.3       8 UNK        -0.2001 
     47 N         -48.2935  -24.5030   14.1212 N.am      8 UNK        -0.4140 
     48 C         -49.1500  -23.5107   14.4047 C.2       8 UNK         0.5028 
     49 O         -49.6069  -23.3038   15.5282 O.2       8 UNK        -0.5428 
     50 CA        -49.5907  -22.6052   13.2418 C.3       7 UNK         0.0264 
     51 CB        -48.6450  -21.4026   13.0932 C.3       7 UNK        -0.1988 
     52 N         -49.6802  -23.3205   11.9670 N.am      7 UNK        -0.4454 
     53 C         -50.5910  -24.2642   11.6795 C.2       7 UNK         0.5027 
     54 O         -51.4936  -24.6046   12.4454 O.2       7 UNK        -0.5083 
     55 CA        -50.4308  -24.9696   10.3187 C.3       6 UNK         0.0844 
     56 C56       -51.0988  -24.1294    9.1977 C.3       14 UNK        -0.0967 
     57 S57       -50.7298  -24.7092    7.5079 S.3       14 UNK        -0.2604 
     58 C58       -52.1380  -25.8024    7.1366 C.3       14 UNK         0.0134 
     59 N         -49.0175  -25.2734   10.0656 N.am      6 UNK        -0.4116 
     60 C         -48.3118  -26.1918   10.7439 C.2       5 UNK         0.5034 
     61 O         -48.7953  -26.9154   11.6131 O.2       5 UNK        -0.5045 
     62 CA        -46.8039  -26.2954   10.4511 C.3       5 UNK         0.0224 
     63 CB        -46.5201  -27.3904    9.4180 C.3       5 UNK        -0.1978 
     64 N         -46.2202  -25.0321   10.0006 N.am      5 UNK        -0.4737 
     65 C         -46.0891  -23.9556   10.7887 C.2       4 UNK         0.5027 
     66 O         -46.4065  -23.9478   11.9772 O.2       4 UNK        -0.5211 
     67 CA        -45.5692  -22.6593   10.1439 C.3       4 UNK         0.0297 
     68 CB        -44.0626  -22.5023   10.4006 C.3       4 UNK        -0.1993 
     69 N         -45.8305  -22.5631    8.7043 N.am      4 UNK        -0.4486 
     70 C         -47.0424  -22.5932    8.1329 C.2       3 UNK         0.4961 
     71 O         -48.0910  -22.7055    8.7700 O.2       3 UNK        -0.5105 
     72 CA        -47.1034  -22.5093    6.5966 C.3       3 UNK         0.0299 
     73 CB        -45.7548  -22.1633    5.9232 C.3       3 UNK        -0.1972 
     74 N         -47.6718  -23.7245    6.0037 N.am      3 UNK        -0.4305 
     75 C         -47.2171  -24.9811    6.1207 C.2       2 UNK         0.5006 
     76 O         -46.2444  -25.3111    6.8061 O.2       2 UNK        -0.5106 
     77 CA        -47.9692  -26.0374    5.2988 C.3       2 UNK         0.0296 
     78 CB        -47.7715  -25.8068    3.7867 C.3       2 UNK        -0.2002 
     79 N         -47.5048  -27.3780    5.6488 N.am      2 UNK        -0.4032 
     80 C         -48.2129  -28.5048    5.4845 C.2       1 UNK         0.5000 
     81 O         -49.3745  -28.5197    5.0731 O.2       1 UNK        -0.5238 
     82 H82       -43.5676  -29.6704    4.9322 H         1 UNK         0.0889 
     83 H83       -43.8171  -28.7082    3.4740 H         1 UNK         0.0889 
     84 H84       -43.7448  -30.4694    3.3688 H         1 UNK         0.0889 
     85 H85       -45.4161  -29.8325    6.1729 H         1 UNK         0.3028 
     86 H86       -47.9582  -30.5916    5.1229 H         1 UNK         0.0864 
     87 H87       -47.0299  -31.2021    7.3994 H         1 UNK         0.0720 
     88 H88       -47.2997  -29.5755    7.9257 H         1 UNK         0.0720 
     89 H89       -48.9343  -29.1269    9.3397 H         1 UNK         0.0814 
     90 H90       -49.8409  -30.4604    9.9856 H         1 UNK         0.0814 
     91 H91       -50.0654  -27.5143    7.6980 H         1 UNK         0.1469 
     92 H92       -54.2570  -26.9425    8.4053 H         1 UNK         0.1381 
     93 H93       -52.2516  -30.3539   10.0507 H         1 UNK         0.1206 
     94 H94       -55.5232  -28.9657    9.1861 H         1 UNK         0.0813 
     95 H95       -54.6932  -30.2586   10.0209 H         1 UNK         0.0813 
     96 H96       -56.6709  -30.0986   11.8471 H         1 UNK         0.0638 
     97 H97       -57.3379  -28.7481   10.9597 H         1 UNK         0.0638 
     98 H98       -57.2847  -27.3406   13.0173 H         1 UNK         0.0568 
     99 H99       -58.6951  -28.7589   15.3680 H         1 UNK         0.3450 
    100 H100      -60.2727  -29.0749   14.6857 H         1 UNK         0.3450 
    101 H101      -56.0709  -27.8586   14.7380 H         1 UNK         0.2987 
    102 H102      -55.8906  -30.5888   16.8510 H         1 UNK         0.0766 
    103 H103      -53.3777  -30.4756   16.8152 H         1 UNK         0.0798 
    104 H104      -53.4387  -29.8516   15.1669 H         1 UNK         0.0798 
    105 H105      -54.0145  -31.4723   15.5162 H         1 UNK         0.0798 
    106 H106      -54.3983  -28.1229   16.7714 H         1 UNK         0.3198 
    107 H107      -57.0363  -25.9458   17.5794 H         1 UNK         0.0843 
    108 H108      -56.7835  -26.9392   19.8645 H         1 UNK         0.0831 
    109 H109      -55.8951  -25.4326   19.7232 H         1 UNK         0.0831 
    110 H110      -55.0370  -26.9741   19.6681 H         1 UNK         0.0831 
    111 H111      -54.2513  -25.5268   17.7996 H         1 UNK         0.3133 
    112 H112      -53.8443  -24.1706   14.6579 H         1 UNK         0.0566 
    113 H113      -52.1151  -23.4126   16.1711 H         1 UNK         0.0814 
    114 H114      -53.6084  -23.4145   17.0776 H         1 UNK         0.0814 
    115 H115      -52.4247  -24.7025   17.3225 H         1 UNK         0.0814 
    116 H116      -52.1610  -25.4531   13.9700 H         1 UNK         0.3091 
    117 H117      -50.7948  -28.5956   15.0580 H         1 UNK         0.0702 
    118 H118      -50.8067  -28.7174   12.5896 H         1 UNK         0.0785 
    119 H119      -51.8287  -27.2908   12.4811 H         1 UNK         0.0785 
    120 H120      -52.4527  -28.7670   13.1962 H         1 UNK         0.0785 
    121 H121      -49.6205  -26.5805   13.4307 H         1 UNK         0.2998 
    122 H122      -47.6048  -25.0682   15.9955 H         1 UNK         0.0697 
    123 H123      -46.9558  -26.9055   13.6315 H         1 UNK         0.0825 
    124 H124      -46.3332  -27.0422   15.2659 H         1 UNK         0.0825 
    125 H125      -45.8747  -25.6674   14.2722 H         1 UNK         0.0825 
    126 H126      -47.8602  -24.5215   13.2033 H         1 UNK         0.3029 
    127 H127      -50.5870  -22.2274   13.4826 H         1 UNK         0.0897 
    128 H128      -48.9832  -20.7251   12.3089 H         1 UNK         0.0792 
    129 H129      -48.6002  -20.8281   14.0195 H         1 UNK         0.0792 
    130 H130      -47.6272  -21.7121   12.8545 H         1 UNK         0.0792 
    131 H131      -48.9710  -23.1123   11.2771 H         1 UNK         0.3086 
    132 H132      -50.9627  -25.9213   10.3819 H         1 UNK         0.0583 
    133 H133      -52.1808  -24.1038    9.3405 H         1 UNK         0.1020 
    134 H134      -50.7680  -23.0899    9.2474 H         1 UNK         0.1020 
    135 H135      -53.0638  -25.2390    7.2635 H         1 UNK         0.0694 
    136 H136      -52.0887  -26.0831    6.0838 H         1 UNK         0.0694 
    137 H137      -48.5499  -24.6769    9.3929 H         1 UNK         0.2989 
    138 H138      -46.3036  -26.5752   11.3802 H         1 UNK         0.1055 
    139 H139      -46.7543  -28.3697    9.8354 H         1 UNK         0.0806 
    140 H140      -47.1181  -27.2547    8.5170 H         1 UNK         0.0806 
    141 H141      -45.4693  -27.4084    9.1281 H         1 UNK         0.0806 
    142 H142      -45.9697  -24.9607    9.0206 H         1 UNK         0.3061 
    143 H143      -46.0881  -21.8287   10.6269 H         1 UNK         0.0734 
    144 H144      -43.8432  -22.5457   11.4686 H         1 UNK         0.0832 
    145 H145      -43.4858  -23.2923    9.9178 H         1 UNK         0.0832 
    146 H146      -43.6938  -21.5435   10.0358 H         1 UNK         0.0832 
    147 H147      -45.0245  -22.4935    8.0999 H         1 UNK         0.3156 
    148 H148      -47.8002  -21.7013    6.3689 H         1 UNK         0.0589 
    149 H149      -45.0036  -22.9401    6.0715 H         1 UNK         0.0808 
    150 H150      -45.8808  -22.0361    4.8478 H         1 UNK         0.0808 
    151 H151      -45.3493  -21.2253    6.3052 H         1 UNK         0.0808 
    152 H152      -48.5125  -23.5799    5.4620 H         1 UNK         0.3098 
    153 H153      -49.0303  -25.9565    5.5382 H         1 UNK         0.0720 
    154 H154      -48.1325  -24.8248    3.4794 H         1 UNK         0.0791 
    155 H155      -48.3172  -26.5441    3.1973 H         1 UNK         0.0791 
    156 H156      -46.7192  -25.8718    3.5066 H         1 UNK         0.0791 
    157 H157      -46.5667  -27.4159    6.0260 H         1 UNK         0.3028 
@<TRIPOS>BOND
     1    1    2 1    
     2    1   82 1    
     3    1   83 1    
     4    1   84 1    
     5    2    3 2    
     6    2    4 am   BACKBONE|DICT|INTERRES
     7    4    5 1    
     8    4   85 1    
     9    5    6 1    
    10    5   80 1    
    11    5   86 1    
    12    6    7 1    
    13    6   87 1    
    14    6   88 1    
    15    7    8 1    
    16    8    9 1    
    17    8   89 1    
    18    8   90 1    
    19    9   10 ar   
    20    9   14 ar   
    21   10   11 ar   
    22   10   91 1    
    23   11   12 ar   
    24   11   58 1    
    25   12   13 ar   
    26   12   92 1    
    27   13   14 ar   
    28   13   15 1    
    29   14   93 1    
    30   15   16 1    
    31   15   94 1    
    32   15   95 1    
    33   16   17 1    
    34   17   18 1    
    35   17   96 1    
    36   17   97 1    
    37   18   19 1    
    38   18   22 1    
    39   18   98 1    
    40   19   20 am   BACKBONE|DICT|INTERRES
    41   19   21 2    
    42   20   99 1    
    43   20  100 1    
    44   22   23 am   BACKBONE|DICT|INTERRES
    45   22  101 1    
    46   23   24 2    
    47   23   25 1    
    48   25   26 1    
    49   25   27 1    
    50   25  102 1    
    51   26  103 1    
    52   26  104 1    
    53   26  105 1    
    54   27   28 am   BACKBONE|DICT|INTERRES
    55   27  106 1    
    56   28   29 2    
    57   28   30 1    
    58   30   31 1    
    59   30   32 1    
    60   30  107 1    
    61   31  108 1    
    62   31  109 1    
    63   31  110 1    
    64   32   33 am   BACKBONE|DICT|INTERRES
    65   32  111 1    
    66   33   34 2    
    67   33   35 1    
    68   35   36 1    
    69   35   37 1    
    70   35  112 1    
    71   36  113 1    
    72   36  114 1    
    73   36  115 1    
    74   37   38 am   BACKBONE|DICT|INTERRES
    75   37  116 1    
    76   38   39 2    
    77   38   40 1    
    78   40   41 1    
    79   40   42 1    
    80   40  117 1    
    81   41  118 1    
    82   41  119 1    
    83   41  120 1    
    84   42   43 am   BACKBONE|DICT|INTERRES
    85   42  121 1    
    86   43   44 2    
    87   43   45 1    
    88   45   46 1    
    89   45   47 1    
    90   45  122 1    
    91   46  123 1    
    92   46  124 1    
    93   46  125 1    
    94   47   48 am   BACKBONE|DICT|INTERRES
    95   47  126 1    
    96   48   49 2    
    97   48   50 1    
    98   50   51 1    
    99   50   52 1    
   100   50  127 1    
   101   51  128 1    
   102   51  129 1    
   103   51  130 1    
   104   52   53 am   BACKBONE|DICT|INTERRES
   105   52  131 1    
   106   53   54 2    
   107   53   55 1    
   108   55   56 1    
   109   55   59 1    
   110   55  132 1    
   111   56   57 1    
   112   56  133 1    
   113   56  134 1    
   114   57   58 1    
   115   58  135 1    
   116   58  136 1    
   117   59   60 am   BACKBONE|DICT|INTERRES
   118   59  137 1    
   119   60   61 2    
   120   60   62 1    
   121   62   63 1    
   122   62   64 1    
   123   62  138 1    
   124   63  139 1    
   125   63  140 1    
   126   63  141 1    
   127   64   65 am   BACKBONE|DICT|INTERRES
   128   64  142 1    
   129   65   66 2    
   130   65   67 1    
   131   67   68 1    
   132   67   69 1    
   133   67  143 1    
   134   68  144 1    
   135   68  145 1    
   136   68  146 1    
   137   69   70 am   BACKBONE|DICT|INTERRES
   138   69  147 1    
   139   70   71 2    
   140   70   72 1    
   141   72   73 1    
   142   72   74 1    
   143   72  148 1    
   144   73  149 1    
   145   73  150 1    
   146   73  151 1    
   147   74   75 am   BACKBONE|DICT|INTERRES
   148   74  152 1    
   149   75   76 2    
   150   75   77 1    
   151   77   78 1    
   152   77   79 1    
   153   77  153 1    
   154   78  154 1    
   155   78  155 1    
   156   78  156 1    
   157   79   80 am   BACKBONE|DICT|INTERRES
   158   79  157 1    
   159   80   81 2    
@<TRIPOS>SUBSTRUCTURE
     1 UNK         1 GROUP             0       ****    0 ROOT    
