@<TRIPOS>MOLECULE
3R207
157   159    1
SMALL
USER_CHARGES


@<TRIPOS>ATOM
      1 CA        -45.1752  -30.5919    7.3847 C.3       0 UNK        -0.1975 
      2 C         -46.2031  -30.2827    6.3061 C.2       0 UNK         0.4852 
      3 O         -45.8547  -30.2410    5.1259 O.2       0 UNK        -0.5216 
      4 N         -47.4653  -30.0736    6.7067 N.am      1 UNK        -0.4461 
      5 CA        -48.5938  -29.7233    5.8350 C.3       1 UNK         0.0864 
      6 C6        -49.9225  -29.7677    6.6312 C.3       14 UNK        -0.0898 
      7 S7        -51.4072  -29.6816    5.5785 S.3       14 UNK        -0.2598 
      8 C8        -52.6715  -30.3542    6.7036 C.3       14 UNK         0.0286 
      9 C9        -52.8246  -29.5323    7.9782 C.ar      14 UNK        -0.0844 
     10 C10       -53.2524  -28.2021    7.9158 C.ar      14 UNK        -0.0881 
     11 C11       -53.4349  -27.4533    9.0826 C.ar      14 UNK        -0.0643 
     12 C12       -53.2105  -28.0631   10.3213 C.ar      14 UNK        -0.0930 
     13 C13       -52.7771  -29.3894   10.4028 C.ar      14 UNK        -0.0827 
     14 C14       -52.5699  -30.1137    9.2239 C.ar      14 UNK        -0.1249 
     15 C15       -52.5400  -30.0077   11.7774 C.3       14 UNK         0.0141 
     16 S16       -53.0717  -31.7496   11.9515 S.3       14 UNK        -0.2313 
     17 C17       -54.8643  -31.8469   11.5699 C.3       14 UNK        -0.0915 
     18 CA        -55.7161  -30.5474   11.5817 C.3       13 UNK         0.0968 
     19 C         -57.1703  -30.8396   11.1044 C.2       13 UNK         0.5732 
     20 N         -58.1963  -30.6530   11.9271 N.am      13 UNK        -0.7310 
     21 O         -57.3728  -31.2400    9.9605 O.2       13 UNK        -0.5035 
     22 N         -55.6326  -29.8444   12.8727 N.am      13 UNK        -0.4233 
     23 C         -55.8757  -28.5369   13.0336 C.2       13 UNK         0.4989 
     24 O         -56.1908  -27.7938   12.1028 O.2       13 UNK        -0.4996 
     25 CA        -55.7465  -27.9607   14.4601 C.3       12 UNK         0.0216 
     26 CB        -55.0633  -28.9145   15.4622 C.3       12 UNK        -0.1964 
     27 N         -55.0142  -26.6931   14.4366 N.am      12 UNK        -0.4276 
     28 C         -55.5493  -25.4918   14.1776 C.2       12 UNK         0.5020 
     29 O         -56.7593  -25.2922   14.0465 O.2       12 UNK        -0.5489 
     30 CA        -54.5561  -24.3207   14.0396 C.3       11 UNK         0.0294 
     31 CB        -55.2337  -22.9344   14.0924 C.3       11 UNK        -0.2019 
     32 N         -53.4336  -24.3963   14.9818 N.am      11 UNK        -0.4493 
     33 C         -53.4941  -24.3503   16.3217 C.2       11 UNK         0.4932 
     34 O         -54.5409  -24.2281   16.9603 O.2       11 UNK        -0.5029 
     35 CA        -52.1488  -24.4460   17.0674 C.3       10 UNK         0.0280 
     36 CB        -52.3091  -24.7197   18.5785 C.3       10 UNK        -0.1976 
     37 N         -51.2161  -25.4005   16.4572 N.am      10 UNK        -0.4242 
     38 C         -51.3823  -26.7258   16.3165 C.2       10 UNK         0.5072 
     39 O         -52.3892  -27.3254   16.6930 O.2       10 UNK        -0.5224 
     40 CA        -50.2635  -27.5360   15.6280 C.3       9 UNK         0.0343 
     41 CB        -50.8182  -28.3145   14.4226 C.3       9 UNK        -0.2003 
     42 N         -49.1290  -26.7248   15.1821 N.am      9 UNK        -0.4272 
     43 C         -48.1584  -26.2427   15.9696 C.2       9 UNK         0.4988 
     44 O         -48.0587  -26.4987   17.1697 O.2       9 UNK        -0.5108 
     45 CA        -47.1601  -25.2674   15.3184 C.3       8 UNK         0.0248 
     46 CB        -45.9872  -26.0341   14.6880 C.3       8 UNK        -0.2001 
     47 N         -47.7770  -24.3854   14.3181 N.am      8 UNK        -0.4140 
     48 C         -48.7547  -23.5047   14.5837 C.2       8 UNK         0.5028 
     49 O         -49.2137  -23.3168   15.7104 O.2       8 UNK        -0.5428 
     50 CA        -49.3675  -22.7440   13.3965 C.3       7 UNK         0.0264 
     51 CB        -48.4555  -21.5897   12.9524 C.3       7 UNK        -0.1988 
     52 N         -49.6673  -23.6131   12.2565 N.am      7 UNK        -0.4454 
     53 C         -50.5489  -24.6249   12.2777 C.2       7 UNK         0.5027 
     54 O         -51.2426  -24.9026   13.2577 O.2       7 UNK        -0.5083 
     55 CA        -50.6249  -25.5141   11.0161 C.3       6 UNK         0.0844 
     56 C56       -51.4708  -24.8725    9.8875 C.3       14 UNK        -0.0967 
     57 S57       -53.2590  -24.8796   10.2539 S.3       14 UNK        -0.2604 
     58 C58       -53.9221  -26.0087    8.9787 C.3       14 UNK         0.0134 
     59 N         -49.2916  -25.8893   10.5414 N.am      6 UNK        -0.4116 
     60 C         -48.3863  -26.5812   11.2475 C.2       5 UNK         0.5034 
     61 O         -48.5960  -27.0532   12.3629 O.2       5 UNK        -0.5045 
     62 CA        -46.9885  -26.7192   10.6264 C.3       5 UNK         0.0224 
     63 CB        -46.9407  -27.8882    9.6294 C.3       5 UNK        -0.1978 
     64 N         -46.5599  -25.4776    9.9757 N.am      5 UNK        -0.4737 
     65 C         -46.2426  -24.3560   10.6389 C.2       4 UNK         0.5027 
     66 O         -46.2320  -24.2701   11.8661 O.2       4 UNK        -0.5211 
     67 CA        -45.9242  -23.1121    9.7922 C.3       4 UNK         0.0297 
     68 CB        -44.4618  -23.1394    9.3210 C.3       4 UNK        -0.1993 
     69 N         -46.8129  -22.9692    8.6358 N.am      4 UNK        -0.4486 
     70 C         -48.1312  -22.7377    8.7167 C.2       3 UNK         0.4961 
     71 O         -48.7342  -22.5752    9.7762 O.2       3 UNK        -0.5105 
     72 CA        -48.9230  -22.7467    7.3964 C.3       3 UNK         0.0299 
     73 CB        -48.8988  -21.3554    6.7445 C.3       3 UNK        -0.1972 
     74 N         -48.4603  -23.7538    6.4330 N.am      3 UNK        -0.4305 
     75 C         -48.3945  -25.0692    6.6784 C.2       2 UNK         0.5006 
     76 O         -48.7023  -25.5798    7.7598 O.2       2 UNK        -0.5106 
     77 CA        -47.8534  -25.9552    5.5506 C.3       2 UNK         0.0296 
     78 CB        -46.3531  -25.7038    5.3125 C.3       2 UNK        -0.2002 
     79 N         -48.0477  -27.3456    5.9419 N.am      2 UNK        -0.4032 
     80 C         -48.3823  -28.3596    5.1388 C.2       1 UNK         0.5000 
     81 O         -48.5053  -28.2610    3.9158 O.2       1 UNK        -0.5238 
     82 H82       -45.6258  -30.6514    8.3753 H         1 UNK         0.0889 
     83 H83       -44.4102  -29.8162    7.4060 H         1 UNK         0.0889 
     84 H84       -44.6888  -31.5447    7.1773 H         1 UNK         0.0889 
     85 H85       -47.6834  -30.1583    7.6887 H         1 UNK         0.3028 
     86 H86       -48.6399  -30.4844    5.0529 H         1 UNK         0.0864 
     87 H87       -49.9695  -28.9651    7.3703 H         1 UNK         0.0720 
     88 H88       -49.9754  -30.6997    7.1967 H         1 UNK         0.0720 
     89 H89       -52.4246  -31.3915    6.9354 H         1 UNK         0.0814 
     90 H90       -53.6292  -30.3793    6.1820 H         1 UNK         0.0814 
     91 H91       -53.4482  -27.7530    6.9516 H         1 UNK         0.1469 
     92 H92       -53.3838  -27.5032   11.2297 H         1 UNK         0.1381 
     93 H93       -52.2337  -31.1399    9.2775 H         1 UNK         0.1206 
     94 H94       -51.4689  -29.9650   11.9775 H         1 UNK         0.0813 
     95 H95       -53.0096  -29.4127   12.5596 H         1 UNK         0.0813 
     96 H96       -54.9301  -32.3131   10.5849 H         1 UNK         0.0638 
     97 H97       -55.2961  -32.5711   12.2630 H         1 UNK         0.0638 
     98 H98       -55.3174  -29.8852   10.8152 H         1 UNK         0.0568 
     99 H99       -59.1303  -30.8437   11.6004 H         1 UNK         0.3450 
    100 H100      -58.0474  -30.3245   12.8670 H         1 UNK         0.3450 
    101 H101      -55.3867  -30.4066   13.6735 H         1 UNK         0.2987 
    102 H102      -56.7611  -27.7764   14.8190 H         1 UNK         0.0766 
    103 H103      -54.9738  -28.4476   16.4436 H         1 UNK         0.0798 
    104 H104      -54.0586  -29.1943   15.1428 H         1 UNK         0.0798 
    105 H105      -55.6402  -29.8291   15.6045 H         1 UNK         0.0798 
    106 H106      -54.0141  -26.7464   14.5662 H         1 UNK         0.3198 
    107 H107      -54.1155  -24.4252   13.0480 H         1 UNK         0.0843 
    108 H108      -55.7536  -22.7722   15.0370 H         1 UNK         0.0831 
    109 H109      -55.9706  -22.8310   13.2950 H         1 UNK         0.0831 
    110 H110      -54.5067  -22.1324   13.9654 H         1 UNK         0.0831 
    111 H111      -52.5228  -24.5320   14.5432 H         1 UNK         0.3133 
    112 H112      -51.6822  -23.4656   16.9640 H         1 UNK         0.0566 
    113 H113      -52.8277  -25.6601   18.7678 H         1 UNK         0.0814 
    114 H114      -51.3414  -24.7629   19.0782 H         1 UNK         0.0814 
    115 H115      -52.8860  -23.9291   19.0598 H         1 UNK         0.0814 
    116 H116      -50.3673  -24.9822   16.0906 H         1 UNK         0.3091 
    117 H117      -49.8999  -28.2610   16.3588 H         1 UNK         0.0702 
    118 H118      -51.6109  -28.9986   14.7270 H         1 UNK         0.0785 
    119 H119      -51.2306  -27.6456   13.6666 H         1 UNK         0.0785 
    120 H120      -50.0415  -28.9149   13.9488 H         1 UNK         0.0785 
    121 H121      -49.0852  -26.5268   14.1862 H         1 UNK         0.2998 
    122 H122      -46.7610  -24.6302   16.1103 H         1 UNK         0.0697 
    123 H123      -46.3199  -26.6873   13.8815 H         1 UNK         0.0825 
    124 H124      -45.4870  -26.6596   15.4286 H         1 UNK         0.0825 
    125 H125      -45.2397  -25.3529   14.2811 H         1 UNK         0.0825 
    126 H126      -47.4092  -24.4406   13.3710 H         1 UNK         0.3029 
    127 H127      -50.3127  -22.3148   13.7361 H         1 UNK         0.0897 
    128 H128      -47.5008  -21.9508   12.5695 H         1 UNK         0.0792 
    129 H129      -48.2412  -20.9186   13.7852 H         1 UNK         0.0792 
    130 H130      -48.9245  -20.9944   12.1687 H         1 UNK         0.0792 
    131 H131      -49.1808  -23.4041   11.3868 H         1 UNK         0.3086 
    132 H132      -51.1072  -26.4470   11.3126 H         1 UNK         0.0583 
    133 H133      -51.1560  -23.8457    9.6944 H         1 UNK         0.1020 
    134 H134      -51.3077  -25.4102    8.9517 H         1 UNK         0.1020 
    135 H135      -55.0101  -26.0106    9.0552 H         1 UNK         0.0694 
    136 H136      -53.6818  -25.5961    7.9975 H         1 UNK         0.0694 
    137 H137      -49.0374  -25.5870    9.6045 H         1 UNK         0.2989 
    138 H138      -46.2859  -26.9356   11.4341 H         1 UNK         0.1055 
    139 H139      -47.1543  -28.8313   10.1344 H         1 UNK         0.0806 
    140 H140      -45.9557  -27.9814    9.1717 H         1 UNK         0.0806 
    141 H141      -47.6762  -27.7747    8.8348 H         1 UNK         0.0806 
    142 H142      -46.6064  -25.4465    8.9679 H         1 UNK         0.3061 
    143 H143      -46.0605  -22.2355   10.4293 H         1 UNK         0.0734 
    144 H144      -44.1977  -22.2234    8.7922 H         1 UNK         0.0832 
    145 H145      -43.7820  -23.2281   10.1697 H         1 UNK         0.0832 
    146 H146      -44.2636  -23.9813    8.6564 H         1 UNK         0.0832 
    147 H147      -46.4019  -23.0847    7.7210 H         1 UNK         0.3156 
    148 H148      -49.9597  -22.9867    7.6410 H         1 UNK         0.0589 
    149 H149      -47.8923  -21.0681    6.4375 H         1 UNK         0.0808 
    150 H150      -49.5427  -21.3170    5.8656 H         1 UNK         0.0808 
    151 H151      -49.2574  -20.5937    7.4386 H         1 UNK         0.0808 
    152 H152      -48.1869  -23.4156    5.5211 H         1 UNK         0.3098 
    153 H153      -48.4195  -25.7377    4.6425 H         1 UNK         0.0720 
    154 H154      -45.9636  -26.3621    4.5355 H         1 UNK         0.0791 
    155 H155      -45.7660  -25.8753    6.2158 H         1 UNK         0.0791 
    156 H156      -46.1662  -24.6798    4.9873 H         1 UNK         0.0791 
    157 H157      -48.0558  -27.4909    6.9417 H         1 UNK         0.3028 
@<TRIPOS>BOND
     1    1    2 1    
     2    1   82 1    
     3    1   83 1    
     4    1   84 1    
     5    2    3 2    
     6    2    4 am   BACKBONE|DICT|INTERRES
     7    4    5 1    
     8    4   85 1    
     9    5    6 1    
    10    5   80 1    
    11    5   86 1    
    12    6    7 1    
    13    6   87 1    
    14    6   88 1    
    15    7    8 1    
    16    8    9 1    
    17    8   89 1    
    18    8   90 1    
    19    9   10 ar   
    20    9   14 ar   
    21   10   11 ar   
    22   10   91 1    
    23   11   12 ar   
    24   11   58 1    
    25   12   13 ar   
    26   12   92 1    
    27   13   14 ar   
    28   13   15 1    
    29   14   93 1    
    30   15   16 1    
    31   15   94 1    
    32   15   95 1    
    33   16   17 1    
    34   17   18 1    
    35   17   96 1    
    36   17   97 1    
    37   18   19 1    
    38   18   22 1    
    39   18   98 1    
    40   19   20 am   BACKBONE|DICT|INTERRES
    41   19   21 2    
    42   20   99 1    
    43   20  100 1    
    44   22   23 am   BACKBONE|DICT|INTERRES
    45   22  101 1    
    46   23   24 2    
    47   23   25 1    
    48   25   26 1    
    49   25   27 1    
    50   25  102 1    
    51   26  103 1    
    52   26  104 1    
    53   26  105 1    
    54   27   28 am   BACKBONE|DICT|INTERRES
    55   27  106 1    
    56   28   29 2    
    57   28   30 1    
    58   30   31 1    
    59   30   32 1    
    60   30  107 1    
    61   31  108 1    
    62   31  109 1    
    63   31  110 1    
    64   32   33 am   BACKBONE|DICT|INTERRES
    65   32  111 1    
    66   33   34 2    
    67   33   35 1    
    68   35   36 1    
    69   35   37 1    
    70   35  112 1    
    71   36  113 1    
    72   36  114 1    
    73   36  115 1    
    74   37   38 am   BACKBONE|DICT|INTERRES
    75   37  116 1    
    76   38   39 2    
    77   38   40 1    
    78   40   41 1    
    79   40   42 1    
    80   40  117 1    
    81   41  118 1    
    82   41  119 1    
    83   41  120 1    
    84   42   43 am   BACKBONE|DICT|INTERRES
    85   42  121 1    
    86   43   44 2    
    87   43   45 1    
    88   45   46 1    
    89   45   47 1    
    90   45  122 1    
    91   46  123 1    
    92   46  124 1    
    93   46  125 1    
    94   47   48 am   BACKBONE|DICT|INTERRES
    95   47  126 1    
    96   48   49 2    
    97   48   50 1    
    98   50   51 1    
    99   50   52 1    
   100   50  127 1    
   101   51  128 1    
   102   51  129 1    
   103   51  130 1    
   104   52   53 am   BACKBONE|DICT|INTERRES
   105   52  131 1    
   106   53   54 2    
   107   53   55 1    
   108   55   56 1    
   109   55   59 1    
   110   55  132 1    
   111   56   57 1    
   112   56  133 1    
   113   56  134 1    
   114   57   58 1    
   115   58  135 1    
   116   58  136 1    
   117   59   60 am   BACKBONE|DICT|INTERRES
   118   59  137 1    
   119   60   61 2    
   120   60   62 1    
   121   62   63 1    
   122   62   64 1    
   123   62  138 1    
   124   63  139 1    
   125   63  140 1    
   126   63  141 1    
   127   64   65 am   BACKBONE|DICT|INTERRES
   128   64  142 1    
   129   65   66 2    
   130   65   67 1    
   131   67   68 1    
   132   67   69 1    
   133   67  143 1    
   134   68  144 1    
   135   68  145 1    
   136   68  146 1    
   137   69   70 am   BACKBONE|DICT|INTERRES
   138   69  147 1    
   139   70   71 2    
   140   70   72 1    
   141   72   73 1    
   142   72   74 1    
   143   72  148 1    
   144   73  149 1    
   145   73  150 1    
   146   73  151 1    
   147   74   75 am   BACKBONE|DICT|INTERRES
   148   74  152 1    
   149   75   76 2    
   150   75   77 1    
   151   77   78 1    
   152   77   79 1    
   153   77  153 1    
   154   78  154 1    
   155   78  155 1    
   156   78  156 1    
   157   79   80 am   BACKBONE|DICT|INTERRES
   158   79  157 1    
   159   80   81 2    
@<TRIPOS>SUBSTRUCTURE
     1 UNK         1 GROUP             0       ****    0 ROOT    
