@<TRIPOS>MOLECULE
3R207
157   159    1
SMALL
USER_CHARGES


@<TRIPOS>ATOM
      1 CA        -48.5797  -23.6682    4.1585 C.3       0 UNK        -0.1975 
      2 C         -49.3024  -23.8975    5.4770 C.2       0 UNK         0.4852 
      3 O         -49.4962  -22.9514    6.2416 O.2       0 UNK        -0.5216 
      4 N         -49.6901  -25.1484    5.7575 N.am      1 UNK        -0.4461 
      5 CA        -50.3907  -25.5743    6.9734 C.3       1 UNK         0.0864 
      6 C6        -50.8584  -27.0432    6.8701 C.3       14 UNK        -0.0898 
      7 S7        -52.2010  -27.2416    5.6478 S.3       14 UNK        -0.2598 
      8 C8        -52.3193  -29.0558    5.4846 C.3       14 UNK         0.0286 
      9 C9        -52.3190  -29.7514    6.8379 C.ar      14 UNK        -0.0844 
     10 C10       -51.1924  -30.4665    7.2527 C.ar      14 UNK        -0.0881 
     11 C11       -51.1288  -31.0191    8.5373 C.ar      14 UNK        -0.0643 
     12 C12       -52.2316  -30.8834    9.3876 C.ar      14 UNK        -0.0930 
     13 C13       -53.3803  -30.2035    8.9701 C.ar      14 UNK        -0.0827 
     14 C14       -53.4188  -29.6392    7.6927 C.ar      14 UNK        -0.1249 
     15 C15       -54.5708  -30.0639    9.9059 C.3       14 UNK         0.0141 
     16 S16       -54.5162  -28.4728   10.7798 S.3       14 UNK        -0.2313 
     17 C17       -55.6608  -28.7882   12.1692 C.3       14 UNK        -0.0915 
     18 CA        -55.1005  -29.5185   13.4345 C.3       13 UNK         0.0968 
     19 C         -53.5586  -29.4243   13.6318 C.2       13 UNK         0.5732 
     20 N         -52.8189  -30.4828   13.3283 N.am      13 UNK        -0.7310 
     21 O         -53.0360  -28.3894   14.0432 O.2       13 UNK        -0.5035 
     22 N         -55.7997  -29.0552   14.6407 N.am      13 UNK        -0.4233 
     23 C         -55.7116  -29.6290   15.8486 C.2       13 UNK         0.4989 
     24 O         -55.1822  -30.7225   16.0530 O.2       13 UNK        -0.4996 
     25 CA        -56.2656  -28.8072   17.0212 C.3       12 UNK         0.0216 
     26 CB        -55.8988  -29.3861   18.4027 C.3       12 UNK        -0.1964 
     27 N         -55.7712  -27.4360   16.9047 N.am      12 UNK        -0.4276 
     28 C         -56.4211  -26.3350   17.2952 C.2       12 UNK         0.5020 
     29 O         -57.5107  -26.3444   17.8696 O.2       12 UNK        -0.5489 
     30 CA        -55.7454  -24.9917   16.9725 C.3       11 UNK         0.0294 
     31 CB        -54.8446  -24.5476   18.1362 C.3       11 UNK        -0.2019 
     32 N         -54.9591  -25.0245   15.7339 N.am      11 UNK        -0.4493 
     33 C         -55.4887  -25.0756   14.4997 C.2       11 UNK         0.4932 
     34 O         -56.6994  -25.1596   14.2911 O.2       11 UNK        -0.5029 
     35 CA        -54.5191  -25.0561   13.2975 C.3       10 UNK         0.0280 
     36 CB        -55.1192  -24.3749   12.0508 C.3       10 UNK        -0.1976 
     37 N         -53.1964  -24.5082   13.6131 N.am      10 UNK        -0.4242 
     38 C         -52.8837  -23.2764   14.0474 C.2       10 UNK         0.5072 
     39 O         -53.6837  -22.3416   14.0989 O.2       10 UNK        -0.5224 
     40 CA        -51.4327  -23.0691   14.5441 C.3       9 UNK         0.0343 
     41 CB        -51.3734  -22.1473   15.7804 C.3       9 UNK        -0.2003 
     42 N         -50.7040  -24.3239   14.8025 N.am      9 UNK        -0.4272 
     43 C         -51.0456  -25.2987   15.6607 C.2       9 UNK         0.4988 
     44 O         -52.0317  -25.2489   16.3986 O.2       9 UNK        -0.5108 
     45 CA        -50.2244  -26.5925   15.5604 C.3       8 UNK         0.0248 
     46 CB        -50.5535  -27.5886   16.6881 C.3       8 UNK        -0.2001 
     47 N         -50.5076  -27.2262   14.2721 N.am      8 UNK        -0.4140 
     48 C         -49.8813  -26.9544   13.1225 C.2       8 UNK         0.5028 
     49 O         -48.9479  -26.1540   13.0243 O.2       8 UNK        -0.5428 
     50 CA        -50.4512  -27.6210   11.8630 C.3       7 UNK         0.0264 
     51 CB        -51.4643  -26.6963   11.1730 C.3       7 UNK        -0.1988 
     52 N         -49.3833  -27.9444   10.9226 N.am      7 UNK        -0.4454 
     53 C         -48.6239  -29.0450   11.0045 C.2       7 UNK         0.5027 
     54 O         -48.7483  -29.9049   11.8781 O.2       7 UNK        -0.5083 
     55 CA        -47.5408  -29.1965    9.9237 C.3       6 UNK         0.0844 
     56 C56       -48.1585  -29.5468    8.5455 C.3       14 UNK        -0.0967 
     57 S57       -48.3043  -31.3433    8.2533 S.3       14 UNK        -0.2604 
     58 C58       -49.8998  -31.7790    9.0392 C.3       14 UNK         0.0134 
     59 N         -46.7390  -27.9757    9.8639 N.am      6 UNK        -0.4116 
     60 C         -45.7094  -27.7006   10.6765 C.2       5 UNK         0.5034 
     61 O         -45.2989  -28.4760   11.5419 O.2       5 UNK        -0.5045 
     62 CA        -45.0266  -26.3287   10.5043 C.3       5 UNK         0.0224 
     63 CB        -43.5277  -26.3563   10.8729 C.3       5 UNK        -0.1978 
     64 N         -45.2319  -25.7264    9.1804 N.am      5 UNK        -0.4737 
     65 C         -44.8217  -26.1896    7.9874 C.2       4 UNK         0.5027 
     66 O         -44.1467  -27.2089    7.8455 O.2       4 UNK        -0.5211 
     67 CA        -45.2650  -25.4113    6.7317 C.3       4 UNK         0.0297 
     68 CB        -46.1333  -26.3000    5.8233 C.3       4 UNK        -0.1993 
     69 N         -46.0184  -24.2002    7.0618 N.am      4 UNK        -0.4486 
     70 C         -45.4778  -23.0111    7.3620 C.2       3 UNK         0.4961 
     71 O         -44.2771  -22.7587    7.2670 O.2       3 UNK        -0.5105 
     72 CA        -46.4372  -21.9332    7.8996 C.3       3 UNK         0.0299 
     73 CB        -46.8082  -20.9318    6.7942 C.3       3 UNK        -0.1972 
     74 N         -47.6573  -22.5028    8.4868 N.am      3 UNK        -0.4305 
     75 C         -47.6918  -23.1507    9.6632 C.2       2 UNK         0.5006 
     76 O         -46.7036  -23.3039   10.3794 O.2       2 UNK        -0.5106 
     77 CA        -49.0249  -23.7849   10.0924 C.3       2 UNK         0.0296 
     78 CB        -49.8581  -22.7921   10.9179 C.3       2 UNK        -0.2002 
     79 N         -49.8123  -24.2576    8.9532 N.am      2 UNK        -0.4032 
     80 C         -49.5198  -25.3436    8.2255 C.2       1 UNK         0.5000 
     81 O         -48.5975  -26.1207    8.4937 O.2       1 UNK        -0.5238 
     82 H82       -48.5707  -24.5639    3.5378 H         1 UNK         0.0889 
     83 H83       -47.5476  -23.3711    4.3420 H         1 UNK         0.0889 
     84 H84       -49.0692  -22.8729    3.5971 H         1 UNK         0.0889 
     85 H85       -49.5117  -25.8825    5.0875 H         1 UNK         0.3028 
     86 H86       -51.2824  -24.9509    7.0719 H         1 UNK         0.0864 
     87 H87       -50.0266  -27.6968    6.6019 H         1 UNK         0.0720 
     88 H88       -51.2342  -27.3940    7.8333 H         1 UNK         0.0720 
     89 H89       -51.4919  -29.4090    4.8672 H         1 UNK         0.0814 
     90 H90       -53.2331  -29.3076    4.9446 H         1 UNK         0.0814 
     91 H91       -50.3513  -30.5614    6.5808 H         1 UNK         0.1469 
     92 H92       -52.1953  -31.3070   10.3820 H         1 UNK         0.1381 
     93 H93       -54.2914  -29.0845    7.3752 H         1 UNK         0.1206 
     94 H94       -55.5041  -30.1394    9.3459 H         1 UNK         0.0813 
     95 H95       -54.5759  -30.8809   10.6287 H         1 UNK         0.0813 
     96 H96       -56.5305  -29.3272   11.7905 H         1 UNK         0.0638 
     97 H97       -56.0408  -27.8043   12.4488 H         1 UNK         0.0638 
     98 H98       -55.3423  -30.5769   13.3187 H         1 UNK         0.0568 
     99 H99       -53.2470  -31.3402   13.0185 H         1 UNK         0.3450 
    100 H100      -51.8221  -30.4458   13.4612 H         1 UNK         0.3450 
    101 H101      -56.2600  -28.1600   14.5701 H         1 UNK         0.2987 
    102 H102      -57.3531  -28.8117   16.9200 H         1 UNK         0.0766 
    103 H103      -56.3311  -28.7932   19.2088 H         1 UNK         0.0798 
    104 H104      -54.8187  -29.4165   18.5515 H         1 UNK         0.0798 
    105 H105      -56.2751  -30.4039   18.5141 H         1 UNK         0.0798 
    106 H106      -54.8779  -27.3231   16.4433 H         1 UNK         0.3198 
    107 H107      -56.5352  -24.2469   16.8512 H         1 UNK         0.0843 
    108 H108      -54.0339  -25.2556   18.3136 H         1 UNK         0.0831 
    109 H109      -55.4154  -24.4668   19.0623 H         1 UNK         0.0831 
    110 H110      -54.3991  -23.5715   17.9433 H         1 UNK         0.0831 
    111 H111      -53.9489  -24.9855   15.8396 H         1 UNK         0.3133 
    112 H112      -54.3510  -26.1030   13.0451 H         1 UNK         0.0566 
    113 H113      -54.4219  -24.3981   11.2134 H         1 UNK         0.0814 
    114 H114      -56.0275  -24.8837   11.7256 H         1 UNK         0.0814 
    115 H115      -55.3805  -23.3342   12.2439 H         1 UNK         0.0814 
    116 H116      -52.4517  -25.1883   13.6395 H         1 UNK         0.3091 
    117 H117      -50.9039  -22.5675   13.7335 H         1 UNK         0.0702 
    118 H118      -50.3473  -22.0015   16.1178 H         1 UNK         0.0785 
    119 H119      -51.9471  -22.5513   16.6154 H         1 UNK         0.0785 
    120 H120      -51.7809  -21.1609   15.5551 H         1 UNK         0.0785 
    121 H121      -49.9043  -24.5016   14.2038 H         1 UNK         0.2998 
    122 H122      -49.1656  -26.3337   15.6292 H         1 UNK         0.0697 
    123 H123      -51.5971  -27.9057   16.6582 H         1 UNK         0.0825 
    124 H124      -50.3752  -27.1424   17.6674 H         1 UNK         0.0825 
    125 H125      -49.9322  -28.4815   16.6199 H         1 UNK         0.0825 
    126 H126      -51.3467  -27.8050   14.2411 H         1 UNK         0.3029 
    127 H127      -50.9637  -28.5445   12.1397 H         1 UNK         0.0897 
    128 H128      -51.7998  -27.1122   10.2229 H         1 UNK         0.0792 
    129 H129      -52.3505  -26.5687   11.7925 H         1 UNK         0.0792 
    130 H130      -51.0546  -25.7059   10.9845 H         1 UNK         0.0792 
    131 H131      -49.1687  -27.2559   10.2120 H         1 UNK         0.3086 
    132 H132      -46.8814  -30.0148   10.2221 H         1 UNK         0.0583 
    133 H133      -49.1153  -29.0495    8.3844 H         1 UNK         0.1020 
    134 H134      -47.5125  -29.1719    7.7495 H         1 UNK         0.1020 
    135 H135      -50.0739  -32.8438    8.8801 H         1 UNK         0.0694 
    136 H136      -49.7984  -31.6492   10.1169 H         1 UNK         0.0694 
    137 H137      -47.0532  -27.2602    9.2175 H         1 UNK         0.2989 
    138 H138      -45.5243  -25.6667   11.2152 H         1 UNK         0.1055 
    139 H139      -43.3850  -26.6523   11.9129 H         1 UNK         0.0806 
    140 H140      -43.0720  -25.3734   10.7534 H         1 UNK         0.0806 
    141 H141      -42.9708  -27.0626   10.2565 H         1 UNK         0.0806 
    142 H142      -45.7655  -24.8658    9.1937 H         1 UNK         0.3061 
    143 H143      -44.3626  -25.1370    6.1811 H         1 UNK         0.0734 
    144 H144      -46.4213  -25.7759    4.9123 H         1 UNK         0.0832 
    145 H145      -45.5895  -27.1951    5.5179 H         1 UNK         0.0832 
    146 H146      -47.0424  -26.6309    6.3261 H         1 UNK         0.0832 
    147 H147      -47.0128  -24.3134    7.1913 H         1 UNK         0.3156 
    148 H148      -45.9079  -21.3856    8.6825 H         1 UNK         0.0589 
    149 H149      -47.3152  -21.4138    5.9587 H         1 UNK         0.0808 
    150 H150      -47.4605  -20.1452    7.1735 H         1 UNK         0.0808 
    151 H151      -45.9164  -20.4471    6.3946 H         1 UNK         0.0808 
    152 H152      -48.4960  -22.4609    7.9142 H         1 UNK         0.3098 
    153 H153      -48.7896  -24.6417   10.7275 H         1 UNK         0.0720 
    154 H154      -50.1277  -21.9083   10.3382 H         1 UNK         0.0791 
    155 H155      -49.2998  -22.4513   11.7909 H         1 UNK         0.0791 
    156 H156      -50.7790  -23.2496   11.2793 H         1 UNK         0.0791 
    157 H157      -50.5600  -23.6545    8.6390 H         1 UNK         0.3028 
@<TRIPOS>BOND
     1    1    2 1    
     2    1   82 1    
     3    1   83 1    
     4    1   84 1    
     5    2    3 2    
     6    2    4 am   BACKBONE|DICT|INTERRES
     7    4    5 1    
     8    4   85 1    
     9    5    6 1    
    10    5   80 1    
    11    5   86 1    
    12    6    7 1    
    13    6   87 1    
    14    6   88 1    
    15    7    8 1    
    16    8    9 1    
    17    8   89 1    
    18    8   90 1    
    19    9   10 ar   
    20    9   14 ar   
    21   10   11 ar   
    22   10   91 1    
    23   11   12 ar   
    24   11   58 1    
    25   12   13 ar   
    26   12   92 1    
    27   13   14 ar   
    28   13   15 1    
    29   14   93 1    
    30   15   16 1    
    31   15   94 1    
    32   15   95 1    
    33   16   17 1    
    34   17   18 1    
    35   17   96 1    
    36   17   97 1    
    37   18   19 1    
    38   18   22 1    
    39   18   98 1    
    40   19   20 am   BACKBONE|DICT|INTERRES
    41   19   21 2    
    42   20   99 1    
    43   20  100 1    
    44   22   23 am   BACKBONE|DICT|INTERRES
    45   22  101 1    
    46   23   24 2    
    47   23   25 1    
    48   25   26 1    
    49   25   27 1    
    50   25  102 1    
    51   26  103 1    
    52   26  104 1    
    53   26  105 1    
    54   27   28 am   BACKBONE|DICT|INTERRES
    55   27  106 1    
    56   28   29 2    
    57   28   30 1    
    58   30   31 1    
    59   30   32 1    
    60   30  107 1    
    61   31  108 1    
    62   31  109 1    
    63   31  110 1    
    64   32   33 am   BACKBONE|DICT|INTERRES
    65   32  111 1    
    66   33   34 2    
    67   33   35 1    
    68   35   36 1    
    69   35   37 1    
    70   35  112 1    
    71   36  113 1    
    72   36  114 1    
    73   36  115 1    
    74   37   38 am   BACKBONE|DICT|INTERRES
    75   37  116 1    
    76   38   39 2    
    77   38   40 1    
    78   40   41 1    
    79   40   42 1    
    80   40  117 1    
    81   41  118 1    
    82   41  119 1    
    83   41  120 1    
    84   42   43 am   BACKBONE|DICT|INTERRES
    85   42  121 1    
    86   43   44 2    
    87   43   45 1    
    88   45   46 1    
    89   45   47 1    
    90   45  122 1    
    91   46  123 1    
    92   46  124 1    
    93   46  125 1    
    94   47   48 am   BACKBONE|DICT|INTERRES
    95   47  126 1    
    96   48   49 2    
    97   48   50 1    
    98   50   51 1    
    99   50   52 1    
   100   50  127 1    
   101   51  128 1    
   102   51  129 1    
   103   51  130 1    
   104   52   53 am   BACKBONE|DICT|INTERRES
   105   52  131 1    
   106   53   54 2    
   107   53   55 1    
   108   55   56 1    
   109   55   59 1    
   110   55  132 1    
   111   56   57 1    
   112   56  133 1    
   113   56  134 1    
   114   57   58 1    
   115   58  135 1    
   116   58  136 1    
   117   59   60 am   BACKBONE|DICT|INTERRES
   118   59  137 1    
   119   60   61 2    
   120   60   62 1    
   121   62   63 1    
   122   62   64 1    
   123   62  138 1    
   124   63  139 1    
   125   63  140 1    
   126   63  141 1    
   127   64   65 am   BACKBONE|DICT|INTERRES
   128   64  142 1    
   129   65   66 2    
   130   65   67 1    
   131   67   68 1    
   132   67   69 1    
   133   67  143 1    
   134   68  144 1    
   135   68  145 1    
   136   68  146 1    
   137   69   70 am   BACKBONE|DICT|INTERRES
   138   69  147 1    
   139   70   71 2    
   140   70   72 1    
   141   72   73 1    
   142   72   74 1    
   143   72  148 1    
   144   73  149 1    
   145   73  150 1    
   146   73  151 1    
   147   74   75 am   BACKBONE|DICT|INTERRES
   148   74  152 1    
   149   75   76 2    
   150   75   77 1    
   151   77   78 1    
   152   77   79 1    
   153   77  153 1    
   154   78  154 1    
   155   78  155 1    
   156   78  156 1    
   157   79   80 am   BACKBONE|DICT|INTERRES
   158   79  157 1    
   159   80   81 2    
@<TRIPOS>SUBSTRUCTURE
     1 UNK         1 GROUP             0       ****    0 ROOT    
