@<TRIPOS>MOLECULE
3R207
157   159    1
SMALL
USER_CHARGES


@<TRIPOS>ATOM
      1 CA        -46.1597  -28.6800    2.2407 C.3       0 UNK        -0.1975 
      2 C         -47.5284  -29.2917    2.5029 C.2       0 UNK         0.4852 
      3 O         -47.9484  -30.1869    1.7685 O.2       0 UNK        -0.5216 
      4 N         -48.2226  -28.8147    3.5415 N.am      1 UNK        -0.4461 
      5 CA        -49.5674  -29.2391    3.9290 C.3       1 UNK         0.0864 
      6 C6        -49.5746  -30.6077    4.6660 C.3       14 UNK        -0.0898 
      7 S7        -51.1751  -31.4585    4.4780 S.3       14 UNK        -0.2598 
      8 C8        -51.2753  -32.4109    6.0239 C.3       14 UNK         0.0286 
      9 C9        -51.5868  -31.5205    7.2164 C.ar      14 UNK        -0.0844 
     10 C10       -50.6121  -31.2655    8.1863 C.ar      14 UNK        -0.0881 
     11 C11       -50.9076  -30.4671    9.2954 C.ar      14 UNK        -0.0643 
     12 C12       -52.1867  -29.9203    9.4254 C.ar      14 UNK        -0.0930 
     13 C13       -53.1644  -30.1586    8.4558 C.ar      14 UNK        -0.0827 
     14 C14       -52.8619  -30.9651    7.3567 C.ar      14 UNK        -0.1249 
     15 C15       -54.5368  -29.5231    8.5947 C.3       14 UNK         0.0141 
     16 S16       -55.4948  -30.3124    9.9236 S.3       14 UNK        -0.2313 
     17 C17       -56.8214  -29.0840   10.1703 C.3       14 UNK        -0.0915 
     18 CA        -56.3529  -27.7923   10.9013 C.3       13 UNK         0.0968 
     19 C         -57.5118  -26.7727   11.1018 C.2       13 UNK         0.5732 
     20 N         -57.6215  -26.0960   12.2406 N.am      13 UNK        -0.7310 
     21 O         -58.3232  -26.5741   10.2004 O.2       13 UNK        -0.5035 
     22 N         -55.6401  -28.0867   12.1531 N.am      13 UNK        -0.4233 
     23 C         -54.3601  -27.7912   12.3960 C.2       13 UNK         0.4989 
     24 O         -53.5770  -27.3254   11.5655 O.2       13 UNK        -0.4996 
     25 CA        -53.8898  -27.9988   13.8437 C.3       12 UNK         0.0216 
     26 CB        -52.6435  -28.8979   13.9140 C.3       12 UNK        -0.1964 
     27 N         -53.6140  -26.7016   14.4638 N.am      12 UNK        -0.4276 
     28 C         -54.5547  -25.7781   14.7129 C.2       12 UNK         0.5020 
     29 O         -55.7592  -25.9678   14.5172 O.2       12 UNK        -0.5489 
     30 CA        -54.0699  -24.4211   15.2571 C.3       11 UNK         0.0294 
     31 CB        -55.2272  -23.4474   15.5679 C.3       11 UNK        -0.2019 
     32 N         -53.1747  -24.5459   16.4127 N.am      11 UNK        -0.4493 
     33 C         -53.4541  -25.1327   17.5877 C.2       11 UNK         0.4932 
     34 O         -54.5333  -25.6664   17.8518 O.2       11 UNK        -0.5029 
     35 CA        -52.3441  -25.0933   18.6576 C.3       10 UNK         0.0280 
     36 CB        -52.6371  -26.0135   19.8623 C.3       10 UNK        -0.1976 
     37 N         -51.0036  -25.3613   18.1270 N.am      10 UNK        -0.4242 
     38 C         -50.5771  -26.4502   17.4716 C.2       10 UNK         0.5072 
     39 O         -51.3004  -27.4056   17.1845 O.2       10 UNK        -0.5224 
     40 CA        -49.0800  -26.4716   17.0921 C.3       9 UNK         0.0343 
     41 CB        -48.6894  -27.7423   16.3144 C.3       9 UNK        -0.2003 
     42 N         -48.6710  -25.2936   16.3194 N.am      9 UNK        -0.4272 
     43 C         -48.5024  -24.0545   16.8034 C.2       9 UNK         0.4988 
     44 O         -48.6337  -23.7679   17.9945 O.2       9 UNK        -0.5108 
     45 CA        -48.1816  -22.9364   15.7964 C.3       8 UNK         0.0248 
     46 CB        -46.6666  -22.8444   15.5570 C.3       8 UNK        -0.2001 
     47 N         -48.8786  -23.0848   14.5152 N.am      8 UNK        -0.4140 
     48 C         -50.2116  -23.0750   14.3600 C.2       8 UNK         0.5028 
     49 O         -51.0109  -22.9068   15.2826 O.2       8 UNK        -0.5428 
     50 CA        -50.7440  -23.3578   12.9430 C.3       7 UNK         0.0264 
     51 CB        -50.6006  -22.1277   12.0333 C.3       7 UNK        -0.1988 
     52 N         -50.0996  -24.5207   12.3286 N.am      7 UNK        -0.4454 
     53 C         -50.1629  -25.7672   12.8232 C.2       7 UNK         0.5027 
     54 O         -50.8371  -26.0775   13.8061 O.2       7 UNK        -0.5083 
     55 CA        -49.2792  -26.8278   12.1386 C.3       6 UNK         0.0844 
     56 C56       -49.9908  -27.4315   10.9014 C.3       14 UNK        -0.0967 
     57 S57       -48.9536  -28.6564   10.0277 S.3       14 UNK        -0.2604 
     58 C58       -49.8464  -30.2070   10.3535 C.3       14 UNK         0.0134 
     59 N         -47.9612  -26.2706   11.8208 N.am      6 UNK        -0.4116 
     60 C         -47.0200  -25.9562   12.7212 C.2       5 UNK         0.5034 
     61 O         -47.1426  -26.1373   13.9308 O.2       5 UNK        -0.5045 
     62 CA        -45.7389  -25.2903   12.1880 C.3       5 UNK         0.0224 
     63 CB        -44.7264  -26.3551   11.7378 C.3       5 UNK        -0.1978 
     64 N         -45.9973  -24.3637   11.0828 N.am      5 UNK        -0.4737 
     65 C         -46.7117  -23.2340   11.1905 C.2       4 UNK         0.5027 
     66 O         -47.1467  -22.8045   12.2573 O.2       4 UNK        -0.5211 
     67 CA        -47.0545  -22.4974    9.8814 C.3       4 UNK         0.0297 
     68 CB        -45.9861  -21.4397    9.5652 C.3       4 UNK        -0.1993 
     69 N         -47.2159  -23.3967    8.7310 N.am      4 UNK        -0.4486 
     70 C         -48.1069  -24.3963    8.6638 C.2       3 UNK         0.4961 
     71 O         -48.9268  -24.6308    9.5537 O.2       3 UNK        -0.5105 
     72 CA        -47.9847  -25.3265    7.4436 C.3       3 UNK         0.0299 
     73 CB        -46.6605  -26.1113    7.4951 C.3       3 UNK        -0.1972 
     74 N         -49.0758  -26.2965    7.3369 N.am      3 UNK        -0.4305 
     75 C         -50.3445  -26.0204    7.0082 C.2       2 UNK         0.5006 
     76 O         -50.7715  -24.8831    6.7967 O.2       2 UNK        -0.5106 
     77 CA        -51.2613  -27.2506    6.8243 C.3       2 UNK         0.0296 
     78 CB        -52.6897  -26.8795    6.3752 C.3       2 UNK        -0.2002 
     79 N         -50.6861  -28.2593    5.9168 N.am      2 UNK        -0.4032 
     80 C         -50.2228  -28.0567    4.6702 C.2       1 UNK         0.5000 
     81 O         -50.2661  -26.9679    4.0922 O.2       1 UNK        -0.5238 
     82 H82       -45.9081  -27.9126    2.9726 H         1 UNK         0.0889 
     83 H83       -46.1355  -28.2254    1.2507 H         1 UNK         0.0889 
     84 H84       -45.3907  -29.4509    2.2809 H         1 UNK         0.0889 
     85 H85       -47.8544  -28.0381    4.0742 H         1 UNK         0.3028 
     86 H86       -50.1398  -29.3481    3.0045 H         1 UNK         0.0864 
     87 H87       -48.8293  -31.2727    4.2275 H         1 UNK         0.0720 
     88 H88       -49.2877  -30.5117    5.7136 H         1 UNK         0.0720 
     89 H89       -50.3460  -32.9629    6.1738 H         1 UNK         0.0814 
     90 H90       -52.0617  -33.1606    5.9245 H         1 UNK         0.0814 
     91 H91       -49.6243  -31.6944    8.0844 H         1 UNK         0.1469 
     92 H92       -52.4295  -29.3067   10.2805 H         1 UNK         0.1381 
     93 H93       -53.6150  -31.1577    6.6046 H         1 UNK         0.1206 
     94 H94       -54.4023  -28.4619    8.8037 H         1 UNK         0.0813 
     95 H95       -55.0957  -29.5865    7.6598 H         1 UNK         0.0813 
     96 H96       -57.2479  -28.8423    9.1950 H         1 UNK         0.0638 
     97 H97       -57.6172  -29.5682   10.7388 H         1 UNK         0.0638 
     98 H98       -55.6781  -27.2662   10.2262 H         1 UNK         0.0568 
     99 H99       -58.3787  -25.4397   12.3434 H         1 UNK         0.3450 
    100 H100      -56.9397  -26.1913   12.9884 H         1 UNK         0.3450 
    101 H101      -56.2173  -28.4245   12.9096 H         1 UNK         0.2987 
    102 H102      -54.6829  -28.4836   14.4171 H         1 UNK         0.0766 
    103 H103      -52.8545  -29.8863   13.5041 H         1 UNK         0.0798 
    104 H104      -52.3119  -29.0344   14.9438 H         1 UNK         0.0798 
    105 H105      -51.8087  -28.4855   13.3496 H         1 UNK         0.0798 
    106 H106      -52.6336  -26.4551   14.5731 H         1 UNK         0.3198 
    107 H107      -53.4813  -23.9716   14.4597 H         1 UNK         0.0843 
    108 H108      -55.8341  -23.2673   14.6797 H         1 UNK         0.0831 
    109 H109      -54.8527  -22.4809   15.9048 H         1 UNK         0.0831 
    110 H110      -55.8912  -23.8388   16.3393 H         1 UNK         0.0831 
    111 H111      -52.2580  -24.1246   16.2836 H         1 UNK         0.3133 
    112 H112      -52.3212  -24.0674   19.0277 H         1 UNK         0.0566 
    113 H113      -51.8548  -25.9405   20.6177 H         1 UNK         0.0814 
    114 H114      -52.7165  -27.0587   19.5611 H         1 UNK         0.0814 
    115 H115      -53.5767  -25.7415   20.3447 H         1 UNK         0.0814 
    116 H116      -50.3104  -24.6326   18.2808 H         1 UNK         0.3091 
    117 H117      -48.5179  -26.4756   18.0281 H         1 UNK         0.0702 
    118 H118      -47.6193  -27.7690   16.1088 H         1 UNK         0.0785 
    119 H119      -49.2163  -27.8061   15.3618 H         1 UNK         0.0785 
    120 H120      -48.9308  -28.6413   16.8829 H         1 UNK         0.0785 
    121 H121      -48.4984  -25.4504   15.3325 H         1 UNK         0.2998 
    122 H122      -48.5127  -21.9941   16.2376 H         1 UNK         0.0697 
    123 H123      -46.2746  -23.7545   15.1027 H         1 UNK         0.0825 
    124 H124      -46.1314  -22.6912   16.4951 H         1 UNK         0.0825 
    125 H125      -46.4179  -22.0094   14.9017 H         1 UNK         0.0825 
    126 H126      -48.2931  -23.1669   13.6862 H         1 UNK         0.3029 
    127 H127      -51.8067  -23.5867   13.0212 H         1 UNK         0.0897 
    128 H128      -49.5635  -21.8098   11.9343 H         1 UNK         0.0792 
    129 H129      -51.1595  -21.2824   12.4367 H         1 UNK         0.0792 
    130 H130      -50.9876  -22.3252   11.0333 H         1 UNK         0.0792 
    131 H131      -49.5567  -24.3648   11.4847 H         1 UNK         0.3086 
    132 H132      -49.1275  -27.6360   12.8572 H         1 UNK         0.0583 
    133 H133      -50.9287  -27.8934   11.2072 H         1 UNK         0.1020 
    134 H134      -50.2749  -26.6569   10.1891 H         1 UNK         0.1020 
    135 H135      -49.1255  -31.0258   10.3640 H         1 UNK         0.0694 
    136 H136      -50.2922  -30.1874   11.3493 H         1 UNK         0.0694 
    137 H137      -47.8124  -26.0297   10.8512 H         1 UNK         0.2989 
    138 H138      -45.2978  -24.7208   13.0089 H         1 UNK         0.1055 
    139 H139      -45.1034  -26.9477   10.9031 H         1 UNK         0.0806 
    140 H140      -43.7836  -25.9020   11.4305 H         1 UNK         0.0806 
    141 H141      -44.5011  -27.0460   12.5517 H         1 UNK         0.0806 
    142 H142      -45.6634  -24.6322   10.1690 H         1 UNK         0.3061 
    143 H143      -48.0072  -21.9863   10.0334 H         1 UNK         0.0734 
    144 H144      -45.0116  -21.8912    9.3751 H         1 UNK         0.0832 
    145 H145      -46.2593  -20.8465    8.6923 H         1 UNK         0.0832 
    146 H146      -45.8663  -20.7469   10.3996 H         1 UNK         0.0832 
    147 H147      -46.5758  -23.2647    7.9605 H         1 UNK         0.3156 
    148 H148      -47.9941  -24.7065    6.5449 H         1 UNK         0.0589 
    149 H149      -46.5515  -26.7607    6.6261 H         1 UNK         0.0808 
    150 H150      -45.7967  -25.4456    7.4993 H         1 UNK         0.0808 
    151 H151      -46.5961  -26.7364    8.3872 H         1 UNK         0.0808 
    152 H152      -48.8389  -27.2566    7.5396 H         1 UNK         0.3098 
    153 H153      -51.3374  -27.7209    7.8051 H         1 UNK         0.0720 
    154 H154      -53.3205  -27.7646    6.2948 H         1 UNK         0.0791 
    155 H155      -52.6911  -26.3780    5.4068 H         1 UNK         0.0791 
    156 H156      -53.1621  -26.2079    7.0930 H         1 UNK         0.0791 
    157 H157      -50.6386  -29.1982    6.2899 H         1 UNK         0.3028 
@<TRIPOS>BOND
     1    1    2 1    
     2    1   82 1    
     3    1   83 1    
     4    1   84 1    
     5    2    3 2    
     6    2    4 am   BACKBONE|DICT|INTERRES
     7    4    5 1    
     8    4   85 1    
     9    5    6 1    
    10    5   80 1    
    11    5   86 1    
    12    6    7 1    
    13    6   87 1    
    14    6   88 1    
    15    7    8 1    
    16    8    9 1    
    17    8   89 1    
    18    8   90 1    
    19    9   10 ar   
    20    9   14 ar   
    21   10   11 ar   
    22   10   91 1    
    23   11   12 ar   
    24   11   58 1    
    25   12   13 ar   
    26   12   92 1    
    27   13   14 ar   
    28   13   15 1    
    29   14   93 1    
    30   15   16 1    
    31   15   94 1    
    32   15   95 1    
    33   16   17 1    
    34   17   18 1    
    35   17   96 1    
    36   17   97 1    
    37   18   19 1    
    38   18   22 1    
    39   18   98 1    
    40   19   20 am   BACKBONE|DICT|INTERRES
    41   19   21 2    
    42   20   99 1    
    43   20  100 1    
    44   22   23 am   BACKBONE|DICT|INTERRES
    45   22  101 1    
    46   23   24 2    
    47   23   25 1    
    48   25   26 1    
    49   25   27 1    
    50   25  102 1    
    51   26  103 1    
    52   26  104 1    
    53   26  105 1    
    54   27   28 am   BACKBONE|DICT|INTERRES
    55   27  106 1    
    56   28   29 2    
    57   28   30 1    
    58   30   31 1    
    59   30   32 1    
    60   30  107 1    
    61   31  108 1    
    62   31  109 1    
    63   31  110 1    
    64   32   33 am   BACKBONE|DICT|INTERRES
    65   32  111 1    
    66   33   34 2    
    67   33   35 1    
    68   35   36 1    
    69   35   37 1    
    70   35  112 1    
    71   36  113 1    
    72   36  114 1    
    73   36  115 1    
    74   37   38 am   BACKBONE|DICT|INTERRES
    75   37  116 1    
    76   38   39 2    
    77   38   40 1    
    78   40   41 1    
    79   40   42 1    
    80   40  117 1    
    81   41  118 1    
    82   41  119 1    
    83   41  120 1    
    84   42   43 am   BACKBONE|DICT|INTERRES
    85   42  121 1    
    86   43   44 2    
    87   43   45 1    
    88   45   46 1    
    89   45   47 1    
    90   45  122 1    
    91   46  123 1    
    92   46  124 1    
    93   46  125 1    
    94   47   48 am   BACKBONE|DICT|INTERRES
    95   47  126 1    
    96   48   49 2    
    97   48   50 1    
    98   50   51 1    
    99   50   52 1    
   100   50  127 1    
   101   51  128 1    
   102   51  129 1    
   103   51  130 1    
   104   52   53 am   BACKBONE|DICT|INTERRES
   105   52  131 1    
   106   53   54 2    
   107   53   55 1    
   108   55   56 1    
   109   55   59 1    
   110   55  132 1    
   111   56   57 1    
   112   56  133 1    
   113   56  134 1    
   114   57   58 1    
   115   58  135 1    
   116   58  136 1    
   117   59   60 am   BACKBONE|DICT|INTERRES
   118   59  137 1    
   119   60   61 2    
   120   60   62 1    
   121   62   63 1    
   122   62   64 1    
   123   62  138 1    
   124   63  139 1    
   125   63  140 1    
   126   63  141 1    
   127   64   65 am   BACKBONE|DICT|INTERRES
   128   64  142 1    
   129   65   66 2    
   130   65   67 1    
   131   67   68 1    
   132   67   69 1    
   133   67  143 1    
   134   68  144 1    
   135   68  145 1    
   136   68  146 1    
   137   69   70 am   BACKBONE|DICT|INTERRES
   138   69  147 1    
   139   70   71 2    
   140   70   72 1    
   141   72   73 1    
   142   72   74 1    
   143   72  148 1    
   144   73  149 1    
   145   73  150 1    
   146   73  151 1    
   147   74   75 am   BACKBONE|DICT|INTERRES
   148   74  152 1    
   149   75   76 2    
   150   75   77 1    
   151   77   78 1    
   152   77   79 1    
   153   77  153 1    
   154   78  154 1    
   155   78  155 1    
   156   78  156 1    
   157   79   80 am   BACKBONE|DICT|INTERRES
   158   79  157 1    
   159   80   81 2    
@<TRIPOS>SUBSTRUCTURE
     1 UNK         1 GROUP             0       ****    0 ROOT    
