@<TRIPOS>MOLECULE
3R207
157   159    1
SMALL
USER_CHARGES


@<TRIPOS>ATOM
      1 CA        -51.3112  -24.1308    4.0896 C.3       0 UNK        -0.1975 
      2 C         -51.5164  -24.8766    2.7723 C.2       0 UNK         0.4852 
      3 O         -51.7859  -24.2391    1.7555 O.2       0 UNK        -0.5216 
      4 N         -51.4180  -26.2133    2.7342 N.am      1 UNK        -0.4461 
      5 CA        -51.0136  -27.0976    3.8308 C.3       1 UNK         0.0864 
      6 C6        -51.5440  -28.5362    3.6103 C.3       14 UNK        -0.0898 
      7 S7        -51.7044  -29.4748    5.1675 S.3       14 UNK        -0.2598 
      8 C8        -53.4191  -29.1019    5.6646 C.3       14 UNK         0.0286 
      9 C9        -53.4511  -28.3709    6.9977 C.ar      14 UNK        -0.0844 
     10 C10       -53.2580  -26.9889    7.0491 C.ar      14 UNK        -0.0881 
     11 C11       -53.2473  -26.3150    8.2719 C.ar      14 UNK        -0.0643 
     12 C12       -53.4698  -27.0335    9.4508 C.ar      14 UNK        -0.0930 
     13 C13       -53.6983  -28.4142    9.4170 C.ar      14 UNK        -0.0827 
     14 C14       -53.6826  -29.0753    8.1820 C.ar      14 UNK        -0.1249 
     15 C15       -54.0261  -29.1470   10.7177 C.3       14 UNK         0.0141 
     16 S16       -53.4845  -30.8943   10.7791 S.3       14 UNK        -0.2313 
     17 C17       -52.1308  -30.8088   11.9945 C.3       14 UNK        -0.0915 
     18 CA        -52.6605  -30.6972   13.4537 C.3       13 UNK         0.0968 
     19 C         -52.9493  -32.0629   14.1507 C.2       13 UNK         0.5732 
     20 N         -52.9127  -32.1384   15.4770 N.am      13 UNK        -0.7310 
     21 O         -53.2368  -33.0615   13.4951 O.2       13 UNK        -0.5035 
     22 N         -51.8764  -29.7492   14.2545 N.am      13 UNK        -0.4233 
     23 C         -50.6267  -29.9259   14.7080 C.2       13 UNK         0.4989 
     24 O         -49.9278  -30.8982   14.4195 O.2       13 UNK        -0.4996 
     25 CA        -50.0584  -28.8630   15.6744 C.3       12 UNK         0.0216 
     26 CB        -48.8812  -28.1175   15.0340 C.3       12 UNK        -0.1964 
     27 N         -51.0503  -27.8862   16.1369 N.am      12 UNK        -0.4276 
     28 C         -52.0808  -28.1780   16.9464 C.2       12 UNK         0.5020 
     29 O         -52.2254  -29.2723   17.4936 O.2       12 UNK        -0.5489 
     30 CA        -53.1756  -27.1100   17.1155 C.3       11 UNK         0.0294 
     31 CB        -53.0182  -26.3719   18.4520 C.3       11 UNK        -0.2019 
     32 N         -53.2303  -26.1559   15.9992 N.am      11 UNK        -0.4493 
     33 C         -53.6122  -26.4886   14.7545 C.2       11 UNK         0.4932 
     34 O         -53.9712  -27.6282   14.4542 O.2       11 UNK        -0.5029 
     35 CA        -53.5408  -25.4265   13.6402 C.3       10 UNK         0.0280 
     36 CB        -54.8040  -25.4234   12.7533 C.3       10 UNK        -0.1976 
     37 N         -53.1955  -24.0736   14.0880 N.am      10 UNK        -0.4242 
     38 C         -53.9245  -23.2339   14.8358 C.2       10 UNK         0.5072 
     39 O         -55.0561  -23.4816   15.2560 O.2       10 UNK        -0.5224 
     40 CA        -53.2298  -21.9058   15.1995 C.3       9 UNK         0.0343 
     41 CB        -54.0692  -21.0209   16.1461 C.3       9 UNK        -0.2003 
     42 N         -51.8807  -22.1199   15.7435 N.am      9 UNK        -0.4272 
     43 C         -51.5543  -22.8525   16.8213 C.2       9 UNK         0.4988 
     44 O         -52.3794  -23.4128   17.5416 O.2       9 UNK        -0.5108 
     45 CA        -50.0478  -23.0030   17.1175 C.3       8 UNK         0.0248 
     46 CB        -49.7345  -24.0890   18.1695 C.3       8 UNK        -0.2001 
     47 N         -49.2511  -23.2195   15.9040 N.am      8 UNK        -0.4140 
     48 C         -49.3891  -24.2150   15.0154 C.2       8 UNK         0.5028 
     49 O         -50.1928  -25.1471   15.1261 O.2       8 UNK        -0.5428 
     50 CA        -48.4560  -24.1307   13.7933 C.3       7 UNK         0.0264 
     51 CB        -47.1509  -24.9018   14.0514 C.3       7 UNK        -0.1988 
     52 N         -49.0640  -24.6100   12.5501 N.am      7 UNK        -0.4454 
     53 C         -50.2174  -24.1783   12.0192 C.2       7 UNK         0.5027 
     54 O         -50.9091  -23.2925   12.5278 O.2       7 UNK        -0.5083 
     55 CA        -50.6925  -24.8199   10.6961 C.3       6 UNK         0.0844 
     56 C56       -50.6638  -23.7825    9.5467 C.3       14 UNK        -0.0967 
     57 S57       -51.2706  -24.4107    7.9428 S.3       14 UNK        -0.2604 
     58 C58       -53.0132  -24.8106    8.2967 C.3       14 UNK         0.0134 
     59 N         -49.9813  -26.0554   10.3528 N.am      6 UNK        -0.4116 
     60 C         -50.1460  -27.2278   10.9817 C.2       5 UNK         0.5034 
     61 O         -50.9057  -27.3935   11.9346 O.2       5 UNK        -0.5045 
     62 CA        -49.2977  -28.4031   10.4772 C.3       5 UNK         0.0224 
     63 CB        -49.9274  -29.0350    9.2231 C.3       5 UNK        -0.1978 
     64 N         -47.9298  -27.9715   10.1817 N.am      5 UNK        -0.4737 
     65 C         -46.9484  -27.9100   11.0933 C.2       4 UNK         0.5027 
     66 O         -47.0761  -28.2859   12.2563 O.2       4 UNK        -0.5211 
     67 CA        -45.5908  -27.3350   10.6482 C.3       4 UNK         0.0297 
     68 CB        -44.6289  -28.4715   10.2661 C.3       4 UNK        -0.1993 
     69 N         -45.6899  -26.3934    9.5319 N.am      4 UNK        -0.4486 
     70 C         -46.2578  -25.1814    9.6004 C.2       3 UNK         0.4961 
     71 O         -46.7144  -24.6942   10.6321 O.2       3 UNK        -0.5105 
     72 CA        -46.3852  -24.4015    8.2801 C.3       3 UNK         0.0299 
     73 CB        -45.1584  -23.5010    8.0662 C.3       3 UNK        -0.1972 
     74 N         -46.5795  -25.2580    7.1032 N.am      3 UNK        -0.4305 
     75 C         -47.6016  -26.1091    6.9450 C.2       2 UNK         0.5006 
     76 O         -48.4719  -26.3049    7.7968 O.2       2 UNK        -0.5106 
     77 CA        -47.6327  -26.9198    5.6502 C.3       2 UNK         0.0296 
     78 CB        -46.9983  -28.3056    5.8596 C.3       2 UNK        -0.2002 
     79 N         -49.0288  -27.0705    5.2609 N.am      2 UNK        -0.4032 
     80 C         -49.4829  -27.0642    4.0045 C.2       1 UNK         0.5000 
     81 O         -48.7557  -27.0240    3.0079 O.2       1 UNK        -0.5238 
     82 H82       -50.3208  -24.3155    4.5035 H         1 UNK         0.0889 
     83 H83       -52.0612  -24.4244    4.8233 H         1 UNK         0.0889 
     84 H84       -51.4062  -23.0559    3.9373 H         1 UNK         0.0889 
     85 H85       -51.5276  -26.6699    1.8400 H         1 UNK         0.3028 
     86 H86       -51.4610  -26.7124    4.7448 H         1 UNK         0.0864 
     87 H87       -52.5205  -28.5140    3.1238 H         1 UNK         0.0720 
     88 H88       -50.8994  -29.0947    2.9283 H         1 UNK         0.0720 
     89 H89       -53.9760  -30.0377    5.7321 H         1 UNK         0.0814 
     90 H90       -53.9290  -28.5039    4.9083 H         1 UNK         0.0814 
     91 H91       -53.1122  -26.4292    6.1381 H         1 UNK         0.1469 
     92 H92       -53.4806  -26.5157   10.3983 H         1 UNK         0.1381 
     93 H93       -53.8604  -30.1404    8.1346 H         1 UNK         0.1206 
     94 H94       -55.1077  -29.1228   10.8543 H         1 UNK         0.0813 
     95 H95       -53.6034  -28.6047   11.5656 H         1 UNK         0.0813 
     96 H96       -51.4752  -31.6725   11.8725 H         1 UNK         0.0638 
     97 H97       -51.5232  -29.9431   11.7377 H         1 UNK         0.0638 
     98 H98       -53.6421  -30.2250   13.4154 H         1 UNK         0.0568 
     99 H99       -53.1081  -33.0192   15.9255 H         1 UNK         0.3450 
    100 H100      -52.6908  -31.3255   16.0332 H         1 UNK         0.3450 
    101 H101      -52.3805  -28.9125   14.5243 H         1 UNK         0.2987 
    102 H102      -49.6829  -29.3969   16.5497 H         1 UNK         0.0766 
    103 H103      -49.1918  -27.5733   14.1410 H         1 UNK         0.0798 
    104 H104      -48.0935  -28.8104   14.7357 H         1 UNK         0.0798 
    105 H105      -48.4392  -27.4034   15.7287 H         1 UNK         0.0798 
    106 H106      -50.9807  -26.9507   15.7423 H         1 UNK         0.3198 
    107 H107      -54.1329  -27.6353   17.1412 H         1 UNK         0.0843 
    108 H108      -53.7994  -25.6241   18.5894 H         1 UNK         0.0831 
    109 H109      -52.0550  -25.8703   18.5266 H         1 UNK         0.0831 
    110 H110      -53.0844  -27.0679   19.2892 H         1 UNK         0.0831 
    111 H111      -52.9315  -25.2069   16.1891 H         1 UNK         0.3133 
    112 H112      -52.7081  -25.7379   13.0109 H         1 UNK         0.0566 
    113 H113      -54.7078  -24.7182   11.9279 H         1 UNK         0.0814 
    114 H114      -54.9821  -26.4077   12.3189 H         1 UNK         0.0814 
    115 H115      -55.6976  -25.1600   13.3192 H         1 UNK         0.0814 
    116 H116      -52.2758  -23.7557   13.7898 H         1 UNK         0.3091 
    117 H117      -53.1040  -21.3602   14.2629 H         1 UNK         0.0702 
    118 H118      -53.5651  -20.0783   16.3585 H         1 UNK         0.0785 
    119 H119      -54.2677  -21.5168   17.0969 H         1 UNK         0.0785 
    120 H120      -55.0342  -20.7788   15.6992 H         1 UNK         0.0785 
    121 H121      -51.1258  -21.7243   15.2004 H         1 UNK         0.2998 
    122 H122      -49.7300  -22.0453   17.5322 H         1 UNK         0.0697 
    123 H123      -48.6756  -24.0925   18.4272 H         1 UNK         0.0825 
    124 H124      -50.2895  -23.9182   19.0928 H         1 UNK         0.0825 
    125 H125      -49.9897  -25.0862   17.8114 H         1 UNK         0.0825 
    126 H126      -48.5528  -22.5125   15.7176 H         1 UNK         0.3029 
    127 H127      -48.2048  -23.0805   13.6310 H         1 UNK         0.0897 
    128 H128      -46.4067  -24.6869   13.2849 H         1 UNK         0.0792 
    129 H129      -46.7096  -24.6278   15.0106 H         1 UNK         0.0792 
    130 H130      -47.3115  -25.9792   14.0609 H         1 UNK         0.0792 
    131 H131      -48.5362  -25.2983   12.0318 H         1 UNK         0.3086 
    132 H132      -51.7346  -25.0876   10.8673 H         1 UNK         0.0583 
    133 H133      -51.2576  -22.9040    9.8082 H         1 UNK         0.1020 
    134 H134      -49.6450  -23.4209    9.3944 H         1 UNK         0.1020 
    135 H135      -53.3229  -24.3798    9.2497 H         1 UNK         0.0694 
    136 H136      -53.6389  -24.3391    7.5376 H         1 UNK         0.0694 
    137 H137      -49.3868  -26.0218    9.5301 H         1 UNK         0.2989 
    138 H138      -49.2737  -29.1611   11.2639 H         1 UNK         0.1055 
    139 H139      -50.0469  -28.3153    8.4129 H         1 UNK         0.0806 
    140 H140      -50.9198  -29.4289    9.4432 H         1 UNK         0.0806 
    141 H141      -49.3270  -29.8644    8.8501 H         1 UNK         0.0806 
    142 H142      -47.7703  -27.5834    9.2595 H         1 UNK         0.3061 
    143 H143      -45.1678  -26.8005   11.5018 H         1 UNK         0.0734 
    144 H144      -43.6363  -28.0897   10.0267 H         1 UNK         0.0832 
    145 H145      -44.5122  -29.1759   11.0910 H         1 UNK         0.0832 
    146 H146      -44.9908  -29.0360    9.4057 H         1 UNK         0.0832 
    147 H147      -45.3384  -26.7045    8.6384 H         1 UNK         0.3156 
    148 H148      -47.2661  -23.7618    8.3656 H         1 UNK         0.0589 
    149 H149      -44.2450  -24.0835    7.9394 H         1 UNK         0.0808 
    150 H150      -45.2787  -22.8669    7.1876 H         1 UNK         0.0808 
    151 H151      -45.0069  -22.8400    8.9210 H         1 UNK         0.0808 
    152 H152      -45.8996  -25.1685    6.3612 H         1 UNK         0.3098 
    153 H153      -47.0834  -26.3754    4.8788 H         1 UNK         0.0720 
    154 H154      -45.9532  -28.2193    6.1589 H         1 UNK         0.0791 
    155 H155      -47.0248  -28.8937    4.9420 H         1 UNK         0.0791 
    156 H156      -47.5168  -28.8736    6.6337 H         1 UNK         0.0791 
    157 H157      -49.6773  -27.0724    6.0391 H         1 UNK         0.3028 
@<TRIPOS>BOND
     1    1    2 1    
     2    1   82 1    
     3    1   83 1    
     4    1   84 1    
     5    2    3 2    
     6    2    4 am   BACKBONE|DICT|INTERRES
     7    4    5 1    
     8    4   85 1    
     9    5    6 1    
    10    5   80 1    
    11    5   86 1    
    12    6    7 1    
    13    6   87 1    
    14    6   88 1    
    15    7    8 1    
    16    8    9 1    
    17    8   89 1    
    18    8   90 1    
    19    9   10 ar   
    20    9   14 ar   
    21   10   11 ar   
    22   10   91 1    
    23   11   12 ar   
    24   11   58 1    
    25   12   13 ar   
    26   12   92 1    
    27   13   14 ar   
    28   13   15 1    
    29   14   93 1    
    30   15   16 1    
    31   15   94 1    
    32   15   95 1    
    33   16   17 1    
    34   17   18 1    
    35   17   96 1    
    36   17   97 1    
    37   18   19 1    
    38   18   22 1    
    39   18   98 1    
    40   19   20 am   BACKBONE|DICT|INTERRES
    41   19   21 2    
    42   20   99 1    
    43   20  100 1    
    44   22   23 am   BACKBONE|DICT|INTERRES
    45   22  101 1    
    46   23   24 2    
    47   23   25 1    
    48   25   26 1    
    49   25   27 1    
    50   25  102 1    
    51   26  103 1    
    52   26  104 1    
    53   26  105 1    
    54   27   28 am   BACKBONE|DICT|INTERRES
    55   27  106 1    
    56   28   29 2    
    57   28   30 1    
    58   30   31 1    
    59   30   32 1    
    60   30  107 1    
    61   31  108 1    
    62   31  109 1    
    63   31  110 1    
    64   32   33 am   BACKBONE|DICT|INTERRES
    65   32  111 1    
    66   33   34 2    
    67   33   35 1    
    68   35   36 1    
    69   35   37 1    
    70   35  112 1    
    71   36  113 1    
    72   36  114 1    
    73   36  115 1    
    74   37   38 am   BACKBONE|DICT|INTERRES
    75   37  116 1    
    76   38   39 2    
    77   38   40 1    
    78   40   41 1    
    79   40   42 1    
    80   40  117 1    
    81   41  118 1    
    82   41  119 1    
    83   41  120 1    
    84   42   43 am   BACKBONE|DICT|INTERRES
    85   42  121 1    
    86   43   44 2    
    87   43   45 1    
    88   45   46 1    
    89   45   47 1    
    90   45  122 1    
    91   46  123 1    
    92   46  124 1    
    93   46  125 1    
    94   47   48 am   BACKBONE|DICT|INTERRES
    95   47  126 1    
    96   48   49 2    
    97   48   50 1    
    98   50   51 1    
    99   50   52 1    
   100   50  127 1    
   101   51  128 1    
   102   51  129 1    
   103   51  130 1    
   104   52   53 am   BACKBONE|DICT|INTERRES
   105   52  131 1    
   106   53   54 2    
   107   53   55 1    
   108   55   56 1    
   109   55   59 1    
   110   55  132 1    
   111   56   57 1    
   112   56  133 1    
   113   56  134 1    
   114   57   58 1    
   115   58  135 1    
   116   58  136 1    
   117   59   60 am   BACKBONE|DICT|INTERRES
   118   59  137 1    
   119   60   61 2    
   120   60   62 1    
   121   62   63 1    
   122   62   64 1    
   123   62  138 1    
   124   63  139 1    
   125   63  140 1    
   126   63  141 1    
   127   64   65 am   BACKBONE|DICT|INTERRES
   128   64  142 1    
   129   65   66 2    
   130   65   67 1    
   131   67   68 1    
   132   67   69 1    
   133   67  143 1    
   134   68  144 1    
   135   68  145 1    
   136   68  146 1    
   137   69   70 am   BACKBONE|DICT|INTERRES
   138   69  147 1    
   139   70   71 2    
   140   70   72 1    
   141   72   73 1    
   142   72   74 1    
   143   72  148 1    
   144   73  149 1    
   145   73  150 1    
   146   73  151 1    
   147   74   75 am   BACKBONE|DICT|INTERRES
   148   74  152 1    
   149   75   76 2    
   150   75   77 1    
   151   77   78 1    
   152   77   79 1    
   153   77  153 1    
   154   78  154 1    
   155   78  155 1    
   156   78  156 1    
   157   79   80 am   BACKBONE|DICT|INTERRES
   158   79  157 1    
   159   80   81 2    
@<TRIPOS>SUBSTRUCTURE
     1 UNK         1 GROUP             0       ****    0 ROOT    
