@<TRIPOS>MOLECULE
3R207
157   159    1
SMALL
USER_CHARGES


@<TRIPOS>ATOM
      1 CA        -47.6041  -29.9985    2.4462 C.3       0 UNK        -0.1975 
      2 C         -48.2143  -28.8721    3.2666 C.2       0 UNK         0.4852 
      3 O         -48.2705  -27.7327    2.7997 O.2       0 UNK        -0.5216 
      4 N         -48.6712  -29.1757    4.4885 N.am      1 UNK        -0.4461 
      5 CA        -49.2773  -28.2234    5.4257 C.3       1 UNK         0.0864 
      6 C6        -50.2339  -28.9179    6.4296 C.3       14 UNK        -0.0898 
      7 S7        -51.5161  -29.9250    5.6081 S.3       14 UNK        -0.2598 
      8 C8        -52.7501  -28.6745    5.1243 C.3       14 UNK         0.0286 
      9 C9        -53.5500  -28.1558    6.3104 C.ar      14 UNK        -0.0844 
     10 C10       -53.4335  -26.8242    6.7215 C.ar      14 UNK        -0.0881 
     11 C11       -54.1964  -26.3424    7.7908 C.ar      14 UNK        -0.0643 
     12 C12       -55.0708  -27.2075    8.4566 C.ar      14 UNK        -0.0930 
     13 C13       -55.1842  -28.5436    8.0634 C.ar      14 UNK        -0.0827 
     14 C14       -54.4332  -29.0067    6.9800 C.ar      14 UNK        -0.1249 
     15 C15       -56.1153  -29.4900    8.8070 C.3       14 UNK         0.0141 
     16 S16       -55.1934  -30.8016    9.6710 S.3       14 UNK        -0.2313 
     17 C17       -54.2281  -29.8466   10.8909 C.3       14 UNK        -0.0915 
     18 CA        -54.1838  -30.5405   12.2766 C.3       13 UNK         0.0968 
     19 C         -53.1847  -31.7326   12.3001 C.2       13 UNK         0.5732 
     20 N         -51.9284  -31.5104   12.6690 N.am      13 UNK        -0.7310 
     21 O         -53.5575  -32.8673   12.0119 O.2       13 UNK        -0.5035 
     22 N         -53.9210  -29.5711   13.3488 N.am      13 UNK        -0.4233 
     23 C         -54.2158  -29.7914   14.6367 C.2       13 UNK         0.4989 
     24 O         -54.8572  -30.7637   15.0382 O.2       13 UNK        -0.4996 
     25 CA        -53.6979  -28.7697   15.6625 C.3       12 UNK         0.0216 
     26 CB        -52.3100  -29.1959   16.1648 C.3       12 UNK        -0.1964 
     27 N         -53.6397  -27.3930   15.1612 N.am      12 UNK        -0.4276 
     28 C         -54.7115  -26.6536   14.8408 C.2       12 UNK         0.5020 
     29 O         -55.8727  -27.0580   14.9259 O.2       12 UNK        -0.5489 
     30 CA        -54.4250  -25.2247   14.3450 C.3       11 UNK         0.0294 
     31 CB        -55.6955  -24.3649   14.1716 C.3       11 UNK        -0.2019 
     32 N         -53.4181  -24.5374   15.1645 N.am      11 UNK        -0.4493 
     33 C         -53.5249  -24.1534   16.4459 C.2       11 UNK         0.4932 
     34 O         -54.5282  -24.3297   17.1388 O.2       11 UNK        -0.5029 
     35 CA        -52.2971  -23.4301   17.0377 C.3       10 UNK         0.0280 
     36 CB        -52.3842  -23.2329   18.5667 C.3       10 UNK        -0.1976 
     37 N         -51.0226  -24.0510   16.6561 N.am      10 UNK        -0.4242 
     38 C         -50.5990  -25.2913   16.9546 C.2       10 UNK         0.5072 
     39 O         -51.2412  -26.0801   17.6478 O.2       10 UNK        -0.5224 
     40 CA        -49.2415  -25.7430   16.3783 C.3       9 UNK         0.0343 
     41 CB        -49.3263  -27.1582   15.7797 C.3       9 UNK        -0.2003 
     42 N         -48.7683  -24.8347   15.3358 N.am      9 UNK        -0.4272 
     43 C         -47.7976  -23.9224   15.4699 C.2       9 UNK         0.4988 
     44 O         -47.1265  -23.7771   16.4919 O.2       9 UNK        -0.5108 
     45 CA        -47.5422  -22.9952   14.2663 C.3       8 UNK         0.0248 
     46 CB        -46.3274  -23.4853   13.4685 C.3       8 UNK        -0.2001 
     47 N         -48.6979  -22.8728   13.3693 N.am      8 UNK        -0.4140 
     48 C         -49.8354  -22.2461   13.7035 C.2       8 UNK         0.5028 
     49 O         -50.0228  -21.7164   14.7993 O.2       8 UNK        -0.5428 
     50 CA        -50.9822  -22.2531   12.6792 C.3       7 UNK         0.0264 
     51 CB        -50.8335  -21.0733   11.7055 C.3       7 UNK        -0.1988 
     52 N         -51.1343  -23.4924   11.9106 N.am      7 UNK        -0.4454 
     53 C         -51.2331  -24.7346   12.4051 C.2       7 UNK         0.5027 
     54 O         -51.1113  -25.0011   13.6014 O.2       7 UNK        -0.5083 
     55 CA        -51.5532  -25.8763   11.4251 C.3       6 UNK         0.0844 
     56 C56       -51.9659  -25.4321    9.9982 C.3       14 UNK        -0.0967 
     57 S57       -53.6308  -24.6877    9.9682 S.3       14 UNK        -0.2604 
     58 C58       -54.0866  -24.8829    8.2151 C.3       14 UNK         0.0134 
     59 N         -50.4006  -26.7633   11.3731 N.am      6 UNK        -0.4116 
     60 C         -50.3744  -28.0384   11.7743 C.2       5 UNK         0.5034 
     61 O         -51.2989  -28.5949   12.3711 O.2       5 UNK        -0.5045 
     62 CA        -49.1241  -28.8559   11.4048 C.3       5 UNK         0.0224 
     63 CB        -49.4793  -29.8881   10.3224 C.3       5 UNK        -0.1978 
     64 N         -48.0208  -28.0272   10.9060 N.am      5 UNK        -0.4737 
     65 C         -47.1085  -27.4397   11.6898 C.2       4 UNK         0.5027 
     66 O         -47.0821  -27.5469   12.9148 O.2       4 UNK        -0.5211 
     67 CA        -46.0538  -26.5748   10.9826 C.3       4 UNK         0.0297 
     68 CB        -44.9687  -27.4649   10.3549 C.3       4 UNK        -0.1993 
     69 N         -46.5901  -25.6816    9.9516 N.am      4 UNK        -0.4486 
     70 C         -47.5998  -24.8073   10.0522 C.2       3 UNK         0.4961 
     71 O         -48.2843  -24.6631   11.0646 O.2       3 UNK        -0.5105 
     72 CA        -47.9365  -23.9485    8.8152 C.3       3 UNK         0.0299 
     73 CB        -47.3214  -22.5428    8.9504 C.3       3 UNK        -0.1972 
     74 N         -47.6150  -24.5578    7.5123 N.am      3 UNK        -0.4305 
     75 C         -46.4165  -24.8995    7.0137 C.2       2 UNK         0.5006 
     76 O         -45.3539  -24.6815    7.5975 O.2       2 UNK        -0.5106 
     77 CA        -46.3977  -25.6551    5.6689 C.3       2 UNK         0.0296 
     78 CB        -45.1443  -26.5448    5.5235 C.3       2 UNK        -0.2002 
     79 N         -47.5987  -26.4519    5.3771 N.am      2 UNK        -0.4032 
     80 C         -48.1645  -27.4140    6.1247 C.2       1 UNK         0.5000 
     81 O         -47.8225  -27.6931    7.2772 O.2       1 UNK        -0.5238 
     82 H82       -48.1498  -30.1186    1.5108 H         1 UNK         0.0889 
     83 H83       -47.6289  -30.9496    2.9778 H         1 UNK         0.0889 
     84 H84       -46.5657  -29.7689    2.2087 H         1 UNK         0.0889 
     85 H85       -48.5947  -30.1245    4.8266 H         1 UNK         0.3028 
     86 H86       -49.8781  -27.5125    4.8544 H         1 UNK         0.0864 
     87 H87       -49.6729  -29.5883    7.0825 H         1 UNK         0.0720 
     88 H88       -50.7144  -28.1859    7.0815 H         1 UNK         0.0720 
     89 H89       -53.4391  -29.1269    4.4096 H         1 UNK         0.0814 
     90 H90       -52.2589  -27.8591    4.5922 H         1 UNK         0.0814 
     91 H91       -52.7583  -26.1591    6.2008 H         1 UNK         0.1469 
     92 H92       -55.6554  -26.8377    9.2879 H         1 UNK         0.1381 
     93 H93       -54.5233  -30.0385    6.6680 H         1 UNK         0.1206 
     94 H94       -56.8009  -29.9503    8.0943 H         1 UNK         0.0813 
     95 H95       -56.7352  -28.9512    9.5254 H         1 UNK         0.0813 
     96 H96       -53.2251  -29.6667   10.4983 H         1 UNK         0.0638 
     97 H97       -54.6890  -28.8627   10.9901 H         1 UNK         0.0638 
     98 H98       -55.1759  -30.9562   12.4650 H         1 UNK         0.0568 
     99 H99       -51.2776  -32.2778   12.7066 H         1 UNK         0.3450 
    100 H100      -51.6195  -30.5623   12.8432 H         1 UNK         0.3450 
    101 H101      -53.3004  -28.8078   13.1120 H         1 UNK         0.2987 
    102 H102      -54.3848  -28.7828   16.5115 H         1 UNK         0.0766 
    103 H103      -51.5661  -29.1693   15.3676 H         1 UNK         0.0798 
    104 H104      -52.3312  -30.2149   16.5539 H         1 UNK         0.0798 
    105 H105      -51.9673  -28.5531   16.9749 H         1 UNK         0.0798 
    106 H106      -52.7249  -26.9715   15.0867 H         1 UNK         0.3198 
    107 H107      -53.9892  -25.3385   13.3528 H         1 UNK         0.0843 
    108 H108      -56.2426  -24.2506   15.1077 H         1 UNK         0.0831 
    109 H109      -56.3777  -24.8217   13.4535 H         1 UNK         0.0831 
    110 H110      -55.4534  -23.3699   13.7986 H         1 UNK         0.0831 
    111 H111      -52.5122  -24.4239   14.7164 H         1 UNK         0.3133 
    112 H112      -52.2901  -22.4378   16.5844 H         1 UNK         0.0566 
    113 H113      -51.5137  -22.6996   18.9484 H         1 UNK         0.0814 
    114 H114      -53.2645  -22.6475   18.8349 H         1 UNK         0.0814 
    115 H115      -52.4549  -24.1835   19.0962 H         1 UNK         0.0814 
    116 H116      -50.4240  -23.4749   16.0756 H         1 UNK         0.3091 
    117 H117      -48.5337  -25.7673   17.2090 H         1 UNK         0.0702 
    118 H118      -49.6051  -27.8905   16.5377 H         1 UNK         0.0785 
    119 H119      -50.0612  -27.2126   14.9756 H         1 UNK         0.0785 
    120 H120      -48.3653  -27.4717   15.3719 H         1 UNK         0.0785 
    121 H121      -49.2996  -24.8585   14.4714 H         1 UNK         0.2998 
    122 H122      -47.3144  -22.0012   14.6571 H         1 UNK         0.0697 
    123 H123      -46.4796  -24.5079   13.1294 H         1 UNK         0.0825 
    124 H124      -45.4259  -23.4763   14.0825 H         1 UNK         0.0825 
    125 H125      -46.1370  -22.8608   12.5954 H         1 UNK         0.0825 
    126 H126      -48.6388  -23.3538   12.4751 H         1 UNK         0.3029 
    127 H127      -51.9093  -22.1141   13.2394 H         1 UNK         0.0897 
    128 H128      -49.9509  -21.1806   11.0735 H         1 UNK         0.0792 
    129 H129      -50.7356  -20.1301   12.2453 H         1 UNK         0.0792 
    130 H130      -51.7039  -20.9816   11.0554 H         1 UNK         0.0792 
    131 H131      -51.2726  -23.3757   10.9179 H         1 UNK         0.3086 
    132 H132      -52.3993  -26.4145   11.8567 H         1 UNK         0.0583 
    133 H133      -51.2396  -24.7577    9.5426 H         1 UNK         0.1020 
    134 H134      -51.9837  -26.3131    9.3546 H         1 UNK         0.1020 
    135 H135      -55.0478  -24.3956    8.0467 H         1 UNK         0.0694 
    136 H136      -53.3594  -24.3495    7.6010 H         1 UNK         0.0694 
    137 H137      -49.5428  -26.3519   11.0264 H         1 UNK         0.2989 
    138 H138      -48.8049  -29.3901   12.3028 H         1 UNK         0.1055 
    139 H139      -50.2588  -30.5693   10.6638 H         1 UNK         0.0806 
    140 H140      -48.6160  -30.4963   10.0520 H         1 UNK         0.0806 
    141 H141      -49.8486  -29.4054    9.4178 H         1 UNK         0.0806 
    142 H142      -47.9568  -27.8919    9.9043 H         1 UNK         0.3061 
    143 H143      -45.5703  -25.9529   11.7351 H         1 UNK         0.0734 
    144 H144      -44.1506  -26.8681    9.9511 H         1 UNK         0.0832 
    145 H145      -44.5396  -28.1413   11.0956 H         1 UNK         0.0832 
    146 H146      -45.3671  -28.0770    9.5443 H         1 UNK         0.0832 
    147 H147      -46.0696  -25.6466    9.0804 H         1 UNK         0.3156 
    148 H148      -49.0205  -23.8277    8.8178 H         1 UNK         0.0589 
    149 H149      -46.2317  -22.5737    8.9758 H         1 UNK         0.0808 
    150 H150      -47.6197  -21.8979    8.1239 H         1 UNK         0.0808 
    151 H151      -47.6507  -22.0609    9.8721 H         1 UNK         0.0808 
    152 H152      -48.4179  -24.8098    6.9536 H         1 UNK         0.3098 
    153 H153      -46.3484  -24.8861    4.8969 H         1 UNK         0.0720 
    154 H154      -45.1258  -27.0489    4.5571 H         1 UNK         0.0791 
    155 H155      -45.1028  -27.3093    6.3005 H         1 UNK         0.0791 
    156 H156      -44.2289  -25.9559    5.5947 H         1 UNK         0.0791 
    157 H157      -47.9438  -26.3692    4.4264 H         1 UNK         0.3028 
@<TRIPOS>BOND
     1    1    2 1    
     2    1   82 1    
     3    1   83 1    
     4    1   84 1    
     5    2    3 2    
     6    2    4 am   BACKBONE|DICT|INTERRES
     7    4    5 1    
     8    4   85 1    
     9    5    6 1    
    10    5   80 1    
    11    5   86 1    
    12    6    7 1    
    13    6   87 1    
    14    6   88 1    
    15    7    8 1    
    16    8    9 1    
    17    8   89 1    
    18    8   90 1    
    19    9   10 ar   
    20    9   14 ar   
    21   10   11 ar   
    22   10   91 1    
    23   11   12 ar   
    24   11   58 1    
    25   12   13 ar   
    26   12   92 1    
    27   13   14 ar   
    28   13   15 1    
    29   14   93 1    
    30   15   16 1    
    31   15   94 1    
    32   15   95 1    
    33   16   17 1    
    34   17   18 1    
    35   17   96 1    
    36   17   97 1    
    37   18   19 1    
    38   18   22 1    
    39   18   98 1    
    40   19   20 am   BACKBONE|DICT|INTERRES
    41   19   21 2    
    42   20   99 1    
    43   20  100 1    
    44   22   23 am   BACKBONE|DICT|INTERRES
    45   22  101 1    
    46   23   24 2    
    47   23   25 1    
    48   25   26 1    
    49   25   27 1    
    50   25  102 1    
    51   26  103 1    
    52   26  104 1    
    53   26  105 1    
    54   27   28 am   BACKBONE|DICT|INTERRES
    55   27  106 1    
    56   28   29 2    
    57   28   30 1    
    58   30   31 1    
    59   30   32 1    
    60   30  107 1    
    61   31  108 1    
    62   31  109 1    
    63   31  110 1    
    64   32   33 am   BACKBONE|DICT|INTERRES
    65   32  111 1    
    66   33   34 2    
    67   33   35 1    
    68   35   36 1    
    69   35   37 1    
    70   35  112 1    
    71   36  113 1    
    72   36  114 1    
    73   36  115 1    
    74   37   38 am   BACKBONE|DICT|INTERRES
    75   37  116 1    
    76   38   39 2    
    77   38   40 1    
    78   40   41 1    
    79   40   42 1    
    80   40  117 1    
    81   41  118 1    
    82   41  119 1    
    83   41  120 1    
    84   42   43 am   BACKBONE|DICT|INTERRES
    85   42  121 1    
    86   43   44 2    
    87   43   45 1    
    88   45   46 1    
    89   45   47 1    
    90   45  122 1    
    91   46  123 1    
    92   46  124 1    
    93   46  125 1    
    94   47   48 am   BACKBONE|DICT|INTERRES
    95   47  126 1    
    96   48   49 2    
    97   48   50 1    
    98   50   51 1    
    99   50   52 1    
   100   50  127 1    
   101   51  128 1    
   102   51  129 1    
   103   51  130 1    
   104   52   53 am   BACKBONE|DICT|INTERRES
   105   52  131 1    
   106   53   54 2    
   107   53   55 1    
   108   55   56 1    
   109   55   59 1    
   110   55  132 1    
   111   56   57 1    
   112   56  133 1    
   113   56  134 1    
   114   57   58 1    
   115   58  135 1    
   116   58  136 1    
   117   59   60 am   BACKBONE|DICT|INTERRES
   118   59  137 1    
   119   60   61 2    
   120   60   62 1    
   121   62   63 1    
   122   62   64 1    
   123   62  138 1    
   124   63  139 1    
   125   63  140 1    
   126   63  141 1    
   127   64   65 am   BACKBONE|DICT|INTERRES
   128   64  142 1    
   129   65   66 2    
   130   65   67 1    
   131   67   68 1    
   132   67   69 1    
   133   67  143 1    
   134   68  144 1    
   135   68  145 1    
   136   68  146 1    
   137   69   70 am   BACKBONE|DICT|INTERRES
   138   69  147 1    
   139   70   71 2    
   140   70   72 1    
   141   72   73 1    
   142   72   74 1    
   143   72  148 1    
   144   73  149 1    
   145   73  150 1    
   146   73  151 1    
   147   74   75 am   BACKBONE|DICT|INTERRES
   148   74  152 1    
   149   75   76 2    
   150   75   77 1    
   151   77   78 1    
   152   77   79 1    
   153   77  153 1    
   154   78  154 1    
   155   78  155 1    
   156   78  156 1    
   157   79   80 am   BACKBONE|DICT|INTERRES
   158   79  157 1    
   159   80   81 2    
@<TRIPOS>SUBSTRUCTURE
     1 UNK         1 GROUP             0       ****    0 ROOT    
