@<TRIPOS>MOLECULE
3R207
157   159    1
SMALL
USER_CHARGES


@<TRIPOS>ATOM
      1 CA        -47.0485  -30.3539    3.3120 C.3       0 UNK        -0.1975 
      2 C         -47.6327  -29.3549    4.2993 C.2       0 UNK         0.4852 
      3 O         -47.1438  -29.2560    5.4253 O.2       0 UNK        -0.5216 
      4 N         -48.6585  -28.6016    3.8756 N.am      1 UNK        -0.4461 
      5 CA        -49.4393  -27.6029    4.6300 C.3       1 UNK         0.0864 
      6 C6        -50.1465  -28.1686    5.8904 C.3       14 UNK        -0.0898 
      7 S7        -51.2698  -29.5546    5.5038 S.3       14 UNK        -0.2598 
      8 C8        -52.9086  -28.7676    5.6416 C.3       14 UNK         0.0286 
      9 C9        -53.2393  -28.3676    7.0737 C.ar      14 UNK        -0.0844 
     10 C10       -53.3480  -27.0169    7.4241 C.ar      14 UNK        -0.0881 
     11 C11       -53.6336  -26.6468    8.7425 C.ar      14 UNK        -0.0643 
     12 C12       -53.8505  -27.6426    9.6972 C.ar      14 UNK        -0.0930 
     13 C13       -53.7280  -28.9949    9.3694 C.ar      14 UNK        -0.0827 
     14 C14       -53.4328  -29.3508    8.0503 C.ar      14 UNK        -0.1249 
     15 C15       -53.9122  -30.0666   10.4383 C.3       14 UNK         0.0141 
     16 S16       -52.9305  -29.7196   11.9369 S.3       14 UNK        -0.2313 
     17 C17       -53.2601  -31.2077   12.9361 C.3       14 UNK        -0.0915 
     18 CA        -54.6290  -31.1864   13.6671 C.3       13 UNK         0.0968 
     19 C         -54.7859  -32.4613   14.5419 C.2       13 UNK         0.5732 
     20 N         -55.3504  -33.5275   13.9913 N.am      13 UNK        -0.7310 
     21 O         -54.3592  -32.5050   15.6948 O.2       13 UNK        -0.5035 
     22 N         -54.8286  -29.9355   14.4132 N.am      13 UNK        -0.4233 
     23 C         -55.9384  -29.5906   15.0788 C.2       13 UNK         0.4989 
     24 O         -56.9519  -30.2875   15.1481 O.2       13 UNK        -0.4996 
     25 CA        -55.9266  -28.2159   15.7663 C.3       12 UNK         0.0216 
     26 CB        -55.3221  -28.3217   17.1755 C.3       12 UNK        -0.1964 
     27 N         -55.2120  -27.1923   14.9956 N.am      12 UNK        -0.4276 
     28 C         -55.6745  -26.6469   13.8577 C.2       12 UNK         0.5020 
     29 O         -56.7313  -26.9946   13.3276 O.2       12 UNK        -0.5489 
     30 CA        -54.8349  -25.5313   13.1933 C.3       11 UNK         0.0294 
     31 CB        -55.6997  -24.5172   12.4157 C.3       11 UNK        -0.2019 
     32 N         -53.9214  -24.8388   14.1048 N.am      11 UNK        -0.4493 
     33 C         -54.2285  -24.1762   15.2311 C.2       11 UNK         0.4932 
     34 O         -55.3808  -23.9331   15.5922 O.2       11 UNK        -0.5029 
     35 CA        -53.0436  -23.7535   16.1250 C.3       10 UNK         0.0280 
     36 CB        -53.4201  -23.7226   17.6213 C.3       10 UNK        -0.1976 
     37 N         -51.8324  -24.5618   15.9192 N.am      10 UNK        -0.4242 
     38 C         -51.7042  -25.8954   16.0491 C.2       10 UNK         0.5072 
     39 O         -52.6315  -26.6326   16.3871 O.2       10 UNK        -0.5224 
     40 CA        -50.3484  -26.5308   15.6817 C.3       9 UNK         0.0343 
     41 CB        -50.5373  -27.7293   14.7314 C.3       9 UNK        -0.2003 
     42 N         -49.4498  -25.5677   15.0451 N.am      9 UNK        -0.4272 
     43 C         -48.5267  -24.8311   15.6781 C.2       9 UNK         0.4988 
     44 O         -48.2566  -24.9491   16.8733 O.2       9 UNK        -0.5108 
     45 CA        -47.7975  -23.7599   14.8455 C.3       8 UNK         0.0248 
     46 CB        -46.4197  -24.2766   14.4089 C.3       8 UNK        -0.2001 
     47 N         -48.5498  -23.3223   13.6635 N.am      8 UNK        -0.4140 
     48 C         -49.6985  -22.6325   13.7060 C.2       8 UNK         0.5028 
     49 O         -50.2399  -22.2796   14.7537 O.2       8 UNK        -0.5428 
     50 CA        -50.3945  -22.3405   12.3650 C.3       7 UNK         0.0264 
     51 CB        -49.7873  -21.0938   11.7031 C.3       7 UNK        -0.1988 
     52 N         -50.3593  -23.4585   11.4164 N.am      7 UNK        -0.4454 
     53 C         -50.8517  -24.6844   11.6401 C.2       7 UNK         0.5027 
     54 O         -51.3682  -25.0261   12.7058 O.2       7 UNK        -0.5083 
     55 CA        -50.7195  -25.7159   10.5100 C.3       6 UNK         0.0844 
     56 C56       -50.8164  -25.1615    9.0607 C.3       14 UNK        -0.0967 
     57 S57       -52.2893  -24.1683    8.6232 S.3       14 UNK        -0.2604 
     58 C58       -53.7096  -25.1821    9.1615 C.3       14 UNK         0.0134 
     59 N         -49.4637  -26.4328   10.7103 N.am      6 UNK        -0.4116 
     60 C         -49.2558  -27.7109   10.3649 C.2       5 UNK         0.5034 
     61 O         -50.1335  -28.4432    9.9107 O.2       5 UNK        -0.5045 
     62 CA        -47.8292  -28.2669   10.5290 C.3       5 UNK         0.0224 
     63 CB        -47.4907  -29.3148    9.4508 C.3       5 UNK        -0.1978 
     64 N         -46.8373  -27.1943   10.4596 N.am      5 UNK        -0.4737 
     65 C         -45.9197  -26.9179   11.3941 C.2       4 UNK         0.5027 
     66 O         -45.7901  -27.5636   12.4338 O.2       4 UNK        -0.5211 
     67 CA        -44.9825  -25.7186   11.1405 C.3       4 UNK         0.0297 
     68 CB        -43.6027  -26.2148   10.6790 C.3       4 UNK        -0.1993 
     69 N         -45.4843  -24.7445   10.1663 N.am      4 UNK        -0.4486 
     70 C         -46.6151  -24.0341   10.2769 C.2       3 UNK         0.4961 
     71 O         -47.3775  -24.0964   11.2414 O.2       3 UNK        -0.5105 
     72 CA        -47.0045  -23.1668    9.0671 C.3       3 UNK         0.0299 
     73 CB        -46.3693  -21.7729    9.1844 C.3       3 UNK        -0.1972 
     74 N         -46.6647  -23.7574    7.7639 N.am      3 UNK        -0.4305 
     75 C         -47.0268  -24.9791    7.3439 C.2       2 UNK         0.5006 
     76 O         -47.6518  -25.7850    8.0369 O.2       2 UNK        -0.5106 
     77 CA        -46.5562  -25.3898    5.9400 C.3       2 UNK         0.0296 
     78 CB        -45.1010  -25.8841    5.9892 C.3       2 UNK        -0.2002 
     79 N         -47.3953  -26.4594    5.4023 N.am      2 UNK        -0.4032 
     80 C         -48.6572  -26.3179    4.9809 C.2       1 UNK         0.5000 
     81 O         -49.2126  -25.2243    4.8572 O.2       1 UNK        -0.5238 
     82 H82       -47.5674  -30.3334    2.3538 H         1 UNK         0.0889 
     83 H83       -47.1217  -31.3635    3.7153 H         1 UNK         0.0889 
     84 H84       -45.9964  -30.1334    3.1335 H         1 UNK         0.0889 
     85 H85       -48.9737  -28.7302    2.9239 H         1 UNK         0.3028 
     86 H86       -50.2245  -27.2848    3.9419 H         1 UNK         0.0864 
     87 H87       -49.4178  -28.5158    6.6249 H         1 UNK         0.0720 
     88 H88       -50.7117  -27.3823    6.3914 H         1 UNK         0.0720 
     89 H89       -53.6658  -29.4674    5.2853 H         1 UNK         0.0814 
     90 H90       -52.9506  -27.9062    4.9732 H         1 UNK         0.0814 
     91 H91       -53.1894  -26.2501    6.6783 H         1 UNK         0.1469 
     92 H92       -54.0868  -27.3706   10.7140 H         1 UNK         0.1381 
     93 H93       -53.3371  -30.3939    7.7810 H         1 UNK         0.1206 
     94 H94       -53.6281  -31.0456   10.0496 H         1 UNK         0.0813 
     95 H95       -54.9688  -30.1245   10.7019 H         1 UNK         0.0813 
     96 H96       -52.4477  -31.2938   13.6605 H         1 UNK         0.0638 
     97 H97       -53.1825  -32.0845   12.2906 H         1 UNK         0.0638 
     98 H98       -55.4134  -31.2122   12.9086 H         1 UNK         0.0568 
     99 H99       -55.4446  -34.3681   14.5395 H         1 UNK         0.3450 
    100 H100      -55.6916  -33.5082   13.0430 H         1 UNK         0.3450 
    101 H101      -54.0484  -29.2969   14.4137 H         1 UNK         0.2987 
    102 H102      -56.9641  -27.8907   15.8708 H         1 UNK         0.0766 
    103 H103      -55.3417  -27.3603   17.6894 H         1 UNK         0.0798 
    104 H104      -54.2870  -28.6644   17.1474 H         1 UNK         0.0798 
    105 H105      -55.8824  -29.0296   17.7878 H         1 UNK         0.0798 
    106 H106      -54.3329  -26.8610   15.3858 H         1 UNK         0.3198 
    107 H107      -54.1877  -26.0362   12.4784 H         1 UNK         0.0843 
    108 H108      -55.0873  -23.7423   11.9548 H         1 UNK         0.0831 
    109 H109      -56.4267  -24.0280   13.0645 H         1 UNK         0.0831 
    110 H110      -56.2561  -25.0079   11.6161 H         1 UNK         0.0831 
    111 H111      -52.9359  -24.9428   13.8740 H         1 UNK         0.3133 
    112 H112      -52.7861  -22.7370   15.8251 H         1 UNK         0.0566 
    113 H113      -52.5749  -23.4144   18.2365 H         1 UNK         0.0814 
    114 H114      -54.2291  -23.0155   17.8087 H         1 UNK         0.0814 
    115 H115      -53.7540  -24.6992   17.9739 H         1 UNK         0.0814 
    116 H116      -51.0295  -24.0332   15.5958 H         1 UNK         0.3091 
    117 H117      -49.9027  -26.8991   16.6078 H         1 UNK         0.0702 
    118 H118      -51.1365  -28.5116   15.1992 H         1 UNK         0.0785 
    119 H119      -49.5804  -28.1767   14.4623 H         1 UNK         0.0785 
    120 H120      -51.0431  -27.4434   13.8084 H         1 UNK         0.0785 
    121 H121      -49.6450  -25.3659   14.0730 H         1 UNK         0.2998 
    122 H122      -47.6489  -22.8886   15.4868 H         1 UNK         0.0697 
    123 H123      -46.5111  -25.1818   13.8092 H         1 UNK         0.0825 
    124 H124      -45.8013  -24.5208   15.2737 H         1 UNK         0.0825 
    125 H125      -45.8805  -23.5330   13.8217 H         1 UNK         0.0825 
    126 H126      -48.1636  -23.5769   12.7543 H         1 UNK         0.3029 
    127 H127      -51.4447  -22.1349   12.5833 H         1 UNK         0.0897 
    128 H128      -50.3333  -20.8162   10.8012 H         1 UNK         0.0792 
    129 H129      -49.8231  -20.2372   12.3779 H         1 UNK         0.0792 
    130 H130      -48.7432  -21.2504   11.4302 H         1 UNK         0.0792 
    131 H131      -49.9429  -23.2678   10.5180 H         1 UNK         0.3086 
    132 H132      -51.5388  -26.4194   10.6621 H         1 UNK         0.0583 
    133 H133      -49.9370  -24.5623    8.8253 H         1 UNK         0.1020 
    134 H134      -50.7719  -25.9988    8.3633 H         1 UNK         0.1020 
    135 H135      -53.7846  -25.0976   10.2455 H         1 UNK         0.0694 
    136 H136      -54.6245  -24.7474    8.7573 H         1 UNK         0.0694 
    137 H137      -48.6893  -25.8901   11.0726 H         1 UNK         0.2989 
    138 H138      -47.8009  -28.7547   11.5057 H         1 UNK         0.1055 
    139 H139      -48.1736  -30.1641    9.4956 H         1 UNK         0.0806 
    140 H140      -46.4818  -29.7060    9.5811 H         1 UNK         0.0806 
    141 H141      -47.5592  -28.8921    8.4470 H         1 UNK         0.0806 
    142 H142      -46.9076  -26.5982    9.6377 H         1 UNK         0.3061 
    143 H143      -44.8539  -25.1967   12.0898 H         1 UNK         0.0734 
    144 H144      -42.8943  -25.3917   10.5826 H         1 UNK         0.0832 
    145 H145      -43.1804  -26.9186   11.3979 H         1 UNK         0.0832 
    146 H146      -43.6590  -26.7271    9.7176 H         1 UNK         0.0832 
    147 H147      -44.9414  -24.6319    9.3230 H         1 UNK         0.3156 
    148 H148      -48.0882  -23.0442    9.0921 H         1 UNK         0.0589 
    149 H149      -45.2824  -21.8149    9.1031 H         1 UNK         0.0808 
    150 H150      -46.7387  -21.1013    8.4091 H         1 UNK         0.0808 
    151 H151      -46.6045  -21.3134   10.1454 H         1 UNK         0.0808 
    152 H152      -46.1381  -23.1709    7.1317 H         1 UNK         0.3098 
    153 H153      -46.6216  -24.5254    5.2760 H         1 UNK         0.0720 
    154 H154      -44.7499  -26.1784    4.9998 H         1 UNK         0.0791 
    155 H155      -44.9901  -26.7441    6.6518 H         1 UNK         0.0791 
    156 H156      -44.4294  -25.1041    6.3499 H         1 UNK         0.0791 
    157 H157      -47.0637  -27.4140    5.5220 H         1 UNK         0.3028 
@<TRIPOS>BOND
     1    1    2 1    
     2    1   82 1    
     3    1   83 1    
     4    1   84 1    
     5    2    3 2    
     6    2    4 am   BACKBONE|DICT|INTERRES
     7    4    5 1    
     8    4   85 1    
     9    5    6 1    
    10    5   80 1    
    11    5   86 1    
    12    6    7 1    
    13    6   87 1    
    14    6   88 1    
    15    7    8 1    
    16    8    9 1    
    17    8   89 1    
    18    8   90 1    
    19    9   10 ar   
    20    9   14 ar   
    21   10   11 ar   
    22   10   91 1    
    23   11   12 ar   
    24   11   58 1    
    25   12   13 ar   
    26   12   92 1    
    27   13   14 ar   
    28   13   15 1    
    29   14   93 1    
    30   15   16 1    
    31   15   94 1    
    32   15   95 1    
    33   16   17 1    
    34   17   18 1    
    35   17   96 1    
    36   17   97 1    
    37   18   19 1    
    38   18   22 1    
    39   18   98 1    
    40   19   20 am   BACKBONE|DICT|INTERRES
    41   19   21 2    
    42   20   99 1    
    43   20  100 1    
    44   22   23 am   BACKBONE|DICT|INTERRES
    45   22  101 1    
    46   23   24 2    
    47   23   25 1    
    48   25   26 1    
    49   25   27 1    
    50   25  102 1    
    51   26  103 1    
    52   26  104 1    
    53   26  105 1    
    54   27   28 am   BACKBONE|DICT|INTERRES
    55   27  106 1    
    56   28   29 2    
    57   28   30 1    
    58   30   31 1    
    59   30   32 1    
    60   30  107 1    
    61   31  108 1    
    62   31  109 1    
    63   31  110 1    
    64   32   33 am   BACKBONE|DICT|INTERRES
    65   32  111 1    
    66   33   34 2    
    67   33   35 1    
    68   35   36 1    
    69   35   37 1    
    70   35  112 1    
    71   36  113 1    
    72   36  114 1    
    73   36  115 1    
    74   37   38 am   BACKBONE|DICT|INTERRES
    75   37  116 1    
    76   38   39 2    
    77   38   40 1    
    78   40   41 1    
    79   40   42 1    
    80   40  117 1    
    81   41  118 1    
    82   41  119 1    
    83   41  120 1    
    84   42   43 am   BACKBONE|DICT|INTERRES
    85   42  121 1    
    86   43   44 2    
    87   43   45 1    
    88   45   46 1    
    89   45   47 1    
    90   45  122 1    
    91   46  123 1    
    92   46  124 1    
    93   46  125 1    
    94   47   48 am   BACKBONE|DICT|INTERRES
    95   47  126 1    
    96   48   49 2    
    97   48   50 1    
    98   50   51 1    
    99   50   52 1    
   100   50  127 1    
   101   51  128 1    
   102   51  129 1    
   103   51  130 1    
   104   52   53 am   BACKBONE|DICT|INTERRES
   105   52  131 1    
   106   53   54 2    
   107   53   55 1    
   108   55   56 1    
   109   55   59 1    
   110   55  132 1    
   111   56   57 1    
   112   56  133 1    
   113   56  134 1    
   114   57   58 1    
   115   58  135 1    
   116   58  136 1    
   117   59   60 am   BACKBONE|DICT|INTERRES
   118   59  137 1    
   119   60   61 2    
   120   60   62 1    
   121   62   63 1    
   122   62   64 1    
   123   62  138 1    
   124   63  139 1    
   125   63  140 1    
   126   63  141 1    
   127   64   65 am   BACKBONE|DICT|INTERRES
   128   64  142 1    
   129   65   66 2    
   130   65   67 1    
   131   67   68 1    
   132   67   69 1    
   133   67  143 1    
   134   68  144 1    
   135   68  145 1    
   136   68  146 1    
   137   69   70 am   BACKBONE|DICT|INTERRES
   138   69  147 1    
   139   70   71 2    
   140   70   72 1    
   141   72   73 1    
   142   72   74 1    
   143   72  148 1    
   144   73  149 1    
   145   73  150 1    
   146   73  151 1    
   147   74   75 am   BACKBONE|DICT|INTERRES
   148   74  152 1    
   149   75   76 2    
   150   75   77 1    
   151   77   78 1    
   152   77   79 1    
   153   77  153 1    
   154   78  154 1    
   155   78  155 1    
   156   78  156 1    
   157   79   80 am   BACKBONE|DICT|INTERRES
   158   79  157 1    
   159   80   81 2    
@<TRIPOS>SUBSTRUCTURE
     1 UNK         1 GROUP             0       ****    0 ROOT    
