@<TRIPOS>MOLECULE
3R207
157   159    1
SMALL
USER_CHARGES


@<TRIPOS>ATOM
      1 CA        -44.2540  -28.7455    7.6455 C.3       0 UNK        -0.1975 
      2 C         -44.8348  -28.9218    6.2502 C.2       0 UNK         0.4852 
      3 O         -44.2301  -28.4791    5.2733 O.2       0 UNK        -0.5216 
      4 N         -46.0073  -29.5620    6.1526 N.am      1 UNK        -0.4461 
      5 CA        -46.7577  -29.7898    4.9091 C.3       1 UNK         0.0864 
      6 C6        -47.8465  -30.8797    5.0897 C.3       14 UNK        -0.0898 
      7 S7        -48.9205  -30.6067    6.5416 S.3       14 UNK        -0.2598 
      8 C8        -50.4622  -30.0558    5.7549 C.3       14 UNK         0.0286 
      9 C9        -51.3778  -29.4026    6.7766 C.ar      14 UNK        -0.0844 
     10 C10       -51.4403  -28.0090    6.8709 C.ar      14 UNK        -0.0881 
     11 C11       -52.2637  -27.3876    7.8143 C.ar      14 UNK        -0.0643 
     12 C12       -53.0410  -28.1915    8.6584 C.ar      14 UNK        -0.0930 
     13 C13       -52.9908  -29.5850    8.5766 C.ar      14 UNK        -0.0827 
     14 C14       -52.1557  -30.1877    7.6325 C.ar      14 UNK        -0.1249 
     15 C15       -53.8595  -30.4249    9.5010 C.3       14 UNK         0.0141 
     16 S16       -53.2831  -30.3234   11.2270 S.3       14 UNK        -0.2313 
     17 C17       -54.8493  -30.1189   12.1443 C.3       14 UNK        -0.0915 
     18 CA        -55.0256  -28.6740   12.6986 C.3       13 UNK         0.0968 
     19 C         -55.5764  -27.6386   11.6759 C.2       13 UNK         0.5732 
     20 N         -55.5757  -26.3597   12.0308 N.am      13 UNK        -0.7310 
     21 O         -56.0241  -27.9759   10.5833 O.2       13 UNK        -0.5035 
     22 N         -55.7680  -28.6426   13.9661 N.am      13 UNK        -0.4233 
     23 C         -57.0676  -28.9086   14.1423 C.2       13 UNK         0.4989 
     24 O         -57.8153  -29.3106   13.2505 O.2       13 UNK        -0.4996 
     25 CA        -57.6515  -28.6736   15.5501 C.3       12 UNK         0.0216 
     26 CB        -57.4030  -29.8917   16.4621 C.3       12 UNK        -0.1964 
     27 N         -57.2345  -27.4160   16.1976 N.am      12 UNK        -0.4276 
     28 C         -56.0130  -27.0556   16.6142 C.2       12 UNK         0.5020 
     29 O         -55.0098  -27.7654   16.4974 O.2       12 UNK        -0.5489 
     30 CA        -55.8878  -25.6658   17.2510 C.3       11 UNK         0.0294 
     31 CB        -56.3865  -25.6740   18.7059 C.3       11 UNK        -0.2019 
     32 N         -54.4809  -25.2829   17.2257 N.am      11 UNK        -0.4493 
     33 C         -53.9832  -24.0754   16.9507 C.2       11 UNK         0.4932 
     34 O         -54.6826  -23.0767   16.7780 O.2       11 UNK        -0.5029 
     35 CA        -52.4523  -23.9474   16.8173 C.3       10 UNK         0.0280 
     36 CB        -51.8058  -23.5474   18.1574 C.3       10 UNK        -0.1976 
     37 N         -51.7796  -25.1109   16.2179 N.am      10 UNK        -0.4242 
     38 C         -51.6222  -26.3487   16.7126 C.2       10 UNK         0.5072 
     39 O         -52.0555  -26.7157   17.8052 O.2       10 UNK        -0.5224 
     40 CA        -50.8662  -27.3553   15.8305 C.3       9 UNK         0.0343 
     41 CB        -51.7897  -27.9189   14.7388 C.3       9 UNK        -0.2003 
     42 N         -49.6667  -26.7817   15.2175 N.am      9 UNK        -0.4272 
     43 C         -48.5724  -26.4128   15.9004 C.2       9 UNK         0.4988 
     44 O         -48.4355  -26.5671   17.1148 O.2       9 UNK        -0.5108 
     45 CA        -47.4338  -25.7614   15.0986 C.3       8 UNK         0.0248 
     46 CB        -46.5794  -26.8342   14.4045 C.3       8 UNK        -0.2001 
     47 N         -47.9128  -24.7888   14.1133 N.am      8 UNK        -0.4140 
     48 C         -48.5114  -23.6282   14.4206 C.2       8 UNK         0.5028 
     49 O         -48.6706  -23.2209   15.5718 O.2       8 UNK        -0.5428 
     50 CA        -49.0443  -22.7830   13.2500 C.3       7 UNK         0.0264 
     51 CB        -47.9165  -21.9535   12.6164 C.3       7 UNK        -0.1988 
     52 N         -49.7126  -23.5780   12.2163 N.am      7 UNK        -0.4454 
     53 C         -50.8174  -24.3135   12.4152 C.2       7 UNK         0.5027 
     54 O         -51.4065  -24.3887   13.4939 O.2       7 UNK        -0.5083 
     55 CA        -51.3310  -25.1378   11.2177 C.3       6 UNK         0.0844 
     56 C56       -52.0936  -24.2314   10.2156 C.3       14 UNK        -0.0967 
     57 S57       -53.3059  -25.1313    9.1979 S.3       14 UNK        -0.2604 
     58 C58       -52.2846  -25.8572    7.8663 C.3       14 UNK         0.0134 
     59 N         -50.2307  -25.8779   10.5899 N.am      6 UNK        -0.4116 
     60 C         -49.4927  -26.8185   11.1985 C.2       5 UNK         0.5034 
     61 O         -49.7066  -27.2335   12.3367 O.2       5 UNK        -0.5045 
     62 CA        -48.2614  -27.3305   10.4369 C.3       5 UNK         0.0224 
     63 CB        -48.6457  -28.4474    9.4569 C.3       5 UNK        -0.1978 
     64 N         -47.5672  -26.2525    9.7262 N.am      5 UNK        -0.4737 
     65 C         -46.8473  -25.3008   10.3403 C.2       4 UNK         0.5027 
     66 O         -46.6737  -25.2645   11.5567 O.2       4 UNK        -0.5211 
     67 CA        -46.2507  -24.1778    9.4710 C.3       4 UNK         0.0297 
     68 CB        -44.8553  -24.5783    8.9678 C.3       4 UNK        -0.1993 
     69 N         -47.0898  -23.8103    8.3294 N.am      4 UNK        -0.4486 
     70 C         -48.3539  -23.3728    8.4088 C.2       3 UNK         0.4961 
     71 O         -48.9237  -23.1296    9.4725 O.2       3 UNK        -0.5105 
     72 CA        -49.1379  -23.2395    7.0876 C.3       3 UNK         0.0299 
     73 CB        -49.1343  -21.7768    6.6174 C.3       3 UNK        -0.1972 
     74 N         -48.6761  -24.1036    5.9886 N.am      3 UNK        -0.4305 
     75 C         -48.4983  -25.4326    6.0418 C.2       2 UNK         0.5006 
     76 O         -48.6771  -26.1022    7.0625 O.2       2 UNK        -0.5106 
     77 CA        -47.9997  -26.1249    4.7640 C.3       2 UNK         0.0296 
     78 CB        -46.8514  -25.3470    4.0829 C.3       2 UNK        -0.2002 
     79 N         -47.5511  -27.4674    5.1230 N.am      2 UNK        -0.4032 
     80 C         -47.3324  -28.4932    4.2920 C.2       1 UNK         0.5000 
     81 O         -47.5480  -28.4471    3.0791 O.2       1 UNK        -0.5238 
     82 H82       -43.9730  -27.7057    7.8078 H         1 UNK         0.0889 
     83 H83       -43.3617  -29.3604    7.7598 H         1 UNK         0.0889 
     84 H84       -44.9650  -29.0276    8.4221 H         1 UNK         0.0889 
     85 H85       -46.4548  -29.9191    6.9856 H         1 UNK         0.3028 
     86 H86       -46.0436  -30.1712    4.1758 H         1 UNK         0.0864 
     87 H87       -48.4504  -30.9901    4.1866 H         1 UNK         0.0720 
     88 H88       -47.3602  -31.8464    5.2290 H         1 UNK         0.0720 
     89 H89       -50.9614  -30.9092    5.2934 H         1 UNK         0.0814 
     90 H90       -50.2364  -29.3552    4.9495 H         1 UNK         0.0814 
     91 H91       -50.8348  -27.4032    6.2116 H         1 UNK         0.1469 
     92 H92       -53.6950  -27.7485    9.3929 H         1 UNK         0.1381 
     93 H93       -52.1060  -31.2659    7.5636 H         1 UNK         0.1206 
     94 H94       -54.8903  -30.0805    9.4156 H         1 UNK         0.0813 
     95 H95       -53.8623  -31.4709    9.1910 H         1 UNK         0.0813 
     96 H96       -54.8043  -30.8263   12.9737 H         1 UNK         0.0638 
     97 H97       -55.7060  -30.4321   11.5455 H         1 UNK         0.0638 
     98 H98       -54.0322  -28.3107   12.9606 H         1 UNK         0.0568 
     99 H99       -55.2297  -26.0682   12.9299 H         1 UNK         0.3450 
    100 H100      -55.9294  -25.6758   11.3811 H         1 UNK         0.3450 
    101 H101      -55.2555  -28.3271   14.7874 H         1 UNK         0.2987 
    102 H102      -58.7317  -28.5856   15.4212 H         1 UNK         0.0766 
    103 H103      -57.8827  -29.7646   17.4325 H         1 UNK         0.0798 
    104 H104      -56.3405  -30.0662   16.6341 H         1 UNK         0.0798 
    105 H105      -57.8103  -30.8001   16.0160 H         1 UNK         0.0798 
    106 H106      -57.9790  -26.7418   16.3167 H         1 UNK         0.3198 
    107 H107      -56.4772  -24.9605   16.6608 H         1 UNK         0.0843 
    108 H108      -55.8289  -26.3847   19.3176 H         1 UNK         0.0831 
    109 H109      -57.4401  -25.9504   18.7614 H         1 UNK         0.0831 
    110 H110      -56.2863  -24.6895   19.1632 H         1 UNK         0.0831 
    111 H111      -53.8288  -26.0565   17.3394 H         1 UNK         0.3133 
    112 H112      -52.2735  -23.1304   16.1163 H         1 UNK         0.0566 
    113 H113      -50.7322  -23.3935   18.0462 H         1 UNK         0.0814 
    114 H114      -52.2313  -22.6148   18.5302 H         1 UNK         0.0814 
    115 H115      -51.9596  -24.3031   18.9280 H         1 UNK         0.0814 
    116 H116      -51.4472  -24.9457   15.2690 H         1 UNK         0.3091 
    117 H117      -50.5525  -28.1850   16.4676 H         1 UNK         0.0702 
    118 H118      -51.2898  -28.6927   14.1558 H         1 UNK         0.0785 
    119 H119      -52.1182  -27.1415   14.0480 H         1 UNK         0.0785 
    120 H120      -52.6805  -28.3700   15.1774 H         1 UNK         0.0785 
    121 H121      -49.6740  -26.6862   14.2056 H         1 UNK         0.2998 
    122 H122      -46.7951  -25.2279   15.8056 H         1 UNK         0.0697 
    123 H123      -47.1501  -27.3810   13.6533 H         1 UNK         0.0825 
    124 H124      -46.2045  -27.5624   15.1250 H         1 UNK         0.0825 
    125 H125      -45.7137  -26.3927   13.9106 H         1 UNK         0.0825 
    126 H126      -47.7382  -25.0080   13.1357 H         1 UNK         0.3029 
    127 H127      -49.7855  -22.0918   13.6571 H         1 UNK         0.0897 
    128 H128      -48.2927  -21.3161   11.8159 H         1 UNK         0.0792 
    129 H129      -47.1345  -22.5879   12.1997 H         1 UNK         0.0792 
    130 H130      -47.4482  -21.3038   13.3570 H         1 UNK         0.0792 
    131 H131      -49.3198  -23.5328   11.2782 H         1 UNK         0.3086 
    132 H132      -52.0313  -25.8739   11.6194 H         1 UNK         0.0583 
    133 H133      -52.6707  -23.4738   10.7507 H         1 UNK         0.1020 
    134 H134      -51.4148  -23.6721    9.5725 H         1 UNK         0.1020 
    135 H135      -52.6599  -25.4837    6.9128 H         1 UNK         0.0694 
    136 H136      -51.2600  -25.4980    7.9523 H         1 UNK         0.0694 
    137 H137      -49.9520  -25.5836    9.6663 H         1 UNK         0.2989 
    138 H138      -47.5728  -27.7527   11.1722 H         1 UNK         0.1055 
    139 H139      -49.1418  -29.2698    9.9743 H         1 UNK         0.0806 
    140 H140      -47.7680  -28.8587    8.9596 H         1 UNK         0.0806 
    141 H141      -49.3310  -28.0935    8.6882 H         1 UNK         0.0806 
    142 H142      -47.7370  -26.1816    8.7263 H         1 UNK         0.3061 
    143 H143      -46.1467  -23.2927   10.1011 H         1 UNK         0.0734 
    144 H144      -44.3715  -23.7560    8.4405 H         1 UNK         0.0832 
    145 H145      -44.2051  -24.8541    9.7994 H         1 UNK         0.0832 
    146 H146      -44.9000  -25.4325    8.2915 H         1 UNK         0.0832 
    147 H147      -46.7064  -23.9762    7.4111 H         1 UNK         0.3156 
    148 H148      -50.1706  -23.5184    7.3005 H         1 UNK         0.0589 
    149 H149      -48.1325  -21.4424    6.3449 H         1 UNK         0.0808 
    150 H150      -49.7842  -21.6340    5.7539 H         1 UNK         0.0808 
    151 H151      -49.4964  -21.1126    7.4038 H         1 UNK         0.0808 
    152 H152      -48.4959  -23.6394    5.1099 H         1 UNK         0.3098 
    153 H153      -48.8457  -26.2077    4.0791 H         1 UNK         0.0720 
    154 H154      -46.4750  -25.8768    3.2077 H         1 UNK         0.0791 
    155 H155      -46.0105  -25.1967    4.7613 H         1 UNK         0.0791 
    156 H156      -47.1767  -24.3668    3.7338 H         1 UNK         0.0791 
    157 H157      -47.4422  -27.6130    6.1185 H         1 UNK         0.3028 
@<TRIPOS>BOND
     1    1    2 1    
     2    1   82 1    
     3    1   83 1    
     4    1   84 1    
     5    2    3 2    
     6    2    4 am   BACKBONE|DICT|INTERRES
     7    4    5 1    
     8    4   85 1    
     9    5    6 1    
    10    5   80 1    
    11    5   86 1    
    12    6    7 1    
    13    6   87 1    
    14    6   88 1    
    15    7    8 1    
    16    8    9 1    
    17    8   89 1    
    18    8   90 1    
    19    9   10 ar   
    20    9   14 ar   
    21   10   11 ar   
    22   10   91 1    
    23   11   12 ar   
    24   11   58 1    
    25   12   13 ar   
    26   12   92 1    
    27   13   14 ar   
    28   13   15 1    
    29   14   93 1    
    30   15   16 1    
    31   15   94 1    
    32   15   95 1    
    33   16   17 1    
    34   17   18 1    
    35   17   96 1    
    36   17   97 1    
    37   18   19 1    
    38   18   22 1    
    39   18   98 1    
    40   19   20 am   BACKBONE|DICT|INTERRES
    41   19   21 2    
    42   20   99 1    
    43   20  100 1    
    44   22   23 am   BACKBONE|DICT|INTERRES
    45   22  101 1    
    46   23   24 2    
    47   23   25 1    
    48   25   26 1    
    49   25   27 1    
    50   25  102 1    
    51   26  103 1    
    52   26  104 1    
    53   26  105 1    
    54   27   28 am   BACKBONE|DICT|INTERRES
    55   27  106 1    
    56   28   29 2    
    57   28   30 1    
    58   30   31 1    
    59   30   32 1    
    60   30  107 1    
    61   31  108 1    
    62   31  109 1    
    63   31  110 1    
    64   32   33 am   BACKBONE|DICT|INTERRES
    65   32  111 1    
    66   33   34 2    
    67   33   35 1    
    68   35   36 1    
    69   35   37 1    
    70   35  112 1    
    71   36  113 1    
    72   36  114 1    
    73   36  115 1    
    74   37   38 am   BACKBONE|DICT|INTERRES
    75   37  116 1    
    76   38   39 2    
    77   38   40 1    
    78   40   41 1    
    79   40   42 1    
    80   40  117 1    
    81   41  118 1    
    82   41  119 1    
    83   41  120 1    
    84   42   43 am   BACKBONE|DICT|INTERRES
    85   42  121 1    
    86   43   44 2    
    87   43   45 1    
    88   45   46 1    
    89   45   47 1    
    90   45  122 1    
    91   46  123 1    
    92   46  124 1    
    93   46  125 1    
    94   47   48 am   BACKBONE|DICT|INTERRES
    95   47  126 1    
    96   48   49 2    
    97   48   50 1    
    98   50   51 1    
    99   50   52 1    
   100   50  127 1    
   101   51  128 1    
   102   51  129 1    
   103   51  130 1    
   104   52   53 am   BACKBONE|DICT|INTERRES
   105   52  131 1    
   106   53   54 2    
   107   53   55 1    
   108   55   56 1    
   109   55   59 1    
   110   55  132 1    
   111   56   57 1    
   112   56  133 1    
   113   56  134 1    
   114   57   58 1    
   115   58  135 1    
   116   58  136 1    
   117   59   60 am   BACKBONE|DICT|INTERRES
   118   59  137 1    
   119   60   61 2    
   120   60   62 1    
   121   62   63 1    
   122   62   64 1    
   123   62  138 1    
   124   63  139 1    
   125   63  140 1    
   126   63  141 1    
   127   64   65 am   BACKBONE|DICT|INTERRES
   128   64  142 1    
   129   65   66 2    
   130   65   67 1    
   131   67   68 1    
   132   67   69 1    
   133   67  143 1    
   134   68  144 1    
   135   68  145 1    
   136   68  146 1    
   137   69   70 am   BACKBONE|DICT|INTERRES
   138   69  147 1    
   139   70   71 2    
   140   70   72 1    
   141   72   73 1    
   142   72   74 1    
   143   72  148 1    
   144   73  149 1    
   145   73  150 1    
   146   73  151 1    
   147   74   75 am   BACKBONE|DICT|INTERRES
   148   74  152 1    
   149   75   76 2    
   150   75   77 1    
   151   77   78 1    
   152   77   79 1    
   153   77  153 1    
   154   78  154 1    
   155   78  155 1    
   156   78  156 1    
   157   79   80 am   BACKBONE|DICT|INTERRES
   158   79  157 1    
   159   80   81 2    
@<TRIPOS>SUBSTRUCTURE
     1 UNK         1 GROUP             0       ****    0 ROOT    
