@<TRIPOS>MOLECULE
3R207
157   159    1
SMALL
USER_CHARGES


@<TRIPOS>ATOM
      1 CA        -51.7250  -24.6344    1.8712 C.3       0 UNK        -0.1975 
      2 C         -50.8169  -25.1365    2.9840 C.2       0 UNK         0.4852 
      3 O         -50.1366  -26.1443    2.7947 O.2       0 UNK        -0.5216 
      4 N         -50.7988  -24.4220    4.1199 N.am      1 UNK        -0.4461 
      5 CA        -50.0826  -24.6427    5.3910 C.3       1 UNK         0.0864 
      6 C6        -50.6687  -25.7810    6.2727 C.3       14 UNK        -0.0898 
      7 S7        -50.2887  -27.4869    5.7397 S.3       14 UNK        -0.2598 
      8 C8        -51.8187  -28.3596    6.1930 C.3       14 UNK         0.0286 
      9 C9        -51.9477  -28.5302    7.6999 C.ar      14 UNK        -0.0844 
     10 C10       -51.0524  -29.3546    8.3864 C.ar      14 UNK        -0.0881 
     11 C11       -51.1705  -29.5442    9.7655 C.ar      14 UNK        -0.0643 
     12 C12       -52.2038  -28.9100   10.4611 C.ar      14 UNK        -0.0930 
     13 C13       -53.1130  -28.0907    9.7827 C.ar      14 UNK        -0.0827 
     14 C14       -52.9747  -27.8957    8.4046 C.ar      14 UNK        -0.1249 
     15 C15       -54.2587  -27.4348   10.5344 C.3       14 UNK         0.0141 
     16 S16       -55.7500  -28.4738   10.4548 S.3       14 UNK        -0.2313 
     17 C17       -56.9526  -27.5038   11.4308 C.3       14 UNK        -0.0915 
     18 CA        -56.5557  -27.2887   12.9215 C.3       13 UNK         0.0968 
     19 C         -57.6223  -26.5036   13.7420 C.2       13 UNK         0.5732 
     20 N         -57.5636  -26.5289   15.0684 N.am      13 UNK        -0.7310 
     21 O         -58.4987  -25.8488   13.1819 O.2       13 UNK        -0.5035 
     22 N         -56.0827  -28.5180   13.5741 N.am      13 UNK        -0.4233 
     23 C         -56.8002  -29.6004   13.8977 C.2       13 UNK         0.4989 
     24 O         -58.0045  -29.7221   13.6706 O.2       13 UNK        -0.4996 
     25 CA        -56.0601  -30.7432   14.6270 C.3       12 UNK         0.0216 
     26 CB        -55.6306  -31.8463   13.6386 C.3       12 UNK        -0.1964 
     27 N         -54.9395  -30.2922   15.4726 N.am      12 UNK        -0.4276 
     28 C         -53.7741  -29.7535   15.0879 C.2       12 UNK         0.5020 
     29 O         -53.4095  -29.6522   13.9153 O.2       12 UNK        -0.5489 
     30 CA        -52.9361  -29.0869   16.1847 C.3       11 UNK         0.0294 
     31 CB        -51.5062  -29.6489   16.2264 C.3       11 UNK        -0.2019 
     32 N         -52.8857  -27.6500   15.9202 N.am      11 UNK        -0.4493 
     33 C         -53.9108  -26.7998   16.0756 C.2       11 UNK         0.4932 
     34 O         -55.0110  -27.1353   16.5200 O.2       11 UNK        -0.5029 
     35 CA        -53.6732  -25.3428   15.6294 C.3       10 UNK         0.0280 
     36 CB        -54.6624  -24.3441   16.2655 C.3       10 UNK        -0.1976 
     37 N         -52.2854  -24.9069   15.8196 N.am      10 UNK        -0.4242 
     38 C         -51.6049  -24.8096   16.9728 C.2       10 UNK         0.5072 
     39 O         -52.1015  -24.9983   18.0842 O.2       10 UNK        -0.5224 
     40 CA        -50.1022  -24.4783   16.8819 C.3       9 UNK         0.0343 
     41 CB        -49.2683  -25.7291   17.2068 C.3       9 UNK        -0.2003 
     42 N         -49.6883  -23.9593   15.5750 N.am      9 UNK        -0.4272 
     43 C         -49.9723  -22.7326   15.1147 C.2       9 UNK         0.4988 
     44 O         -50.5530  -21.8703   15.7746 O.2       9 UNK        -0.5108 
     45 CA        -49.5723  -22.4278   13.6607 C.3       8 UNK         0.0248 
     46 CB        -48.0940  -22.0143   13.5788 C.3       8 UNK        -0.2001 
     47 N         -49.8220  -23.5494   12.7497 N.am      8 UNK        -0.4140 
     48 C         -51.0303  -24.0617   12.4728 C.2       8 UNK         0.5028 
     49 O         -52.0837  -23.6215   12.9320 O.2       8 UNK        -0.5428 
     50 CA        -51.0711  -25.3120   11.5808 C.3       7 UNK         0.0264 
     51 CB        -50.9250  -24.9554   10.0946 C.3       7 UNK        -0.1988 
     52 N         -50.0547  -26.2931   11.9579 N.am      7 UNK        -0.4454 
     53 C         -50.0791  -26.9993   13.0965 C.2       7 UNK         0.5027 
     54 O         -50.9786  -26.9167   13.9330 O.2       7 UNK        -0.5083 
     55 CA        -48.8726  -27.9124   13.3850 C.3       6 UNK         0.0844 
     56 C56       -49.0780  -29.3505   12.8494 C.3       14 UNK        -0.0967 
     57 S57       -48.7292  -29.5524   11.0669 S.3       14 UNK        -0.2604 
     58 C58       -50.1949  -30.4608   10.4848 C.3       14 UNK         0.0134 
     59 N         -47.6009  -27.3192   12.9602 N.am      6 UNK        -0.4116 
     60 C         -47.0619  -26.2224   13.5062 C.2       5 UNK         0.5034 
     61 O         -47.5786  -25.5876   14.4253 O.2       5 UNK        -0.5045 
     62 CA        -45.7370  -25.7318   12.9068 C.3       5 UNK         0.0224 
     63 CB        -44.5730  -26.6430   13.3284 C.3       5 UNK        -0.1978 
     64 N         -45.7457  -25.5884   11.4475 N.am      5 UNK        -0.4737 
     65 C         -46.5836  -24.8216   10.7389 C.2       4 UNK         0.5027 
     66 O         -47.5850  -24.2851   11.2091 O.2       4 UNK        -0.5211 
     67 CA        -46.2217  -24.5671    9.2670 C.3       4 UNK         0.0297 
     68 CB        -44.7879  -24.0198    9.1107 C.3       4 UNK        -0.1993 
     69 N         -46.4529  -25.7039    8.3733 N.am      4 UNK        -0.4486 
     70 C         -45.8854  -26.9204    8.3928 C.2       3 UNK         0.4961 
     71 O         -45.0819  -27.2962    9.2471 O.2       3 UNK        -0.5105 
     72 CA        -46.2573  -27.8810    7.2451 C.3       3 UNK         0.0299 
     73 CB        -47.3655  -28.8435    7.6963 C.3       3 UNK        -0.1972 
     74 N         -46.6864  -27.1897    6.0249 N.am      3 UNK        -0.4305 
     75 C         -45.8898  -26.4378    5.2484 C.2       2 UNK         0.5006 
     76 O         -44.6731  -26.3405    5.4120 O.2       2 UNK        -0.5106 
     77 CA        -46.5544  -25.6357    4.1112 C.3       2 UNK         0.0296 
     78 CB        -46.3550  -26.3471    2.7633 C.3       2 UNK        -0.2002 
     79 N         -47.9848  -25.3786    4.3071 N.am      2 UNK        -0.4032 
     80 C         -48.5399  -24.7039    5.3213 C.2       1 UNK         0.5000 
     81 O         -47.8823  -24.1739    6.2184 O.2       1 UNK        -0.5238 
     82 H82       -51.1374  -24.4056    0.9825 H         1 UNK         0.0889 
     83 H83       -52.2688  -23.7349    2.1593 H         1 UNK         0.0889 
     84 H84       -52.4537  -25.4012    1.6096 H         1 UNK         0.0889 
     85 H85       -51.3735  -23.5906    4.1351 H         1 UNK         0.3028 
     86 H86       -50.2831  -23.7211    5.9405 H         1 UNK         0.0864 
     87 H87       -51.7501  -25.6588    6.3475 H         1 UNK         0.0720 
     88 H88       -50.2940  -25.6774    7.2913 H         1 UNK         0.0720 
     89 H89       -51.8117  -29.3447    5.7246 H         1 UNK         0.0814 
     90 H90       -52.6788  -27.8319    5.7780 H         1 UNK         0.0814 
     91 H91       -50.2610  -29.8515    7.8421 H         1 UNK         0.1469 
     92 H92       -52.3090  -29.0650   11.5268 H         1 UNK         0.1381 
     93 H93       -53.6804  -27.2663    7.8799 H         1 UNK         0.1206 
     94 H94       -53.9703  -27.2840   11.5750 H         1 UNK         0.0813 
     95 H95       -54.4710  -26.4488   10.1181 H         1 UNK         0.0813 
     96 H96       -57.9121  -28.0203   11.3713 H         1 UNK         0.0638 
     97 H97       -57.0945  -26.5428   10.9336 H         1 UNK         0.0638 
     98 H98       -55.6964  -26.6193   12.9252 H         1 UNK         0.0568 
     99 H99       -58.2538  -26.0223   15.5988 H         1 UNK         0.3450 
    100 H100      -56.8052  -27.0001   15.5477 H         1 UNK         0.3450 
    101 H101      -55.0856  -28.5737   13.7461 H         1 UNK         0.2987 
    102 H102      -56.7831  -31.1856   15.3143 H         1 UNK         0.0766 
    103 H103      -55.1274  -32.6661   14.1510 H         1 UNK         0.0798 
    104 H104      -54.9587  -31.4673   12.8677 H         1 UNK         0.0798 
    105 H105      -56.4982  -32.2656   13.1276 H         1 UNK         0.0798 
    106 H106      -55.1513  -30.2635   16.4613 H         1 UNK         0.3198 
    107 H107      -53.4014  -29.2495   17.1593 H         1 UNK         0.0843 
    108 H108      -50.9867  -29.4977   15.2807 H         1 UNK         0.0831 
    109 H109      -51.5143  -30.7208   16.4272 H         1 UNK         0.0831 
    110 H110      -50.9165  -29.1740   17.0107 H         1 UNK         0.0831 
    111 H111      -52.0755  -27.3177   15.4012 H         1 UNK         0.3133 
    112 H112      -53.8418  -25.3294   14.5518 H         1 UNK         0.0566 
    113 H113      -54.4631  -23.3250   15.9345 H         1 UNK         0.0814 
    114 H114      -55.6899  -24.5778   15.9863 H         1 UNK         0.0814 
    115 H115      -54.6115  -24.3604   17.3545 H         1 UNK         0.0814 
    116 H116      -51.7740  -24.7364   14.9628 H         1 UNK         0.3091 
    117 H117      -49.8882  -23.7181   17.6361 H         1 UNK         0.0702 
    118 H118      -48.2014  -25.5054   17.2089 H         1 UNK         0.0785 
    119 H119      -49.4422  -26.5261   16.4829 H         1 UNK         0.0785 
    120 H120      -49.5184  -26.1232   18.1927 H         1 UNK         0.0785 
    121 H121      -49.1287  -24.5811   14.9967 H         1 UNK         0.2998 
    122 H122      -50.1801  -21.5870   13.3203 H         1 UNK         0.0697 
    123 H123      -47.4303  -22.8276   13.8746 H         1 UNK         0.0825 
    124 H124      -47.8872  -21.1674   14.2344 H         1 UNK         0.0825 
    125 H125      -47.8223  -21.7153   12.5663 H         1 UNK         0.0825 
    126 H126      -49.0064  -23.9463   12.2836 H         1 UNK         0.3029 
    127 H127      -52.0488  -25.7771   11.7180 H         1 UNK         0.0897 
    128 H128      -51.0451  -25.8434    9.4746 H         1 UNK         0.0792 
    129 H129      -49.9527  -24.5153    9.8710 H         1 UNK         0.0792 
    130 H130      -51.6888  -24.2399    9.7875 H         1 UNK         0.0792 
    131 H131      -49.2626  -26.3971   11.3407 H         1 UNK         0.3086 
    132 H132      -48.8232  -27.9955   14.4731 H         1 UNK         0.0583 
    133 H133      -48.4092  -30.0267   13.3841 H         1 UNK         0.1020 
    134 H134      -50.0847  -29.7028   13.0820 H         1 UNK         0.1020 
    135 H135      -49.8620  -31.2456    9.8038 H         1 UNK         0.0694 
    136 H136      -50.6905  -30.9772   11.3078 H         1 UNK         0.0694 
    137 H137      -47.1288  -27.7695   12.1890 H         1 UNK         0.2989 
    138 H138      -45.5529  -24.7387   13.3223 H         1 UNK         0.1055 
    139 H139      -44.5441  -26.7656   14.4123 H         1 UNK         0.0806 
    140 H140      -43.6130  -26.2233   13.0272 H         1 UNK         0.0806 
    141 H141      -44.6554  -27.6378   12.8886 H         1 UNK         0.0806 
    142 H142      -45.0259  -26.0782   10.9268 H         1 UNK         0.3061 
    143 H143      -46.8985  -23.7844    8.9194 H         1 UNK         0.0734 
    144 H144      -44.6024  -23.6981    8.0857 H         1 UNK         0.0832 
    145 H145      -44.6286  -23.1539    9.7547 H         1 UNK         0.0832 
    146 H146      -44.0293  -24.7597    9.3666 H         1 UNK         0.0832 
    147 H147      -47.0797  -25.4940    7.6037 H         1 UNK         0.3156 
    148 H148      -45.3699  -28.4695    7.0030 H         1 UNK         0.0589 
    149 H149      -48.2613  -28.3065    8.0111 H         1 UNK         0.0808 
    150 H150      -47.6470  -29.5339    6.9010 H         1 UNK         0.0808 
    151 H151      -47.0328  -29.4450    8.5430 H         1 UNK         0.0808 
    152 H152      -47.6710  -27.2342    5.7990 H         1 UNK         0.3098 
    153 H153      -46.0532  -24.6668    4.0662 H         1 UNK         0.0720 
    154 H154      -46.7355  -25.7457    1.9375 H         1 UNK         0.0791 
    155 H155      -46.8651  -27.3111    2.7385 H         1 UNK         0.0791 
    156 H156      -45.2972  -26.5307    2.5690 H         1 UNK         0.0791 
    157 H157      -48.6320  -25.7994    3.6395 H         1 UNK         0.3028 
@<TRIPOS>BOND
     1    1    2 1    
     2    1   82 1    
     3    1   83 1    
     4    1   84 1    
     5    2    3 2    
     6    2    4 am   BACKBONE|DICT|INTERRES
     7    4    5 1    
     8    4   85 1    
     9    5    6 1    
    10    5   80 1    
    11    5   86 1    
    12    6    7 1    
    13    6   87 1    
    14    6   88 1    
    15    7    8 1    
    16    8    9 1    
    17    8   89 1    
    18    8   90 1    
    19    9   10 ar   
    20    9   14 ar   
    21   10   11 ar   
    22   10   91 1    
    23   11   12 ar   
    24   11   58 1    
    25   12   13 ar   
    26   12   92 1    
    27   13   14 ar   
    28   13   15 1    
    29   14   93 1    
    30   15   16 1    
    31   15   94 1    
    32   15   95 1    
    33   16   17 1    
    34   17   18 1    
    35   17   96 1    
    36   17   97 1    
    37   18   19 1    
    38   18   22 1    
    39   18   98 1    
    40   19   20 am   BACKBONE|DICT|INTERRES
    41   19   21 2    
    42   20   99 1    
    43   20  100 1    
    44   22   23 am   BACKBONE|DICT|INTERRES
    45   22  101 1    
    46   23   24 2    
    47   23   25 1    
    48   25   26 1    
    49   25   27 1    
    50   25  102 1    
    51   26  103 1    
    52   26  104 1    
    53   26  105 1    
    54   27   28 am   BACKBONE|DICT|INTERRES
    55   27  106 1    
    56   28   29 2    
    57   28   30 1    
    58   30   31 1    
    59   30   32 1    
    60   30  107 1    
    61   31  108 1    
    62   31  109 1    
    63   31  110 1    
    64   32   33 am   BACKBONE|DICT|INTERRES
    65   32  111 1    
    66   33   34 2    
    67   33   35 1    
    68   35   36 1    
    69   35   37 1    
    70   35  112 1    
    71   36  113 1    
    72   36  114 1    
    73   36  115 1    
    74   37   38 am   BACKBONE|DICT|INTERRES
    75   37  116 1    
    76   38   39 2    
    77   38   40 1    
    78   40   41 1    
    79   40   42 1    
    80   40  117 1    
    81   41  118 1    
    82   41  119 1    
    83   41  120 1    
    84   42   43 am   BACKBONE|DICT|INTERRES
    85   42  121 1    
    86   43   44 2    
    87   43   45 1    
    88   45   46 1    
    89   45   47 1    
    90   45  122 1    
    91   46  123 1    
    92   46  124 1    
    93   46  125 1    
    94   47   48 am   BACKBONE|DICT|INTERRES
    95   47  126 1    
    96   48   49 2    
    97   48   50 1    
    98   50   51 1    
    99   50   52 1    
   100   50  127 1    
   101   51  128 1    
   102   51  129 1    
   103   51  130 1    
   104   52   53 am   BACKBONE|DICT|INTERRES
   105   52  131 1    
   106   53   54 2    
   107   53   55 1    
   108   55   56 1    
   109   55   59 1    
   110   55  132 1    
   111   56   57 1    
   112   56  133 1    
   113   56  134 1    
   114   57   58 1    
   115   58  135 1    
   116   58  136 1    
   117   59   60 am   BACKBONE|DICT|INTERRES
   118   59  137 1    
   119   60   61 2    
   120   60   62 1    
   121   62   63 1    
   122   62   64 1    
   123   62  138 1    
   124   63  139 1    
   125   63  140 1    
   126   63  141 1    
   127   64   65 am   BACKBONE|DICT|INTERRES
   128   64  142 1    
   129   65   66 2    
   130   65   67 1    
   131   67   68 1    
   132   67   69 1    
   133   67  143 1    
   134   68  144 1    
   135   68  145 1    
   136   68  146 1    
   137   69   70 am   BACKBONE|DICT|INTERRES
   138   69  147 1    
   139   70   71 2    
   140   70   72 1    
   141   72   73 1    
   142   72   74 1    
   143   72  148 1    
   144   73  149 1    
   145   73  150 1    
   146   73  151 1    
   147   74   75 am   BACKBONE|DICT|INTERRES
   148   74  152 1    
   149   75   76 2    
   150   75   77 1    
   151   77   78 1    
   152   77   79 1    
   153   77  153 1    
   154   78  154 1    
   155   78  155 1    
   156   78  156 1    
   157   79   80 am   BACKBONE|DICT|INTERRES
   158   79  157 1    
   159   80   81 2    
@<TRIPOS>SUBSTRUCTURE
     1 UNK         1 GROUP             0       ****    0 ROOT    
