@<TRIPOS>MOLECULE
3R207
157   159    1
SMALL
USER_CHARGES


@<TRIPOS>ATOM
      1 CA        -46.0630  -26.7173   11.6834 C.3       0 UNK        -0.1975 
      2 C         -46.9573  -26.9853   10.4833 C.2       0 UNK         0.4852 
      3 O         -48.1413  -26.6468   10.5134 O.2       0 UNK        -0.5216 
      4 N         -46.3730  -27.5839    9.4350 N.am      1 UNK        -0.4461 
      5 CA        -46.9497  -27.8373    8.1039 C.3       1 UNK         0.0864 
      6 C6        -48.2878  -28.6282    8.1164 C.3       14 UNK        -0.0898 
      7 S7        -48.1310  -30.2333    8.9696 S.3       14 UNK        -0.2598 
      8 C8        -49.6757  -31.0671    8.4851 C.3       14 UNK         0.0286 
      9 C9        -50.9137  -30.3601    9.0213 C.ar      14 UNK        -0.0844 
     10 C10       -51.7985  -29.7279    8.1421 C.ar      14 UNK        -0.0881 
     11 C11       -52.9505  -29.1015    8.6253 C.ar      14 UNK        -0.0643 
     12 C12       -53.2076  -29.0989    9.9986 C.ar      14 UNK        -0.0930 
     13 C13       -52.3248  -29.7130   10.8890 C.ar      14 UNK        -0.0827 
     14 C14       -51.1863  -30.3558   10.3936 C.ar      14 UNK        -0.1249 
     15 C15       -52.6138  -29.6636   12.3800 C.3       14 UNK         0.0141 
     16 S16       -53.9197  -30.8438   12.8318 S.3       14 UNK        -0.2313 
     17 C17       -54.5269  -30.1427   14.4023 C.3       14 UNK        -0.0915 
     18 CA        -55.8289  -29.3184   14.2070 C.3       13 UNK         0.0968 
     19 C         -56.5436  -29.0315   15.5607 C.2       13 UNK         0.5732 
     20 N         -56.8367  -27.7883   15.9274 N.am      13 UNK        -0.7310 
     21 O         -56.8563  -29.9657   16.2949 O.2       13 UNK        -0.5035 
     22 N         -55.5927  -28.1135   13.3967 N.am      13 UNK        -0.4233 
     23 C         -56.5077  -27.5424   12.6017 C.2       13 UNK         0.4989 
     24 O         -57.6138  -28.0361   12.3747 O.2       13 UNK        -0.4996 
     25 CA        -56.1296  -26.1930   11.9510 C.3       12 UNK         0.0216 
     26 CB        -57.3637  -25.3338   11.6037 C.3       12 UNK        -0.1964 
     27 N         -55.1600  -25.4083   12.7271 N.am      12 UNK        -0.4276 
     28 C         -55.2913  -24.9855   13.9918 C.2       12 UNK         0.5020 
     29 O         -56.2886  -25.1805   14.6906 O.2       12 UNK        -0.5489 
     30 CA        -54.0674  -24.2882   14.6086 C.3       11 UNK         0.0294 
     31 CB        -54.4164  -22.8609   15.0602 C.3       11 UNK        -0.2019 
     32 N         -53.5378  -25.0462   15.7472 N.am      11 UNK        -0.4493 
     33 C         -53.1121  -26.3148   15.6928 C.2       11 UNK         0.4932 
     34 O         -53.0847  -26.9899   14.6579 O.2       11 UNK        -0.5029 
     35 CA        -52.6427  -26.9415   17.0103 C.3       10 UNK         0.0280 
     36 CB        -53.8446  -27.3502   17.8842 C.3       10 UNK        -0.1976 
     37 N         -51.8349  -28.1029   16.6604 N.am      10 UNK        -0.4242 
     38 C         -51.1192  -28.8880   17.4712 C.2       10 UNK         0.5072 
     39 O         -51.0363  -28.7380   18.6907 O.2       10 UNK        -0.5224 
     40 CA        -50.3556  -30.0377   16.7912 C.3       9 UNK         0.0343 
     41 CB        -51.2550  -31.2767   16.6479 C.3       9 UNK        -0.2003 
     42 N         -49.8370  -29.6573   15.4732 N.am      9 UNK        -0.4272 
     43 C         -48.7729  -28.8635   15.2874 C.2       9 UNK         0.4988 
     44 O         -48.0812  -28.4214   16.2053 O.2       9 UNK        -0.5108 
     45 CA        -48.4219  -28.5080   13.8328 C.3       8 UNK         0.0248 
     46 CB        -48.3216  -29.7533   12.9342 C.3       8 UNK        -0.2001 
     47 N         -49.3581  -27.5369   13.2539 N.am      8 UNK        -0.4140 
     48 C         -49.4183  -26.2448   13.6111 C.2       8 UNK         0.5028 
     49 O         -48.6930  -25.7465   14.4734 O.2       8 UNK        -0.5428 
     50 CA        -50.4416  -25.3534   12.8871 C.3       7 UNK         0.0264 
     51 CB        -50.1363  -23.8473   13.0287 C.3       7 UNK        -0.1988 
     52 N         -50.6047  -25.6962   11.4700 N.am      7 UNK        -0.4454 
     53 C         -51.7482  -25.4966   10.8002 C.2       7 UNK         0.5027 
     54 O         -52.7718  -25.0681   11.3399 O.2       7 UNK        -0.5083 
     55 CA        -51.7584  -25.7530    9.2822 C.3       6 UNK         0.0844 
     56 C56       -53.2154  -25.9096    8.7437 C.3       14 UNK        -0.0967 
     57 S57       -53.3307  -26.7847    7.1475 S.3       14 UNK        -0.2604 
     58 C58       -53.9194  -28.4273    7.6654 C.3       14 UNK         0.0134 
     59 N         -51.0716  -24.6194    8.6676 N.am      6 UNK        -0.4116 
     60 C         -50.5128  -24.5819    7.4539 C.2       5 UNK         0.5034 
     61 O         -50.3751  -25.5570    6.7159 O.2       5 UNK        -0.5045 
     62 CA        -50.0425  -23.2026    6.9578 C.3       5 UNK         0.0224 
     63 CB        -51.1424  -22.1242    7.0624 C.3       5 UNK        -0.1978 
     64 N         -48.7916  -22.7706    7.5842 N.am      5 UNK        -0.4737 
     65 C         -48.5500  -22.5128    8.8785 C.2       4 UNK         0.5027 
     66 O         -49.4278  -22.4689    9.7421 O.2       4 UNK        -0.5211 
     67 CA        -47.0778  -22.2829    9.2721 C.3       4 UNK         0.0297 
     68 CB        -46.7660  -22.8534   10.6675 C.3       4 UNK        -0.1993 
     69 N         -46.1841  -22.9078    8.2933 N.am      4 UNK        -0.4486 
     70 C         -45.2317  -22.2851    7.5869 C.2       3 UNK         0.4961 
     71 O         -44.9320  -21.1006    7.7402 O.2       3 UNK        -0.5105 
     72 CA        -44.4849  -23.1077    6.5145 C.3       3 UNK         0.0299 
     73 CB        -43.1354  -23.5967    7.0649 C.3       3 UNK        -0.1972 
     74 N         -45.2345  -24.2584    5.9969 N.am      3 UNK        -0.4305 
     75 C         -46.3944  -24.1917    5.3264 C.2       2 UNK         0.5006 
     76 O         -46.9423  -23.1336    5.0158 O.2       2 UNK        -0.5106 
     77 CA        -47.1010  -25.5236    4.9971 C.3       2 UNK         0.0296 
     78 CB        -46.6893  -26.0115    3.5986 C.3       2 UNK        -0.2002 
     79 N         -46.9152  -26.6160    5.9676 N.am      2 UNK        -0.4032 
     80 C         -47.0758  -26.5270    7.2976 C.2       1 UNK         0.5000 
     81 O         -47.2821  -25.4609    7.8777 O.2       1 UNK        -0.5238 
     82 H82       -45.1676  -26.1749   11.3811 H         1 UNK         0.0889 
     83 H83       -45.7604  -27.6538   12.1505 H         1 UNK         0.0889 
     84 H84       -46.5835  -26.1137   12.4264 H         1 UNK         0.0889 
     85 H85       -45.3956  -27.8253    9.5144 H         1 UNK         0.3028 
     86 H86       -46.2109  -28.4525    7.5877 H         1 UNK         0.0864 
     87 H87       -49.0852  -28.0527    8.5894 H         1 UNK         0.0720 
     88 H88       -48.6231  -28.8194    7.0954 H         1 UNK         0.0720 
     89 H89       -49.7122  -31.1504    7.3978 H         1 UNK         0.0814 
     90 H90       -49.6574  -32.0887    8.8672 H         1 UNK         0.0814 
     91 H91       -51.5962  -29.7235    7.0797 H         1 UNK         0.1469 
     92 H92       -54.0983  -28.6200   10.3809 H         1 UNK         0.1381 
     93 H93       -50.5069  -30.8542   11.0690 H         1 UNK         0.1206 
     94 H94       -51.7177  -29.8814   12.9596 H         1 UNK         0.0813 
     95 H95       -52.9163  -28.6505   12.6439 H         1 UNK         0.0813 
     96 H96       -54.7025  -30.9866   15.0717 H         1 UNK         0.0638 
     97 H97       -53.7492  -29.5428   14.8744 H         1 UNK         0.0638 
     98 H98       -56.5247  -29.9580   13.6607 H         1 UNK         0.0568 
     99 H99       -56.6096  -26.9881   15.3449 H         1 UNK         0.3450 
    100 H100      -57.3114  -27.6419   16.8030 H         1 UNK         0.3450 
    101 H101      -54.7253  -27.6233   13.5844 H         1 UNK         0.2987 
    102 H102      -55.6331  -26.4458   11.0144 H         1 UNK         0.0766 
    103 H103      -57.0732  -24.3981   11.1261 H         1 UNK         0.0798 
    104 H104      -58.0254  -25.8560   10.9115 H         1 UNK         0.0798 
    105 H105      -57.9483  -25.0900   12.4915 H         1 UNK         0.0798 
    106 H106      -54.2713  -25.2302   12.2539 H         1 UNK         0.3198 
    107 H107      -53.2801  -24.2178   13.8565 H         1 UNK         0.0843 
    108 H108      -55.1791  -22.8588   15.8402 H         1 UNK         0.0831 
    109 H109      -54.8029  -22.2735   14.2262 H         1 UNK         0.0831 
    110 H110      -53.5397  -22.3387   15.4437 H         1 UNK         0.0831 
    111 H111      -53.5548  -24.5799   16.6427 H         1 UNK         0.3133 
    112 H112      -52.0181  -26.2208   17.5415 H         1 UNK         0.0566 
    113 H113      -54.4072  -28.1670   17.4330 H         1 UNK         0.0814 
    114 H114      -54.5347  -26.5183   18.0302 H         1 UNK         0.0814 
    115 H115      -53.5260  -27.6766   18.8740 H         1 UNK         0.0814 
    116 H116      -51.8302  -28.2852   15.6647 H         1 UNK         0.3091 
    117 H117      -49.5133  -30.3037   17.4338 H         1 UNK         0.0702 
    118 H118      -50.7008  -32.1233   16.2421 H         1 UNK         0.0785 
    119 H119      -52.1072  -31.0900   15.9942 H         1 UNK         0.0785 
    120 H120      -51.6497  -31.5850   17.6171 H         1 UNK         0.0785 
    121 H121      -50.3270  -30.0147   14.6682 H         1 UNK         0.2998 
    122 H122      -47.4341  -28.0451   13.8533 H         1 UNK         0.0697 
    123 H123      -49.2652  -30.2899   12.8603 H         1 UNK         0.0825 
    124 H124      -47.5813  -30.4533   13.3236 H         1 UNK         0.0825 
    125 H125      -48.0108  -29.4875   11.9241 H         1 UNK         0.0825 
    126 H126      -49.9588  -27.8579   12.5091 H         1 UNK         0.3029 
    127 H127      -51.3819  -25.5471   13.4001 H         1 UNK         0.0897 
    128 H128      -50.9163  -23.2353   12.5757 H         1 UNK         0.0792 
    129 H129      -50.0681  -23.5521   14.0764 H         1 UNK         0.0792 
    130 H130      -49.1917  -23.5896   12.5495 H         1 UNK         0.0792 
    131 H131      -49.7660  -26.0292   10.9873 H         1 UNK         0.3086 
    132 H132      -51.1927  -26.6689    9.0981 H         1 UNK         0.0583 
    133 H133      -53.8455  -26.4425    9.4546 H         1 UNK         0.1020 
    134 H134      -53.6852  -24.9305    8.6341 H         1 UNK         0.1020 
    135 H135      -54.9077  -28.3309    8.1179 H         1 UNK         0.0694 
    136 H136      -54.0500  -29.0511    6.7800 H         1 UNK         0.0694 
    137 H137      -50.9972  -23.7836    9.2382 H         1 UNK         0.2989 
    138 H138      -49.8137  -23.3224    5.8972 H         1 UNK         0.1055 
    139 H139      -50.8277  -21.1966    6.5845 H         1 UNK         0.0806 
    140 H140      -51.4071  -21.8908    8.0936 H         1 UNK         0.0806 
    141 H141      -52.0541  -22.4521    6.5612 H         1 UNK         0.0806 
    142 H142      -47.9888  -22.7874    6.9665 H         1 UNK         0.3061 
    143 H143      -46.9237  -21.2025    9.2964 H         1 UNK         0.0734 
    144 H144      -47.3416  -22.3387   11.4374 H         1 UNK         0.0832 
    145 H145      -47.0138  -23.9137   10.7280 H         1 UNK         0.0832 
    146 H146      -45.7122  -22.7375   10.9200 H         1 UNK         0.0832 
    147 H147      -46.4040  -23.8830    8.0848 H         1 UNK         0.3156 
    148 H148      -44.2882  -22.4398    5.6733 H         1 UNK         0.0589 
    149 H149      -43.2661  -24.2897    7.8970 H         1 UNK         0.0808 
    150 H150      -42.5497  -24.0997    6.2951 H         1 UNK         0.0808 
    151 H151      -42.5364  -22.7607    7.4291 H         1 UNK         0.0808 
    152 H152      -44.8674  -25.1727    6.2164 H         1 UNK         0.3098 
    153 H153      -48.1715  -25.3107    4.9758 H         1 UNK         0.0720 
    154 H154      -47.2832  -26.8706    3.2858 H         1 UNK         0.0791 
    155 H155      -46.8387  -25.2303    2.8516 H         1 UNK         0.0791 
    156 H156      -45.6374  -26.2981    3.5646 H         1 UNK         0.0791 
    157 H157      -46.7276  -27.5257    5.5708 H         1 UNK         0.3028 
@<TRIPOS>BOND
     1    1    2 1    
     2    1   82 1    
     3    1   83 1    
     4    1   84 1    
     5    2    3 2    
     6    2    4 am   BACKBONE|DICT|INTERRES
     7    4    5 1    
     8    4   85 1    
     9    5    6 1    
    10    5   80 1    
    11    5   86 1    
    12    6    7 1    
    13    6   87 1    
    14    6   88 1    
    15    7    8 1    
    16    8    9 1    
    17    8   89 1    
    18    8   90 1    
    19    9   10 ar   
    20    9   14 ar   
    21   10   11 ar   
    22   10   91 1    
    23   11   12 ar   
    24   11   58 1    
    25   12   13 ar   
    26   12   92 1    
    27   13   14 ar   
    28   13   15 1    
    29   14   93 1    
    30   15   16 1    
    31   15   94 1    
    32   15   95 1    
    33   16   17 1    
    34   17   18 1    
    35   17   96 1    
    36   17   97 1    
    37   18   19 1    
    38   18   22 1    
    39   18   98 1    
    40   19   20 am   BACKBONE|DICT|INTERRES
    41   19   21 2    
    42   20   99 1    
    43   20  100 1    
    44   22   23 am   BACKBONE|DICT|INTERRES
    45   22  101 1    
    46   23   24 2    
    47   23   25 1    
    48   25   26 1    
    49   25   27 1    
    50   25  102 1    
    51   26  103 1    
    52   26  104 1    
    53   26  105 1    
    54   27   28 am   BACKBONE|DICT|INTERRES
    55   27  106 1    
    56   28   29 2    
    57   28   30 1    
    58   30   31 1    
    59   30   32 1    
    60   30  107 1    
    61   31  108 1    
    62   31  109 1    
    63   31  110 1    
    64   32   33 am   BACKBONE|DICT|INTERRES
    65   32  111 1    
    66   33   34 2    
    67   33   35 1    
    68   35   36 1    
    69   35   37 1    
    70   35  112 1    
    71   36  113 1    
    72   36  114 1    
    73   36  115 1    
    74   37   38 am   BACKBONE|DICT|INTERRES
    75   37  116 1    
    76   38   39 2    
    77   38   40 1    
    78   40   41 1    
    79   40   42 1    
    80   40  117 1    
    81   41  118 1    
    82   41  119 1    
    83   41  120 1    
    84   42   43 am   BACKBONE|DICT|INTERRES
    85   42  121 1    
    86   43   44 2    
    87   43   45 1    
    88   45   46 1    
    89   45   47 1    
    90   45  122 1    
    91   46  123 1    
    92   46  124 1    
    93   46  125 1    
    94   47   48 am   BACKBONE|DICT|INTERRES
    95   47  126 1    
    96   48   49 2    
    97   48   50 1    
    98   50   51 1    
    99   50   52 1    
   100   50  127 1    
   101   51  128 1    
   102   51  129 1    
   103   51  130 1    
   104   52   53 am   BACKBONE|DICT|INTERRES
   105   52  131 1    
   106   53   54 2    
   107   53   55 1    
   108   55   56 1    
   109   55   59 1    
   110   55  132 1    
   111   56   57 1    
   112   56  133 1    
   113   56  134 1    
   114   57   58 1    
   115   58  135 1    
   116   58  136 1    
   117   59   60 am   BACKBONE|DICT|INTERRES
   118   59  137 1    
   119   60   61 2    
   120   60   62 1    
   121   62   63 1    
   122   62   64 1    
   123   62  138 1    
   124   63  139 1    
   125   63  140 1    
   126   63  141 1    
   127   64   65 am   BACKBONE|DICT|INTERRES
   128   64  142 1    
   129   65   66 2    
   130   65   67 1    
   131   67   68 1    
   132   67   69 1    
   133   67  143 1    
   134   68  144 1    
   135   68  145 1    
   136   68  146 1    
   137   69   70 am   BACKBONE|DICT|INTERRES
   138   69  147 1    
   139   70   71 2    
   140   70   72 1    
   141   72   73 1    
   142   72   74 1    
   143   72  148 1    
   144   73  149 1    
   145   73  150 1    
   146   73  151 1    
   147   74   75 am   BACKBONE|DICT|INTERRES
   148   74  152 1    
   149   75   76 2    
   150   75   77 1    
   151   77   78 1    
   152   77   79 1    
   153   77  153 1    
   154   78  154 1    
   155   78  155 1    
   156   78  156 1    
   157   79   80 am   BACKBONE|DICT|INTERRES
   158   79  157 1    
   159   80   81 2    
@<TRIPOS>SUBSTRUCTURE
     1 UNK         1 GROUP             0       ****    0 ROOT    
