@<TRIPOS>MOLECULE
3R207
157   159    1
SMALL
USER_CHARGES


@<TRIPOS>ATOM
      1 CA        -51.9840  -24.8044    9.7548 C.3       0 UNK        -0.1975 
      2 C         -53.3097  -24.8654    9.0107 C.2       0 UNK         0.4852 
      3 O         -54.2606  -24.2101    9.4329 O.2       0 UNK        -0.5216 
      4 N         -53.4516  -25.6576    7.9416 N.am      1 UNK        -0.4461 
      5 CA        -52.4472  -26.5323    7.3249 C.3       1 UNK         0.0864 
      6 C6        -53.1327  -27.6391    6.4804 C.3       14 UNK        -0.0898 
      7 S7        -54.2163  -28.7329    7.4566 S.3       14 UNK        -0.2598 
      8 C8        -53.3894  -30.3455    7.2757 C.3       14 UNK         0.0286 
      9 C9        -52.3137  -30.5452    8.3317 C.ar      14 UNK        -0.0844 
     10 C10       -50.9938  -30.1445    8.1011 C.ar      14 UNK        -0.0881 
     11 C11       -50.0147  -30.3280    9.0846 C.ar      14 UNK        -0.0643 
     12 C12       -50.3604  -30.9460   10.2910 C.ar      14 UNK        -0.0930 
     13 C13       -51.6725  -31.3670   10.5238 C.ar      14 UNK        -0.0827 
     14 C14       -52.6446  -31.1562    9.5431 C.ar      14 UNK        -0.1249 
     15 C15       -52.0410  -32.0760   11.8203 C.3       14 UNK         0.0141 
     16 S16       -51.8559  -31.0254   13.2982 S.3       14 UNK        -0.2313 
     17 C17       -52.7497  -29.4932   12.8660 C.3       14 UNK        -0.0915 
     18 CA        -54.2453  -29.6523   12.4738 C.3       13 UNK         0.0968 
     19 C         -55.1581  -29.9987   13.6901 C.2       13 UNK         0.5732 
     20 N         -56.0591  -29.1244   14.1272 N.am      13 UNK        -0.7310 
     21 O         -55.0710  -31.0965   14.2337 O.2       13 UNK        -0.5035 
     22 N         -54.6932  -28.4862   11.6998 N.am      13 UNK        -0.4233 
     23 C         -55.7980  -28.4554   10.9399 C.2       13 UNK         0.4989 
     24 O         -56.4713  -29.4560   10.6864 O.2       13 UNK        -0.4996 
     25 CA        -56.2411  -27.0819   10.3823 C.3       12 UNK         0.0216 
     26 CB        -57.7730  -26.9810   10.2257 C.3       12 UNK        -0.1964 
     27 N         -55.7298  -25.9259   11.1344 N.am      12 UNK        -0.4276 
     28 C         -55.8832  -25.6790   12.4416 C.2       12 UNK         0.5020 
     29 O         -56.5522  -26.3803   13.2055 O.2       12 UNK        -0.5489 
     30 CA        -55.1040  -24.4801   13.0083 C.3       11 UNK         0.0294 
     31 CB        -56.0492  -23.3064   13.3079 C.3       11 UNK        -0.2019 
     32 N         -54.4005  -24.8711   14.2326 N.am      11 UNK        -0.4493 
     33 C         -53.4091  -25.7713   14.2711 C.2       11 UNK         0.4932 
     34 O         -52.8857  -26.2509   13.2631 O.2       11 UNK        -0.5029 
     35 CA        -52.9920  -26.2558   15.6654 C.3       10 UNK         0.0280 
     36 CB        -54.0359  -27.2574   16.2079 C.3       10 UNK        -0.1976 
     37 N         -51.6560  -26.8542   15.6130 N.am      10 UNK        -0.4242 
     38 C         -50.9697  -27.3357   16.6603 C.2       10 UNK         0.5072 
     39 O         -51.4003  -27.3746   17.8139 O.2       10 UNK        -0.5224 
     40 CA        -49.5340  -27.8108   16.3929 C.3       9 UNK         0.0343 
     41 CB        -49.4940  -29.0574   15.4923 C.3       9 UNK        -0.2003 
     42 N         -48.7531  -26.7220   15.8084 N.am      9 UNK        -0.4272 
     43 C         -48.2252  -25.7182   16.5271 C.2       9 UNK         0.4988 
     44 O         -48.1981  -25.7007   17.7587 O.2       9 UNK        -0.5108 
     45 CA        -47.6347  -24.5190   15.7629 C.3       8 UNK         0.0248 
     46 CB        -46.1151  -24.6853   15.5999 C.3       8 UNK        -0.2001 
     47 N         -48.2416  -24.2968   14.4497 N.am      8 UNK        -0.4140 
     48 C         -49.5291  -23.9982   14.2249 C.2       8 UNK         0.5028 
     49 O         -50.3487  -23.7698   15.1146 O.2       8 UNK        -0.5428 
     50 CA        -49.9908  -23.9909   12.7569 C.3       7 UNK         0.0264 
     51 CB        -49.8487  -22.5832   12.1579 C.3       7 UNK        -0.1988 
     52 N         -49.2901  -24.9644   11.9078 N.am      7 UNK        -0.4454 
     53 C         -49.2946  -26.2945   12.1014 C.2       7 UNK         0.5027 
     54 O         -49.8571  -26.8451   13.0465 O.2       7 UNK        -0.5083 
     55 CA        -48.5080  -27.1420   11.0842 C.3       6 UNK         0.0844 
     56 C56       -49.3164  -27.2844    9.7706 C.3       14 UNK        -0.0967 
     57 S57       -48.4306  -28.1126    8.4082 S.3       14 UNK        -0.2604 
     58 C58       -48.5777  -29.8756    8.8513 C.3       14 UNK         0.0134 
     59 N         -47.1767  -26.5673   10.8907 N.am      6 UNK        -0.4116 
     60 C         -46.1683  -26.6825   11.7669 C.2       5 UNK         0.5034 
     61 O         -46.2176  -27.3725   12.7851 O.2       5 UNK        -0.5045 
     62 CA        -44.8953  -25.8658   11.4773 C.3       5 UNK         0.0224 
     63 CB        -43.9113  -26.6880   10.6299 C.3       5 UNK        -0.1978 
     64 N         -45.1652  -24.5906   10.8059 N.am      5 UNK        -0.4737 
     65 C         -45.8802  -23.5857   11.3325 C.2       4 UNK         0.5027 
     66 O         -46.3262  -23.5959   12.4770 O.2       4 UNK        -0.5211 
     67 CA        -46.2066  -22.3979   10.4103 C.3       4 UNK         0.0297 
     68 CB        -45.1526  -21.2916   10.5703 C.3       4 UNK        -0.1993 
     69 N         -46.3225  -22.7659    8.9957 N.am      4 UNK        -0.4486 
     70 C         -47.1775  -23.6679    8.4947 C.2       3 UNK         0.4961 
     71 O         -48.0082  -24.2860    9.1684 O.2       3 UNK        -0.5105 
     72 CA        -47.0127  -23.9704    7.0038 C.3       3 UNK         0.0299 
     73 CB        -45.6659  -24.6742    6.7347 C.3       3 UNK        -0.1972 
     74 N         -48.1026  -24.8222    6.5363 N.am      3 UNK        -0.4305 
     75 C         -48.4956  -24.9095    5.2608 C.2       2 UNK         0.5006 
     76 O         -48.0402  -24.2057    4.3576 O.2       2 UNK        -0.5106 
     77 CA        -49.5344  -25.9819    4.9014 C.3       2 UNK         0.0296 
     78 CB        -48.8290  -27.2235    4.3293 C.3       2 UNK        -0.2002 
     79 N         -50.3924  -26.4042    6.0098 N.am      2 UNK        -0.4032 
     80 C         -51.4813  -25.7392    6.4174 C.2       1 UNK         0.5000 
     81 O         -51.7662  -24.5977    6.0462 O.2       1 UNK        -0.5238 
     82 H82       -51.1569  -24.5788    9.0832 H         1 UNK         0.0889 
     83 H83       -51.7982  -25.7440   10.2731 H         1 UNK         0.0889 
     84 H84       -52.0184  -24.0161   10.5052 H         1 UNK         0.0889 
     85 H85       -54.3396  -25.6454    7.4619 H         1 UNK         0.3028 
     86 H86       -51.8635  -27.0125    8.1122 H         1 UNK         0.0864 
     87 H87       -52.3930  -28.2521    5.9635 H         1 UNK         0.0720 
     88 H88       -53.7424  -27.1927    5.6920 H         1 UNK         0.0720 
     89 H89       -52.9739  -30.4571    6.2732 H         1 UNK         0.0814 
     90 H90       -54.1432  -31.1288    7.3697 H         1 UNK         0.0814 
     91 H91       -50.7266  -29.6849    7.1605 H         1 UNK         0.1469 
     92 H92       -49.6099  -31.1040   11.0536 H         1 UNK         0.1381 
     93 H93       -53.6631  -31.4762    9.7156 H         1 UNK         0.1206 
     94 H94       -51.4011  -32.9516   11.9365 H         1 UNK         0.0813 
     95 H95       -53.0618  -32.4585   11.7816 H         1 UNK         0.0813 
     96 H96       -52.6512  -28.8109   13.7095 H         1 UNK         0.0638 
     97 H97       -52.1954  -29.0252   12.0504 H         1 UNK         0.0638 
     98 H98       -54.3278  -30.5041   11.8008 H         1 UNK         0.0568 
     99 H99       -56.6482  -29.3805   14.9023 H         1 UNK         0.3450 
    100 H100      -56.1678  -28.2104   13.6965 H         1 UNK         0.3450 
    101 H101      -54.2043  -27.6219   11.8908 H         1 UNK         0.2987 
    102 H102      -55.8039  -27.0093    9.3862 H         1 UNK         0.0766 
    103 H103      -58.1513  -27.7495    9.5504 H         1 UNK         0.0798 
    104 H104      -58.2847  -27.1058   11.1806 H         1 UNK         0.0798 
    105 H105      -58.0667  -26.0167    9.8110 H         1 UNK         0.0798 
    106 H106      -55.1801  -25.2651   10.5846 H         1 UNK         0.3198 
    107 H107      -54.3598  -24.1522   12.2788 H         1 UNK         0.0843 
    108 H108      -55.5045  -22.4458   13.6966 H         1 UNK         0.0831 
    109 H109      -56.8143  -23.5791   14.0363 H         1 UNK         0.0831 
    110 H110      -56.5632  -22.9816   12.4022 H         1 UNK         0.0831 
    111 H111      -54.8057  -24.5592   15.1032 H         1 UNK         0.3133 
    112 H112      -52.9468  -25.3850   16.3222 H         1 UNK         0.0566 
    113 H113      -53.9281  -28.2360   15.7424 H         1 UNK         0.0814 
    114 H114      -53.9410  -27.3931   17.2846 H         1 UNK         0.0814 
    115 H115      -55.0576  -26.9204   16.0266 H         1 UNK         0.0814 
    116 H116      -51.2256  -26.8460   14.6906 H         1 UNK         0.3091 
    117 H117      -49.0867  -28.0903   17.3495 H         1 UNK         0.0702 
    118 H118      -48.4692  -29.3776   15.3045 H         1 UNK         0.0785 
    119 H119      -49.9723  -28.8919   14.5280 H         1 UNK         0.0785 
    120 H120      -50.0136  -29.8912   15.9658 H         1 UNK         0.0785 
    121 H121      -48.7809  -26.6435   14.7980 H         1 UNK         0.2998 
    122 H122      -47.8195  -23.6263   16.3637 H         1 UNK         0.0697 
    123 H123      -45.8697  -25.5379   14.9654 H         1 UNK         0.0825 
    124 H124      -45.6320  -24.8451   16.5648 H         1 UNK         0.0825 
    125 H125      -45.6641  -23.7973   15.1567 H         1 UNK         0.0825 
    126 H126      -47.6151  -24.3407   13.6495 H         1 UNK         0.3029 
    127 H127      -51.0481  -24.2624   12.7495 H         1 UNK         0.0897 
    128 H128      -48.8338  -22.2028   12.2693 H         1 UNK         0.0792 
    129 H129      -50.5112  -21.8811   12.6656 H         1 UNK         0.0792 
    130 H130      -50.1031  -22.5631   11.0982 H         1 UNK         0.0792 
    131 H131      -48.7928  -24.5966   11.1037 H         1 UNK         0.3086 
    132 H132      -48.3897  -28.1420   11.5074 H         1 UNK         0.0583 
    133 H133      -50.2569  -27.8035    9.9639 H         1 UNK         0.1020 
    134 H134      -49.5942  -26.3034    9.3905 H         1 UNK         0.1020 
    135 H135      -48.1450  -30.4758    8.0499 H         1 UNK         0.0694 
    136 H136      -47.9654  -30.0586    9.7357 H         1 UNK         0.0694 
    137 H137      -47.0723  -25.9473   10.0983 H         1 UNK         0.2989 
    138 H138      -44.4253  -25.6445   12.4384 H         1 UNK         0.1055 
    139 H139      -43.6737  -27.6346   11.1179 H         1 UNK         0.0806 
    140 H140      -42.9707  -26.1563   10.4850 H         1 UNK         0.0806 
    141 H141      -44.3210  -26.9228    9.6465 H         1 UNK         0.0806 
    142 H142      -44.8265  -24.4892    9.8604 H         1 UNK         0.3061 
    143 H143      -47.1716  -21.9946   10.7185 H         1 UNK         0.0734 
    144 H144      -44.1648  -21.6226   10.2471 H         1 UNK         0.0832 
    145 H145      -45.4162  -20.4040    9.9948 H         1 UNK         0.0832 
    146 H146      -45.0673  -20.9840   11.6137 H         1 UNK         0.0832 
    147 H147      -45.6803  -22.3112    8.3620 H         1 UNK         0.3156 
    148 H148      -47.0429  -23.0180    6.4703 H         1 UNK         0.0589 
    149 H149      -45.5987  -25.6264    7.2630 H         1 UNK         0.0808 
    150 H150      -45.5283  -24.8761    5.6722 H         1 UNK         0.0808 
    151 H151      -44.8198  -24.0629    7.0499 H         1 UNK         0.0808 
    152 H152      -48.5454  -25.3867    7.2487 H         1 UNK         0.3098 
    153 H153      -50.1682  -25.5652    4.1151 H         1 UNK         0.0720 
    154 H154      -49.5482  -27.9645    3.9798 H         1 UNK         0.0791 
    155 H155      -48.1864  -27.7008    5.0707 H         1 UNK         0.0791 
    156 H156      -48.2010  -26.9591    3.4771 H         1 UNK         0.0791 
    157 H157      -50.2042  -27.3220    6.3864 H         1 UNK         0.3028 
@<TRIPOS>BOND
     1    1    2 1    
     2    1   82 1    
     3    1   83 1    
     4    1   84 1    
     5    2    3 2    
     6    2    4 am   BACKBONE|DICT|INTERRES
     7    4    5 1    
     8    4   85 1    
     9    5    6 1    
    10    5   80 1    
    11    5   86 1    
    12    6    7 1    
    13    6   87 1    
    14    6   88 1    
    15    7    8 1    
    16    8    9 1    
    17    8   89 1    
    18    8   90 1    
    19    9   10 ar   
    20    9   14 ar   
    21   10   11 ar   
    22   10   91 1    
    23   11   12 ar   
    24   11   58 1    
    25   12   13 ar   
    26   12   92 1    
    27   13   14 ar   
    28   13   15 1    
    29   14   93 1    
    30   15   16 1    
    31   15   94 1    
    32   15   95 1    
    33   16   17 1    
    34   17   18 1    
    35   17   96 1    
    36   17   97 1    
    37   18   19 1    
    38   18   22 1    
    39   18   98 1    
    40   19   20 am   BACKBONE|DICT|INTERRES
    41   19   21 2    
    42   20   99 1    
    43   20  100 1    
    44   22   23 am   BACKBONE|DICT|INTERRES
    45   22  101 1    
    46   23   24 2    
    47   23   25 1    
    48   25   26 1    
    49   25   27 1    
    50   25  102 1    
    51   26  103 1    
    52   26  104 1    
    53   26  105 1    
    54   27   28 am   BACKBONE|DICT|INTERRES
    55   27  106 1    
    56   28   29 2    
    57   28   30 1    
    58   30   31 1    
    59   30   32 1    
    60   30  107 1    
    61   31  108 1    
    62   31  109 1    
    63   31  110 1    
    64   32   33 am   BACKBONE|DICT|INTERRES
    65   32  111 1    
    66   33   34 2    
    67   33   35 1    
    68   35   36 1    
    69   35   37 1    
    70   35  112 1    
    71   36  113 1    
    72   36  114 1    
    73   36  115 1    
    74   37   38 am   BACKBONE|DICT|INTERRES
    75   37  116 1    
    76   38   39 2    
    77   38   40 1    
    78   40   41 1    
    79   40   42 1    
    80   40  117 1    
    81   41  118 1    
    82   41  119 1    
    83   41  120 1    
    84   42   43 am   BACKBONE|DICT|INTERRES
    85   42  121 1    
    86   43   44 2    
    87   43   45 1    
    88   45   46 1    
    89   45   47 1    
    90   45  122 1    
    91   46  123 1    
    92   46  124 1    
    93   46  125 1    
    94   47   48 am   BACKBONE|DICT|INTERRES
    95   47  126 1    
    96   48   49 2    
    97   48   50 1    
    98   50   51 1    
    99   50   52 1    
   100   50  127 1    
   101   51  128 1    
   102   51  129 1    
   103   51  130 1    
   104   52   53 am   BACKBONE|DICT|INTERRES
   105   52  131 1    
   106   53   54 2    
   107   53   55 1    
   108   55   56 1    
   109   55   59 1    
   110   55  132 1    
   111   56   57 1    
   112   56  133 1    
   113   56  134 1    
   114   57   58 1    
   115   58  135 1    
   116   58  136 1    
   117   59   60 am   BACKBONE|DICT|INTERRES
   118   59  137 1    
   119   60   61 2    
   120   60   62 1    
   121   62   63 1    
   122   62   64 1    
   123   62  138 1    
   124   63  139 1    
   125   63  140 1    
   126   63  141 1    
   127   64   65 am   BACKBONE|DICT|INTERRES
   128   64  142 1    
   129   65   66 2    
   130   65   67 1    
   131   67   68 1    
   132   67   69 1    
   133   67  143 1    
   134   68  144 1    
   135   68  145 1    
   136   68  146 1    
   137   69   70 am   BACKBONE|DICT|INTERRES
   138   69  147 1    
   139   70   71 2    
   140   70   72 1    
   141   72   73 1    
   142   72   74 1    
   143   72  148 1    
   144   73  149 1    
   145   73  150 1    
   146   73  151 1    
   147   74   75 am   BACKBONE|DICT|INTERRES
   148   74  152 1    
   149   75   76 2    
   150   75   77 1    
   151   77   78 1    
   152   77   79 1    
   153   77  153 1    
   154   78  154 1    
   155   78  155 1    
   156   78  156 1    
   157   79   80 am   BACKBONE|DICT|INTERRES
   158   79  157 1    
   159   80   81 2    
@<TRIPOS>SUBSTRUCTURE
     1 UNK         1 GROUP             0       ****    0 ROOT    
