@<TRIPOS>MOLECULE
3R207
157   159    1
SMALL
USER_CHARGES


@<TRIPOS>ATOM
      1 CA        -45.8049  -26.6701   11.5442 C.3       0 UNK        -0.1975 
      2 C         -45.9991  -27.3485   10.1959 C.2       0 UNK         0.4852 
      3 O         -45.0280  -27.8432    9.6214 O.2       0 UNK        -0.5216 
      4 N         -47.2421  -27.3793    9.6931 N.am      1 UNK        -0.4461 
      5 CA        -47.6595  -28.0427    8.4495 C.3       1 UNK         0.0864 
      6 C6        -49.1871  -27.9357    8.2212 C.3       14 UNK        -0.0898 
      7 S7        -50.1215  -28.9615    9.4072 S.3       14 UNK        -0.2598 
      8 C8        -51.3981  -29.7174    8.3456 C.3       14 UNK         0.0286 
      9 C9        -52.6535  -28.8587    8.2923 C.ar      14 UNK        -0.0844 
     10 C10       -52.6552  -27.6501    7.5902 C.ar      14 UNK        -0.0881 
     11 C11       -53.7832  -26.8249    7.6021 C.ar      14 UNK        -0.0643 
     12 C12       -54.9306  -27.2369    8.2859 C.ar      14 UNK        -0.0930 
     13 C13       -54.9476  -28.4491    8.9801 C.ar      14 UNK        -0.0827 
     14 C14       -53.8089  -29.2599    8.9708 C.ar      14 UNK        -0.1249 
     15 C15       -56.1912  -28.8690    9.7509 C.3       14 UNK         0.0141 
     16 S16       -56.4793  -27.7896   11.1897 S.3       14 UNK        -0.2313 
     17 C17       -57.9915  -28.5344   11.8886 C.3       14 UNK        -0.0915 
     18 CA        -57.8540  -29.0388   13.3521 C.3       13 UNK         0.0968 
     19 C         -56.9271  -30.2772   13.5225 C.2       13 UNK         0.5732 
     20 N         -56.1805  -30.4047   14.6145 N.am      13 UNK        -0.7310 
     21 O         -56.9057  -31.1592   12.6674 O.2       13 UNK        -0.5035 
     22 N         -57.5389  -27.9441   14.2839 N.am      13 UNK        -0.4233 
     23 C         -58.3198  -27.5518   15.2995 C.2       13 UNK         0.4989 
     24 O         -59.4431  -28.0135   15.5120 O.2       13 UNK        -0.4996 
     25 CA        -57.7639  -26.4603   16.2424 C.3       12 UNK         0.0216 
     26 CB        -58.4095  -26.5070   17.6444 C.3       12 UNK        -0.1964 
     27 N         -56.2991  -26.4470   16.3612 N.am      12 UNK        -0.4276 
     28 C         -55.5075  -27.4604   16.7401 C.2       12 UNK         0.5020 
     29 O         -55.9097  -28.5893   17.0332 O.2       12 UNK        -0.5489 
     30 CA        -53.9958  -27.1793   16.7277 C.3       11 UNK         0.0294 
     31 CB        -53.3848  -27.3669   18.1255 C.3       11 UNK        -0.2019 
     32 N         -53.3026  -28.0457   15.7730 N.am      11 UNK        -0.4493 
     33 C         -53.5596  -28.0992   14.4601 C.2       11 UNK         0.4932 
     34 O         -54.3882  -27.3816   13.8962 O.2       11 UNK        -0.5029 
     35 CA        -52.7313  -29.1129   13.6617 C.3       10 UNK         0.0280 
     36 CB        -53.2382  -29.2946   12.2242 C.3       10 UNK        -0.1976 
     37 N         -51.3452  -28.6628   13.6076 N.am      10 UNK        -0.4242 
     38 C         -50.3619  -29.1035   14.4004 C.2       10 UNK         0.5072 
     39 O         -50.5278  -29.9243   15.3038 O.2       10 UNK        -0.5224 
     40 CA        -48.9630  -28.5252   14.1573 C.3       9 UNK         0.0343 
     41 CB        -48.3738  -29.0425   12.8357 C.3       9 UNK        -0.2003 
     42 N         -49.0007  -27.0630   14.1440 N.am      9 UNK        -0.4272 
     43 C         -48.4983  -26.2838   15.1119 C.2       9 UNK         0.4988 
     44 O         -47.8892  -26.7095   16.0942 O.2       9 UNK        -0.5108 
     45 CA        -48.7042  -24.7656   14.9701 C.3       8 UNK         0.0248 
     46 CB        -47.4845  -24.1177   14.2976 C.3       8 UNK        -0.2001 
     47 N         -49.9186  -24.4179   14.2285 N.am      8 UNK        -0.4140 
     48 C         -51.1622  -24.5833   14.7018 C.2       8 UNK         0.5028 
     49 O         -51.4080  -24.9812   15.8403 O.2       8 UNK        -0.5428 
     50 CA        -52.3361  -24.2503   13.7621 C.3       7 UNK         0.0264 
     51 CB        -53.0063  -22.9330   14.1858 C.3       7 UNK        -0.1988 
     52 N         -51.9914  -24.1743   12.3377 N.am      7 UNK        -0.4454 
     53 C         -51.5850  -25.2094   11.5881 C.2       7 UNK         0.5027 
     54 O         -51.3289  -26.3252   12.0434 O.2       7 UNK        -0.5083 
     55 CA        -51.3664  -24.9216   10.0897 C.3       6 UNK         0.0844 
     56 C56       -52.6752  -24.4720    9.3893 C.3       14 UNK        -0.0967 
     57 S57       -52.4516  -24.3661    7.5754 S.3       14 UNK        -0.2604 
     58 C58       -53.7543  -25.4647    6.9191 C.3       14 UNK         0.0134 
     59 N         -50.2852  -23.9546    9.8711 N.am      6 UNK        -0.4116 
     60 C         -49.0182  -24.0772   10.2818 C.2       5 UNK         0.5034 
     61 O         -48.5830  -25.0470   10.9036 O.2       5 UNK        -0.5045 
     62 CA        -48.0715  -22.9434    9.8772 C.3       5 UNK         0.0224 
     63 CB        -46.9492  -22.7027   10.9026 C.3       5 UNK        -0.1978 
     64 N         -47.4876  -23.2863    8.5861 N.am      5 UNK        -0.4737 
     65 C         -47.2038  -22.4128    7.6136 C.2       4 UNK         0.5027 
     66 O         -47.4035  -21.2000    7.6998 O.2       4 UNK        -0.5211 
     67 CA        -46.5929  -23.0140    6.3371 C.3       4 UNK         0.0297 
     68 CB        -46.1276  -21.9571    5.3119 C.3       4 UNK        -0.1993 
     69 N         -45.5348  -23.9804    6.6514 N.am      4 UNK        -0.4486 
     70 C         -44.3173  -23.7432    7.1678 C.2       3 UNK         0.4961 
     71 O         -43.8853  -22.6163    7.4118 O.2       3 UNK        -0.5105 
     72 CA        -43.4175  -24.9604    7.4864 C.3       3 UNK         0.0299 
     73 CB        -43.0637  -24.9924    8.9824 C.3       3 UNK        -0.1972 
     74 N         -44.0032  -26.2519    7.1112 N.am      3 UNK        -0.4305 
     75 C         -44.1537  -26.6911    5.8521 C.2       2 UNK         0.5006 
     76 O         -43.6833  -26.1152    4.8707 O.2       2 UNK        -0.5106 
     77 CA        -45.0125  -27.9528    5.6334 C.3       2 UNK         0.0296 
     78 CB        -44.1157  -29.1677    5.3440 C.3       2 UNK        -0.2002 
     79 N         -45.9214  -28.2806    6.7389 N.am      2 UNK        -0.4032 
     80 C         -46.8864  -27.4914    7.2363 C.2       1 UNK         0.5000 
     81 O         -47.1410  -26.3606    6.8144 O.2       1 UNK        -0.5238 
     82 H82       -45.1809  -27.2891   12.1881 H         1 UNK         0.0889 
     83 H83       -46.7527  -26.5099   12.0558 H         1 UNK         0.0889 
     84 H84       -45.3142  -25.7068   11.4217 H         1 UNK         0.0889 
     85 H85       -47.9722  -26.8754   10.1860 H         1 UNK         0.3028 
     86 H86       -47.4096  -29.1010    8.5514 H         1 UNK         0.0864 
     87 H87       -49.5172  -26.8991    8.2994 H         1 UNK         0.0720 
     88 H88       -49.4401  -28.2555    7.2089 H         1 UNK         0.0720 
     89 H89       -51.6351  -30.7027    8.7499 H         1 UNK         0.0814 
     90 H90       -51.0173  -29.8929    7.3389 H         1 UNK         0.0814 
     91 H91       -51.7646  -27.3265    7.0702 H         1 UNK         0.1469 
     92 H92       -55.8057  -26.6016    8.3063 H         1 UNK         0.1381 
     93 H93       -53.8146  -30.1947    9.5140 H         1 UNK         0.1206 
     94 H94       -57.0569  -28.8306    9.0883 H         1 UNK         0.0813 
     95 H95       -56.1034  -29.9019   10.0920 H         1 UNK         0.0813 
     96 H96       -58.3359  -29.3442   11.2432 H         1 UNK         0.0638 
     97 H97       -58.7770  -27.7788   11.8427 H         1 UNK         0.0638 
     98 H98       -58.8352  -29.4413   13.6074 H         1 UNK         0.0568 
     99 H99       -55.6091  -31.2270   14.7172 H         1 UNK         0.3450 
    100 H100      -56.2144  -29.7189   15.3609 H         1 UNK         0.3450 
    101 H101      -56.6126  -27.5452   14.1804 H         1 UNK         0.2987 
    102 H102      -58.0395  -25.5087   15.7855 H         1 UNK         0.0766 
    103 H103      -59.4908  -26.3759   17.5861 H         1 UNK         0.0798 
    104 H104      -58.0252  -25.7136   18.2855 H         1 UNK         0.0798 
    105 H105      -58.2231  -27.4596   18.1418 H         1 UNK         0.0798 
    106 H106      -55.8550  -25.5798   16.0911 H         1 UNK         0.3198 
    107 H107      -53.8259  -26.1459   16.4187 H         1 UNK         0.0843 
    108 H108      -53.4831  -28.3953   18.4756 H         1 UNK         0.0831 
    109 H109      -53.8795  -26.7251   18.8557 H         1 UNK         0.0831 
    110 H110      -52.3259  -27.1068   18.1319 H         1 UNK         0.0831 
    111 H111      -52.6046  -28.6734   16.1476 H         1 UNK         0.3133 
    112 H112      -52.8048  -30.0798   14.1636 H         1 UNK         0.0566 
    113 H113      -53.2281  -28.3547   11.6699 H         1 UNK         0.0814 
    114 H114      -54.2616  -29.6688   12.2149 H         1 UNK         0.0814 
    115 H115      -52.6238  -30.0097   11.6774 H         1 UNK         0.0814 
    116 H116      -51.1631  -27.9177   12.9376 H         1 UNK         0.3091 
    117 H117      -48.3224  -28.8881   14.9639 H         1 UNK         0.0702 
    118 H118      -47.3074  -28.8303   12.7740 H         1 UNK         0.0785 
    119 H119      -48.8577  -28.5856   11.9736 H         1 UNK         0.0785 
    120 H120      -48.4901  -30.1234   12.7447 H         1 UNK         0.0785 
    121 H121      -49.5131  -26.6250   13.3883 H         1 UNK         0.2998 
    122 H122      -48.7930  -24.3520   15.9771 H         1 UNK         0.0697 
    123 H123      -47.5797  -23.0325   14.2641 H         1 UNK         0.0825 
    124 H124      -47.3469  -24.4796   13.2792 H         1 UNK         0.0825 
    125 H125      -46.5701  -24.3437   14.8479 H         1 UNK         0.0825 
    126 H126      -49.8030  -24.0959   13.2790 H         1 UNK         0.3029 
    127 H127      -53.0666  -25.0532   13.8778 H         1 UNK         0.0897 
    128 H128      -52.3343  -22.0819   14.0684 H         1 UNK         0.0792 
    129 H129      -53.9050  -22.7377   13.6004 H         1 UNK         0.0792 
    130 H130      -53.3080  -22.9671   15.2338 H         1 UNK         0.0792 
    131 H131      -52.1299  -23.2793   11.8911 H         1 UNK         0.3086 
    132 H132      -51.0571  -25.8658    9.6396 H         1 UNK         0.0583 
    133 H133      -53.4920  -25.1536    9.6307 H         1 UNK         0.1020 
    134 H134      -52.9963  -23.4923    9.7470 H         1 UNK         0.1020 
    135 H135      -54.7160  -24.9595    7.0216 H         1 UNK         0.0694 
    136 H136      -53.5935  -25.6053    5.8495 H         1 UNK         0.0694 
    137 H137      -50.5332  -23.1488    9.3157 H         1 UNK         0.2989 
    138 H138      -48.6572  -22.0247    9.7935 H         1 UNK         0.1055 
    139 H139      -46.2955  -21.8892   10.5873 H         1 UNK         0.0806 
    140 H140      -46.3296  -23.5875   11.0453 H         1 UNK         0.0806 
    141 H141      -47.3630  -22.4242   11.8714 H         1 UNK         0.0806 
    142 H142      -47.3299  -24.2715    8.4155 H         1 UNK         0.3061 
    143 H143      -47.3909  -23.5897    5.8653 H         1 UNK         0.0734 
    144 H144      -45.3842  -21.2786    5.7308 H         1 UNK         0.0832 
    145 H145      -45.6960  -22.4251    4.4272 H         1 UNK         0.0832 
    146 H146      -46.9672  -21.3460    4.9787 H         1 UNK         0.0832 
    147 H147      -45.8215  -24.9502    6.5499 H         1 UNK         0.3156 
    148 H148      -42.4911  -24.8329    6.9227 H         1 UNK         0.0589 
    149 H149      -42.4338  -25.8478    9.2276 H         1 UNK         0.0808 
    150 H150      -43.9578  -25.0428    9.6024 H         1 UNK         0.0808 
    151 H151      -42.5175  -24.0946    9.2748 H         1 UNK         0.0808 
    152 H152      -44.3927  -26.8089    7.8650 H         1 UNK         0.3098 
    153 H153      -45.6310  -27.7666    4.7530 H         1 UNK         0.0720 
    154 H154      -43.4475  -28.9700    4.5045 H         1 UNK         0.0791 
    155 H155      -44.7067  -30.0460    5.0832 H         1 UNK         0.0791 
    156 H156      -43.4931  -29.4226    6.2027 H         1 UNK         0.0791 
    157 H157      -45.7565  -29.1675    7.1938 H         1 UNK         0.3028 
@<TRIPOS>BOND
     1    1    2 1    
     2    1   82 1    
     3    1   83 1    
     4    1   84 1    
     5    2    3 2    
     6    2    4 am   BACKBONE|DICT|INTERRES
     7    4    5 1    
     8    4   85 1    
     9    5    6 1    
    10    5   80 1    
    11    5   86 1    
    12    6    7 1    
    13    6   87 1    
    14    6   88 1    
    15    7    8 1    
    16    8    9 1    
    17    8   89 1    
    18    8   90 1    
    19    9   10 ar   
    20    9   14 ar   
    21   10   11 ar   
    22   10   91 1    
    23   11   12 ar   
    24   11   58 1    
    25   12   13 ar   
    26   12   92 1    
    27   13   14 ar   
    28   13   15 1    
    29   14   93 1    
    30   15   16 1    
    31   15   94 1    
    32   15   95 1    
    33   16   17 1    
    34   17   18 1    
    35   17   96 1    
    36   17   97 1    
    37   18   19 1    
    38   18   22 1    
    39   18   98 1    
    40   19   20 am   BACKBONE|DICT|INTERRES
    41   19   21 2    
    42   20   99 1    
    43   20  100 1    
    44   22   23 am   BACKBONE|DICT|INTERRES
    45   22  101 1    
    46   23   24 2    
    47   23   25 1    
    48   25   26 1    
    49   25   27 1    
    50   25  102 1    
    51   26  103 1    
    52   26  104 1    
    53   26  105 1    
    54   27   28 am   BACKBONE|DICT|INTERRES
    55   27  106 1    
    56   28   29 2    
    57   28   30 1    
    58   30   31 1    
    59   30   32 1    
    60   30  107 1    
    61   31  108 1    
    62   31  109 1    
    63   31  110 1    
    64   32   33 am   BACKBONE|DICT|INTERRES
    65   32  111 1    
    66   33   34 2    
    67   33   35 1    
    68   35   36 1    
    69   35   37 1    
    70   35  112 1    
    71   36  113 1    
    72   36  114 1    
    73   36  115 1    
    74   37   38 am   BACKBONE|DICT|INTERRES
    75   37  116 1    
    76   38   39 2    
    77   38   40 1    
    78   40   41 1    
    79   40   42 1    
    80   40  117 1    
    81   41  118 1    
    82   41  119 1    
    83   41  120 1    
    84   42   43 am   BACKBONE|DICT|INTERRES
    85   42  121 1    
    86   43   44 2    
    87   43   45 1    
    88   45   46 1    
    89   45   47 1    
    90   45  122 1    
    91   46  123 1    
    92   46  124 1    
    93   46  125 1    
    94   47   48 am   BACKBONE|DICT|INTERRES
    95   47  126 1    
    96   48   49 2    
    97   48   50 1    
    98   50   51 1    
    99   50   52 1    
   100   50  127 1    
   101   51  128 1    
   102   51  129 1    
   103   51  130 1    
   104   52   53 am   BACKBONE|DICT|INTERRES
   105   52  131 1    
   106   53   54 2    
   107   53   55 1    
   108   55   56 1    
   109   55   59 1    
   110   55  132 1    
   111   56   57 1    
   112   56  133 1    
   113   56  134 1    
   114   57   58 1    
   115   58  135 1    
   116   58  136 1    
   117   59   60 am   BACKBONE|DICT|INTERRES
   118   59  137 1    
   119   60   61 2    
   120   60   62 1    
   121   62   63 1    
   122   62   64 1    
   123   62  138 1    
   124   63  139 1    
   125   63  140 1    
   126   63  141 1    
   127   64   65 am   BACKBONE|DICT|INTERRES
   128   64  142 1    
   129   65   66 2    
   130   65   67 1    
   131   67   68 1    
   132   67   69 1    
   133   67  143 1    
   134   68  144 1    
   135   68  145 1    
   136   68  146 1    
   137   69   70 am   BACKBONE|DICT|INTERRES
   138   69  147 1    
   139   70   71 2    
   140   70   72 1    
   141   72   73 1    
   142   72   74 1    
   143   72  148 1    
   144   73  149 1    
   145   73  150 1    
   146   73  151 1    
   147   74   75 am   BACKBONE|DICT|INTERRES
   148   74  152 1    
   149   75   76 2    
   150   75   77 1    
   151   77   78 1    
   152   77   79 1    
   153   77  153 1    
   154   78  154 1    
   155   78  155 1    
   156   78  156 1    
   157   79   80 am   BACKBONE|DICT|INTERRES
   158   79  157 1    
   159   80   81 2    
@<TRIPOS>SUBSTRUCTURE
     1 UNK         1 GROUP             0       ****    0 ROOT    
