@<TRIPOS>MOLECULE
3R207
157   159    1
SMALL
USER_CHARGES


@<TRIPOS>ATOM
      1 CA        -46.0307  -30.9815    8.4935 C.3       0 UNK        -0.1975 
      2 C         -46.9234  -30.7391    7.2852 C.2       0 UNK         0.4852 
      3 O         -46.4585  -30.8515    6.1506 O.2       0 UNK        -0.5216 
      4 N         -48.2012  -30.4104    7.5235 N.am      1 UNK        -0.4461 
      5 CA        -49.2028  -30.0897    6.4979 C.3       1 UNK         0.0864 
      6 C6        -50.6174  -30.0214    7.1293 C.3       14 UNK        -0.0898 
      7 S7        -51.9849  -29.8630    5.9277 S.3       14 UNK        -0.2598 
      8 C8        -52.4161  -28.0948    6.0617 C.3       14 UNK         0.0286 
      9 C9        -53.2238  -27.7913    7.3167 C.ar      14 UNK        -0.0844 
     10 C10       -52.5839  -27.3647    8.4845 C.ar      14 UNK        -0.0881 
     11 C11       -53.3239  -27.0950    9.6373 C.ar      14 UNK        -0.0643 
     12 C12       -54.7148  -27.2092    9.6065 C.ar      14 UNK        -0.0930 
     13 C13       -55.3720  -27.6367    8.4483 C.ar      14 UNK        -0.0827 
     14 C14       -54.6167  -27.9264    7.3064 C.ar      14 UNK        -0.1249 
     15 C15       -56.8932  -27.7754    8.4080 C.3       14 UNK         0.0141 
     16 S16       -57.6311  -28.4083    9.9555 S.3       14 UNK        -0.2313 
     17 C17       -56.9226  -30.0864   10.0244 C.3       14 UNK        -0.0915 
     18 CA        -57.1735  -30.7811   11.3876 C.3       13 UNK         0.0968 
     19 C         -56.7156  -32.2648   11.3296 C.2       13 UNK         0.5732 
     20 N         -57.5926  -33.1688   10.9147 N.am      13 UNK        -0.7310 
     21 O         -55.5660  -32.5955   11.6161 O.2       13 UNK        -0.5035 
     22 N         -56.5532  -30.0412   12.4982 N.am      13 UNK        -0.4233 
     23 C         -56.7526  -30.3021   13.7973 C.2       13 UNK         0.4989 
     24 O         -57.5474  -31.1474   14.2118 O.2       13 UNK        -0.4996 
     25 CA        -55.9314  -29.4936   14.8185 C.3       12 UNK         0.0216 
     26 CB        -54.7005  -30.2962   15.2713 C.3       12 UNK        -0.1964 
     27 N         -55.4893  -28.1853   14.3305 N.am      12 UNK        -0.4276 
     28 C         -56.2754  -27.1210   14.1348 C.2       12 UNK         0.5020 
     29 O         -57.4907  -27.1254   14.3396 O.2       12 UNK        -0.5489 
     30 CA        -55.5719  -25.8352   13.6514 C.3       11 UNK         0.0294 
     31 CB        -56.5650  -24.7064   13.3194 C.3       11 UNK        -0.2019 
     32 N         -54.5774  -25.3297   14.6061 N.am      11 UNK        -0.4493 
     33 C         -53.3780  -25.8747   14.8522 C.2       11 UNK         0.4932 
     34 O         -52.9897  -26.9176   14.3193 O.2       11 UNK        -0.5029 
     35 CA        -52.4772  -25.1109   15.8420 C.3       10 UNK         0.0280 
     36 CB        -53.0714  -25.0802   17.2667 C.3       10 UNK        -0.1976 
     37 N         -51.0942  -25.6072   15.8254 N.am      10 UNK        -0.4242 
     38 C         -50.6213  -26.7677   16.3063 C.2       10 UNK         0.5072 
     39 O         -51.2646  -27.5426   17.0165 O.2       10 UNK        -0.5224 
     40 CA        -49.1877  -27.1630   15.9094 C.3       9 UNK         0.0343 
     41 CB        -49.2212  -28.1192   14.7053 C.3       9 UNK        -0.2003 
     42 N         -48.3010  -26.0392   15.5960 N.am      9 UNK        -0.4272 
     43 C         -47.7704  -25.2068   16.5029 C.2       9 UNK         0.4988 
     44 O         -48.0489  -25.2322   17.7021 O.2       9 UNK        -0.5108 
     45 CA        -46.7308  -24.1951   15.9943 C.3       8 UNK         0.0248 
     46 CB        -45.3812  -24.8881   15.7400 C.3       8 UNK        -0.2001 
     47 N         -47.1775  -23.5385   14.7659 N.am      8 UNK        -0.4140 
     48 C         -47.7797  -22.3417   14.7197 C.2       8 UNK         0.5028 
     49 O         -47.9492  -21.6212   15.7046 O.2       8 UNK        -0.5428 
     50 CA        -48.2956  -21.8574   13.3488 C.3       7 UNK         0.0264 
     51 CB        -47.2539  -20.9498   12.6749 C.3       7 UNK        -0.1988 
     52 N         -48.6646  -22.9323   12.4219 N.am      7 UNK        -0.4454 
     53 C         -49.5777  -23.8827   12.6677 C.2       7 UNK         0.5027 
     54 O         -50.2403  -23.9342   13.7029 O.2       7 UNK        -0.5083 
     55 CA        -49.7216  -25.0104   11.6247 C.3       6 UNK         0.0844 
     56 C56       -50.7723  -24.6672   10.5385 C.3       14 UNK        -0.0967 
     57 S57       -52.4744  -24.9238   11.1359 S.3       14 UNK        -0.2604 
     58 C58       -52.6294  -26.7244   10.9343 C.3       14 UNK         0.0134 
     59 N         -48.4427  -25.4245   11.0385 N.am      6 UNK        -0.4116 
     60 C         -47.3779  -25.8704   11.7224 C.2       5 UNK         0.5034 
     61 O         -47.3410  -25.9741   12.9482 O.2       5 UNK        -0.5045 
     62 CA        -46.1252  -26.2067   10.9024 C.3       5 UNK         0.0224 
     63 CB        -46.2609  -27.5749   10.2127 C.3       5 UNK        -0.1978 
     64 N         -45.8595  -25.1640    9.9105 N.am      5 UNK        -0.4737 
     65 C         -45.3135  -23.9754   10.2063 C.2       4 UNK         0.5027 
     66 O         -44.8735  -23.6821   11.3175 O.2       4 UNK        -0.5211 
     67 CA        -45.2762  -22.9262    9.0812 C.3       4 UNK         0.0297 
     68 CB        -43.9800  -23.0576    8.2660 C.3       4 UNK        -0.1993 
     69 N         -46.4299  -23.0049    8.1802 N.am      4 UNK        -0.4486 
     70 C         -47.6987  -22.7638    8.5415 C.2       3 UNK         0.4961 
     71 O         -48.0364  -22.4164    9.6722 O.2       3 UNK        -0.5105 
     72 CA        -48.7804  -23.0039    7.4740 C.3       3 UNK         0.0299 
     73 CB        -48.9894  -21.7397    6.6260 C.3       3 UNK        -0.1972 
     74 N         -48.4981  -24.1469    6.5976 N.am      3 UNK        -0.4305 
     75 C         -48.3583  -25.4116    7.0161 C.2       2 UNK         0.5006 
     76 O         -48.4286  -25.7580    8.1991 O.2       2 UNK        -0.5106 
     77 CA        -48.0369  -26.4552    5.9445 C.3       2 UNK         0.0296 
     78 CB        -46.5370  -26.4389    5.5987 C.3       2 UNK        -0.2002 
     79 N         -48.4034  -27.7698    6.4587 N.am      2 UNK        -0.4032 
     80 C         -48.8408  -28.8002    5.7255 C.2       1 UNK         0.5000 
     81 O         -48.9499  -28.7697    4.4978 O.2       1 UNK        -0.5238 
     82 H82       -46.5641  -30.8357    9.4327 H         1 UNK         0.0889 
     83 H83       -45.1831  -30.2968    8.4762 H         1 UNK         0.0889 
     84 H84       -45.6457  -32.0007    8.4769 H         1 UNK         0.0889 
     85 H85       -48.5228  -30.3638    8.4798 H         1 UNK         0.3028 
     86 H86       -49.1968  -30.9087    5.7750 H         1 UNK         0.0864 
     87 H87       -50.6665  -29.2231    7.8672 H         1 UNK         0.0720 
     88 H88       -50.8050  -30.9401    7.6873 H         1 UNK         0.0720 
     89 H89       -52.9945  -27.8115    5.1811 H         1 UNK         0.0814 
     90 H90       -51.5117  -27.4857    6.0319 H         1 UNK         0.0814 
     91 H91       -51.5093  -27.2520    8.5040 H         1 UNK         0.1469 
     92 H92       -55.2846  -26.9784   10.4948 H         1 UNK         0.1381 
     93 H93       -55.1128  -28.2558    6.4033 H         1 UNK         0.1206 
     94 H94       -57.1944  -28.4314    7.5897 H         1 UNK         0.0813 
     95 H95       -57.3230  -26.7964    8.1930 H         1 UNK         0.0813 
     96 H96       -57.3665  -30.6630    9.2105 H         1 UNK         0.0638 
     97 H97       -55.8520  -30.0358    9.8175 H         1 UNK         0.0638 
     98 H98       -58.2500  -30.7790   11.5708 H         1 UNK         0.0568 
     99 H99       -57.3091  -34.1343   10.8560 H         1 UNK         0.3450 
    100 H100      -58.5338  -32.9073   10.6653 H         1 UNK         0.3450 
    101 H101      -55.8756  -29.3405   12.2432 H         1 UNK         0.2987 
    102 H102      -56.5689  -29.3277   15.6896 H         1 UNK         0.0766 
    103 H103      -54.1472  -29.7700   16.0500 H         1 UNK         0.0798 
    104 H104      -54.0157  -30.4856   14.4436 H         1 UNK         0.0798 
    105 H105      -54.9935  -31.2642   15.6804 H         1 UNK         0.0798 
    106 H106      -54.4876  -28.0429   14.2134 H         1 UNK         0.3198 
    107 H107      -55.0539  -26.0864   12.7254 H         1 UNK         0.0843 
    108 H108      -57.1155  -24.3782   14.2019 H         1 UNK         0.0831 
    109 H109      -57.2980  -25.0368   12.5818 H         1 UNK         0.0831 
    110 H110      -56.0547  -23.8401   12.8977 H         1 UNK         0.0831 
    111 H111      -54.8307  -24.4885   15.1041 H         1 UNK         0.3133 
    112 H112      -52.4169  -24.0822   15.4837 H         1 UNK         0.0566 
    113 H113      -52.3826  -24.6182   17.9740 H         1 UNK         0.0814 
    114 H114      -53.9955  -24.5024   17.2950 H         1 UNK         0.0814 
    115 H115      -53.3091  -26.0793   17.6330 H         1 UNK         0.0814 
    116 H116      -50.4883  -25.0802   15.2013 H         1 UNK         0.3091 
    117 H117      -48.7550  -27.7024   16.7547 H         1 UNK         0.0702 
    118 H118      -49.8302  -28.9982   14.9212 H         1 UNK         0.0785 
    119 H119      -48.2221  -28.4710   14.4475 H         1 UNK         0.0785 
    120 H120      -49.6463  -27.6391   13.8233 H         1 UNK         0.0785 
    121 H121      -47.9882  -25.9710   14.6294 H         1 UNK         0.2998 
    122 H122      -46.5772  -23.4518   16.7796 H         1 UNK         0.0697 
    123 H123      -45.4508  -25.6457   14.9584 H         1 UNK         0.0825 
    124 H124      -45.0207  -25.3829   16.6429 H         1 UNK         0.0825 
    125 H125      -44.6193  -24.1689   15.4389 H         1 UNK         0.0825 
    126 H126      -47.1046  -24.0778   13.9117 H         1 UNK         0.3029 
    127 H127      -49.1958  -21.2679   13.5346 H         1 UNK         0.0897 
    128 H128      -47.6437  -20.5128   11.7553 H         1 UNK         0.0792 
    129 H129      -46.3447  -21.4985   12.4252 H         1 UNK         0.0792 
    130 H130      -46.9697  -20.1250   13.3299 H         1 UNK         0.0792 
    131 H131      -48.2240  -22.9128   11.5047 H         1 UNK         0.3086 
    132 H132      -50.0723  -25.8862   12.1734 H         1 UNK         0.0583 
    133 H133      -50.6651  -23.6369   10.1943 H         1 UNK         0.1020 
    134 H134      -50.6321  -25.2873    9.6527 H         1 UNK         0.1020 
    135 H135      -51.6514  -27.2042   10.9902 H         1 UNK         0.0694 
    136 H136      -53.1976  -27.1288   11.7703 H         1 UNK         0.0694 
    137 H137      -48.3834  -25.4015   10.0237 H         1 UNK         0.2989 
    138 H138      -45.2803  -26.2595   11.5934 H         1 UNK         0.1055 
    139 H139      -46.4157  -28.3649   10.9488 H         1 UNK         0.0806 
    140 H140      -45.3592  -27.8266    9.6544 H         1 UNK         0.0806 
    141 H141      -47.1022  -27.6078    9.5213 H         1 UNK         0.0806 
    142 H142      -46.2364  -25.3062    8.9841 H         1 UNK         0.3061 
    143 H143      -45.2874  -21.9404    9.5517 H         1 UNK         0.0734 
    144 H144      -43.8981  -22.2681    7.5187 H         1 UNK         0.0832 
    145 H145      -43.1046  -22.9802    8.9125 H         1 UNK         0.0832 
    146 H146      -43.9198  -24.0173    7.7510 H         1 UNK         0.0832 
    147 H147      -46.2488  -23.2795    7.2259 H         1 UNK         0.3156 
    148 H148      -49.7149  -23.2169    7.9960 H         1 UNK         0.0589 
    149 H149      -48.1002  -21.4871    6.0469 H         1 UNK         0.0808 
    150 H150      -49.8207  -21.8602    5.9311 H         1 UNK         0.0808 
    151 H151      -49.2211  -20.8809    7.2579 H         1 UNK         0.0808 
    152 H152      -48.4170  -23.9499    5.6099 H         1 UNK         0.3098 
    153 H153      -48.6271  -26.2284    5.0538 H         1 UNK         0.0720 
    154 H154      -46.3001  -27.1842    4.8390 H         1 UNK         0.0791 
    155 H155      -45.9193  -26.6494    6.4730 H         1 UNK         0.0791 
    156 H156      -46.2307  -25.4694    5.2043 H         1 UNK         0.0791 
    157 H157      -48.3855  -27.8425    7.4672 H         1 UNK         0.3028 
@<TRIPOS>BOND
     1    1    2 1    
     2    1   82 1    
     3    1   83 1    
     4    1   84 1    
     5    2    3 2    
     6    2    4 am   BACKBONE|DICT|INTERRES
     7    4    5 1    
     8    4   85 1    
     9    5    6 1    
    10    5   80 1    
    11    5   86 1    
    12    6    7 1    
    13    6   87 1    
    14    6   88 1    
    15    7    8 1    
    16    8    9 1    
    17    8   89 1    
    18    8   90 1    
    19    9   10 ar   
    20    9   14 ar   
    21   10   11 ar   
    22   10   91 1    
    23   11   12 ar   
    24   11   58 1    
    25   12   13 ar   
    26   12   92 1    
    27   13   14 ar   
    28   13   15 1    
    29   14   93 1    
    30   15   16 1    
    31   15   94 1    
    32   15   95 1    
    33   16   17 1    
    34   17   18 1    
    35   17   96 1    
    36   17   97 1    
    37   18   19 1    
    38   18   22 1    
    39   18   98 1    
    40   19   20 am   BACKBONE|DICT|INTERRES
    41   19   21 2    
    42   20   99 1    
    43   20  100 1    
    44   22   23 am   BACKBONE|DICT|INTERRES
    45   22  101 1    
    46   23   24 2    
    47   23   25 1    
    48   25   26 1    
    49   25   27 1    
    50   25  102 1    
    51   26  103 1    
    52   26  104 1    
    53   26  105 1    
    54   27   28 am   BACKBONE|DICT|INTERRES
    55   27  106 1    
    56   28   29 2    
    57   28   30 1    
    58   30   31 1    
    59   30   32 1    
    60   30  107 1    
    61   31  108 1    
    62   31  109 1    
    63   31  110 1    
    64   32   33 am   BACKBONE|DICT|INTERRES
    65   32  111 1    
    66   33   34 2    
    67   33   35 1    
    68   35   36 1    
    69   35   37 1    
    70   35  112 1    
    71   36  113 1    
    72   36  114 1    
    73   36  115 1    
    74   37   38 am   BACKBONE|DICT|INTERRES
    75   37  116 1    
    76   38   39 2    
    77   38   40 1    
    78   40   41 1    
    79   40   42 1    
    80   40  117 1    
    81   41  118 1    
    82   41  119 1    
    83   41  120 1    
    84   42   43 am   BACKBONE|DICT|INTERRES
    85   42  121 1    
    86   43   44 2    
    87   43   45 1    
    88   45   46 1    
    89   45   47 1    
    90   45  122 1    
    91   46  123 1    
    92   46  124 1    
    93   46  125 1    
    94   47   48 am   BACKBONE|DICT|INTERRES
    95   47  126 1    
    96   48   49 2    
    97   48   50 1    
    98   50   51 1    
    99   50   52 1    
   100   50  127 1    
   101   51  128 1    
   102   51  129 1    
   103   51  130 1    
   104   52   53 am   BACKBONE|DICT|INTERRES
   105   52  131 1    
   106   53   54 2    
   107   53   55 1    
   108   55   56 1    
   109   55   59 1    
   110   55  132 1    
   111   56   57 1    
   112   56  133 1    
   113   56  134 1    
   114   57   58 1    
   115   58  135 1    
   116   58  136 1    
   117   59   60 am   BACKBONE|DICT|INTERRES
   118   59  137 1    
   119   60   61 2    
   120   60   62 1    
   121   62   63 1    
   122   62   64 1    
   123   62  138 1    
   124   63  139 1    
   125   63  140 1    
   126   63  141 1    
   127   64   65 am   BACKBONE|DICT|INTERRES
   128   64  142 1    
   129   65   66 2    
   130   65   67 1    
   131   67   68 1    
   132   67   69 1    
   133   67  143 1    
   134   68  144 1    
   135   68  145 1    
   136   68  146 1    
   137   69   70 am   BACKBONE|DICT|INTERRES
   138   69  147 1    
   139   70   71 2    
   140   70   72 1    
   141   72   73 1    
   142   72   74 1    
   143   72  148 1    
   144   73  149 1    
   145   73  150 1    
   146   73  151 1    
   147   74   75 am   BACKBONE|DICT|INTERRES
   148   74  152 1    
   149   75   76 2    
   150   75   77 1    
   151   77   78 1    
   152   77   79 1    
   153   77  153 1    
   154   78  154 1    
   155   78  155 1    
   156   78  156 1    
   157   79   80 am   BACKBONE|DICT|INTERRES
   158   79  157 1    
   159   80   81 2    
@<TRIPOS>SUBSTRUCTURE
     1 UNK         1 GROUP             0       ****    0 ROOT    
