@<TRIPOS>MOLECULE
3R207
157   159    1
SMALL
USER_CHARGES


@<TRIPOS>ATOM
      1 CA        -53.6069  -23.6039    3.3452 C.3       0 UNK        -0.1975 
      2 C         -53.6157  -24.1155    4.7782 C.2       0 UNK         0.4852 
      3 O         -54.3209  -23.5590    5.6201 O.2       0 UNK        -0.5216 
      4 N         -52.8392  -25.1723    5.0581 N.am      1 UNK        -0.4461 
      5 CA        -52.7075  -25.7936    6.3826 C.3       1 UNK         0.0864 
      6 C6        -52.0207  -27.1828    6.2731 C.3       14 UNK        -0.0898 
      7 S7        -52.3482  -28.2528    7.7135 S.3       14 UNK        -0.2598 
      8 C8        -50.8305  -29.2740    7.8055 C.3       14 UNK         0.0286 
      9 C9        -50.5246  -29.8513    9.1925 C.ar      14 UNK        -0.0844 
     10 C10       -49.2071  -30.2129    9.5024 C.ar      14 UNK        -0.0881 
     11 C11       -48.8760  -30.7218   10.7636 C.ar      14 UNK        -0.0643 
     12 C12       -49.8789  -30.8777   11.7245 C.ar      14 UNK        -0.0930 
     13 C13       -51.2002  -30.5292   11.4316 C.ar      14 UNK        -0.0827 
     14 C14       -51.5160  -30.0268   10.1663 C.ar      14 UNK        -0.1249 
     15 C15       -52.2815  -30.6362   12.4953 C.3       14 UNK         0.0141 
     16 S16       -53.6357  -31.7478   12.0083 S.3       14 UNK        -0.2313 
     17 C17       -54.9552  -31.1767   13.1333 C.3       14 UNK        -0.0915 
     18 CA        -55.9347  -30.1922   12.4367 C.3       13 UNK         0.0968 
     19 C         -57.2078  -29.9222   13.2912 C.2       13 UNK         0.5732 
     20 N         -57.6459  -28.6819   13.4818 N.am      13 UNK        -0.7310 
     21 O         -57.8360  -30.8631   13.7715 O.2       13 UNK        -0.5035 
     22 N         -55.2547  -28.9532   12.0317 N.am      13 UNK        -0.4233 
     23 C         -55.2647  -28.4308   10.7991 C.2       13 UNK         0.4989 
     24 O         -55.7849  -28.9881    9.8308 O.2       13 UNK        -0.4996 
     25 CA        -54.5856  -27.0575   10.5978 C.3       12 UNK         0.0216 
     26 CB        -55.3336  -26.1996    9.5546 C.3       12 UNK        -0.1964 
     27 N         -54.3672  -26.2891   11.8310 N.am      12 UNK        -0.4276 
     28 C         -55.2959  -25.8617   12.6962 C.2       12 UNK         0.5020 
     29 O         -56.5022  -26.0899   12.5755 O.2       12 UNK        -0.5489 
     30 CA        -54.7710  -25.1094   13.9345 C.3       11 UNK         0.0294 
     31 CB        -55.8992  -24.7323   14.9168 C.3       11 UNK        -0.2019 
     32 N         -53.7085  -25.8230   14.6570 N.am      11 UNK        -0.4493 
     33 C         -53.7152  -27.0955   15.0878 C.2       11 UNK         0.4932 
     34 O         -54.5983  -27.9072   14.8091 O.2       11 UNK        -0.5029 
     35 CA        -52.5523  -27.5466   15.9930 C.3       10 UNK         0.0280 
     36 CB        -52.0842  -28.9753   15.6760 C.3       10 UNK        -0.1976 
     37 N         -51.3996  -26.6443   15.9373 N.am      10 UNK        -0.4242 
     38 C         -51.1795  -25.6392   16.7949 C.2       10 UNK         0.5072 
     39 O         -51.9314  -25.3542   17.7279 O.2       10 UNK        -0.5224 
     40 CA        -49.9151  -24.7961   16.5693 C.3       9 UNK         0.0343 
     41 CB        -48.6856  -25.5086   17.1553 C.3       9 UNK        -0.2003 
     42 N         -49.6717  -24.4595   15.1633 N.am      9 UNK        -0.4272 
     43 C         -50.4765  -23.6944   14.4099 C.2       9 UNK         0.4988 
     44 O         -51.5477  -23.2315   14.8036 O.2       9 UNK        -0.5108 
     45 CA        -50.0182  -23.4046   12.9696 C.3       8 UNK         0.0248 
     46 CB        -48.8429  -22.4138   12.9470 C.3       8 UNK        -0.2001 
     47 N         -49.6498  -24.6172   12.2424 N.am      8 UNK        -0.4140 
     48 C         -50.5031  -25.6017   11.9280 C.2       8 UNK         0.5028 
     49 O         -51.7090  -25.5829   12.1743 O.2       8 UNK        -0.5428 
     50 CA        -49.8854  -26.8422   11.2723 C.3       7 UNK         0.0264 
     51 CB        -49.5725  -26.5843    9.7903 C.3       7 UNK        -0.1988 
     52 N         -48.6659  -27.2698   11.9520 N.am      7 UNK        -0.4454 
     53 C         -48.5915  -27.6899   13.2221 C.2       7 UNK         0.5027 
     54 O         -49.5497  -27.7436   13.9925 O.2       7 UNK        -0.5083 
     55 CA        -47.1865  -28.0609   13.7325 C.3       6 UNK         0.0844 
     56 C56       -46.7904  -29.5067   13.3327 C.3       14 UNK        -0.0967 
     57 S57       -46.3885  -29.7241   11.5586 S.3       14 UNK        -0.2604 
     58 C58       -47.4410  -31.1320   11.0723 C.3       14 UNK         0.0134 
     59 N         -46.1794  -27.0683   13.3409 N.am      6 UNK        -0.4116 
     60 C         -46.1991  -25.7723   13.6879 C.2       5 UNK         0.5034 
     61 O         -47.0359  -25.2715   14.4367 O.2       5 UNK        -0.5045 
     62 CA        -45.1384  -24.8635   13.0471 C.3       5 UNK         0.0224 
     63 CB        -43.8430  -24.8772   13.8738 C.3       5 UNK        -0.1978 
     64 N         -44.8401  -25.2114   11.6541 N.am      5 UNK        -0.4737 
     65 C         -45.7316  -25.1820   10.6553 C.2       4 UNK         0.5027 
     66 O         -46.9158  -24.8629   10.7959 O.2       4 UNK        -0.5211 
     67 CA        -45.2153  -25.6262    9.2843 C.3       4 UNK         0.0297 
     68 CB        -45.0469  -27.1559    9.2263 C.3       4 UNK        -0.1993 
     69 N         -46.1572  -25.2042    8.2541 N.am      4 UNK        -0.4486 
     70 C         -45.8483  -24.9682    6.9745 C.2       3 UNK         0.4961 
     71 O         -44.7024  -25.0462    6.5288 O.2       3 UNK        -0.5105 
     72 CA        -46.9954  -24.6150    6.0094 C.3       3 UNK         0.0299 
     73 CB        -47.1597  -25.7180    4.9488 C.3       3 UNK        -0.1972 
     74 N         -48.2899  -24.4100    6.6654 N.am      3 UNK        -0.4305 
     75 C         -48.6969  -23.2640    7.2303 C.2       2 UNK         0.5006 
     76 O         -47.9825  -22.2663    7.3330 O.2       2 UNK        -0.5106 
     77 CA        -50.1514  -23.2257    7.7337 C.3       2 UNK         0.0296 
     78 CB        -50.7446  -21.8035    7.7492 C.3       2 UNK        -0.2002 
     79 N         -50.9994  -24.1068    6.9245 N.am      2 UNK        -0.4032 
     80 C         -51.9941  -24.8691    7.3977 C.2       1 UNK         0.5000 
     81 O         -52.3555  -24.8583    8.5737 O.2       1 UNK        -0.5238 
     82 H82       -54.6114  -23.6490    2.9251 H         1 UNK         0.0889 
     83 H83       -52.9460  -24.1889    2.7058 H         1 UNK         0.0889 
     84 H84       -53.2731  -22.5669    3.3194 H         1 UNK         0.0889 
     85 H85       -52.3018  -25.5971    4.3152 H         1 UNK         0.3028 
     86 H86       -53.7225  -25.9483    6.7558 H         1 UNK         0.0864 
     87 H87       -50.9464  -27.0744    6.1149 H         1 UNK         0.0720 
     88 H88       -52.3985  -27.7182    5.4005 H         1 UNK         0.0720 
     89 H89       -49.9812  -28.6712    7.4822 H         1 UNK         0.0814 
     90 H90       -50.9168  -30.0944    7.0922 H         1 UNK         0.0814 
     91 H91       -48.4291  -30.0917    8.7610 H         1 UNK         0.1469 
     92 H92       -49.6293  -31.2651   12.7024 H         1 UNK         0.1381 
     93 H93       -52.5427  -29.7637    9.9564 H         1 UNK         0.1206 
     94 H94       -52.6743  -29.6360   12.6782 H         1 UNK         0.0813 
     95 H95       -51.8670  -30.9933   13.4387 H         1 UNK         0.0813 
     96 H96       -54.5186  -30.7234   14.0250 H         1 UNK         0.0638 
     97 H97       -55.4845  -32.0677   13.4753 H         1 UNK         0.0638 
     98 H98       -56.3137  -30.7015   11.5494 H         1 UNK         0.0568 
     99 H99       -58.4766  -28.5379   14.0321 H         1 UNK         0.3450 
    100 H100      -57.1557  -27.8806   13.0960 H         1 UNK         0.3450 
    101 H101      -54.8712  -28.4099   12.7970 H         1 UNK         0.2987 
    102 H102      -53.5891  -27.2641   10.2065 H         1 UNK         0.0766 
    103 H103      -54.8623  -25.2252    9.4289 H         1 UNK         0.0798 
    104 H104      -56.3735  -26.0341    9.8381 H         1 UNK         0.0798 
    105 H105      -55.3346  -26.6850    8.5782 H         1 UNK         0.0798 
    106 H106      -53.3910  -26.0485   12.0254 H         1 UNK         0.3198 
    107 H107      -54.3253  -24.1840   13.5654 H         1 UNK         0.0843 
    108 H108      -56.3922  -25.6175   15.3208 H         1 UNK         0.0831 
    109 H109      -56.6631  -24.1297   14.4239 H         1 UNK         0.0831 
    110 H110      -55.5176  -24.1486   15.7545 H         1 UNK         0.0831 
    111 H111      -52.9006  -25.2603   14.8909 H         1 UNK         0.3133 
    112 H112      -52.9521  -27.5635   17.0087 H         1 UNK         0.0566 
    113 H113      -51.3267  -29.3083   16.3854 H         1 UNK         0.0814 
    114 H114      -52.9072  -29.6892   15.7244 H         1 UNK         0.0814 
    115 H115      -51.6508  -29.0321   14.6808 H         1 UNK         0.0814 
    116 H116      -50.7214  -26.8294   15.2003 H         1 UNK         0.3091 
    117 H117      -50.0480  -23.8567   17.1100 H         1 UNK         0.0702 
    118 H118      -47.7994  -24.8759   17.1028 H         1 UNK         0.0785 
    119 H119      -48.4662  -26.4357   16.6240 H         1 UNK         0.0785 
    120 H120      -48.8412  -25.7609   18.2052 H         1 UNK         0.0785 
    121 H121      -48.7925  -24.7889   14.7693 H         1 UNK         0.2998 
    122 H122      -50.8566  -22.9461   12.4409 H         1 UNK         0.0697 
    123 H123      -47.9574  -22.8216   13.4355 H         1 UNK         0.0825 
    124 H124      -49.1033  -21.4883   13.4622 H         1 UNK         0.0825 
    125 H125      -48.5674  -22.1503   11.9255 H         1 UNK         0.0825 
    126 H126      -48.6763  -24.7242   11.9767 H         1 UNK         0.3029 
    127 H127      -50.6052  -27.6585   11.3446 H         1 UNK         0.0897 
    128 H128      -49.0692  -25.6324    9.6318 H         1 UNK         0.0792 
    129 H129      -50.4954  -26.5609    9.2170 H         1 UNK         0.0792 
    130 H130      -48.9459  -27.3664    9.3644 H         1 UNK         0.0792 
    131 H131      -47.8133  -27.2380   11.4135 H         1 UNK         0.3086 
    132 H132      -47.2391  -28.0333   14.8231 H         1 UNK         0.0583 
    133 H133      -45.9103  -29.8055   13.9041 H         1 UNK         0.1020 
    134 H134      -47.5721  -30.2082   13.6294 H         1 UNK         0.1020 
    135 H135      -47.0052  -31.5953   10.1859 H         1 UNK         0.0694 
    136 H136      -47.4156  -31.8971   11.8498 H         1 UNK         0.0694 
    137 H137      -45.4607  -27.3881   12.7087 H         1 UNK         0.2989 
    138 H138      -45.5384  -23.8470   13.0544 H         1 UNK         0.1055 
    139 H139      -44.0405  -24.6037   14.9115 H         1 UNK         0.0806 
    140 H140      -43.1171  -24.1620   13.4863 H         1 UNK         0.0806 
    141 H141      -43.3748  -25.8623   13.8801 H         1 UNK         0.0806 
    142 H142      -43.8893  -25.4853   11.4488 H         1 UNK         0.3061 
    143 H143      -44.2505  -25.1424    9.1167 H         1 UNK         0.0734 
    144 H144      -46.0019  -27.6683    9.3475 H         1 UNK         0.0832 
    145 H145      -44.6215  -27.4711    8.2735 H         1 UNK         0.0832 
    146 H146      -44.3787  -27.5167   10.0090 H         1 UNK         0.0832 
    147 H147      -47.0967  -25.0350    8.5874 H         1 UNK         0.3156 
    148 H148      -46.7118  -23.6937    5.4960 H         1 UNK         0.0589 
    149 H149      -47.4324  -26.6740    5.3978 H         1 UNK         0.0808 
    150 H150      -47.9258  -25.4573    4.2184 H         1 UNK         0.0808 
    151 H151      -46.2315  -25.8722    4.3965 H         1 UNK         0.0808 
    152 H152      -48.9227  -25.1959    6.6588 H         1 UNK         0.3098 
    153 H153      -50.1229  -23.5906    8.7626 H         1 UNK         0.0720 
    154 H154      -51.7646  -21.8059    8.1339 H         1 UNK         0.0791 
    155 H155      -50.7642  -21.3661    6.7505 H         1 UNK         0.0791 
    156 H156      -50.1614  -21.1398    8.3889 H         1 UNK         0.0791 
    157 H157      -50.7982  -24.1356    5.9344 H         1 UNK         0.3028 
@<TRIPOS>BOND
     1    1    2 1    
     2    1   82 1    
     3    1   83 1    
     4    1   84 1    
     5    2    3 2    
     6    2    4 am   BACKBONE|DICT|INTERRES
     7    4    5 1    
     8    4   85 1    
     9    5    6 1    
    10    5   80 1    
    11    5   86 1    
    12    6    7 1    
    13    6   87 1    
    14    6   88 1    
    15    7    8 1    
    16    8    9 1    
    17    8   89 1    
    18    8   90 1    
    19    9   10 ar   
    20    9   14 ar   
    21   10   11 ar   
    22   10   91 1    
    23   11   12 ar   
    24   11   58 1    
    25   12   13 ar   
    26   12   92 1    
    27   13   14 ar   
    28   13   15 1    
    29   14   93 1    
    30   15   16 1    
    31   15   94 1    
    32   15   95 1    
    33   16   17 1    
    34   17   18 1    
    35   17   96 1    
    36   17   97 1    
    37   18   19 1    
    38   18   22 1    
    39   18   98 1    
    40   19   20 am   BACKBONE|DICT|INTERRES
    41   19   21 2    
    42   20   99 1    
    43   20  100 1    
    44   22   23 am   BACKBONE|DICT|INTERRES
    45   22  101 1    
    46   23   24 2    
    47   23   25 1    
    48   25   26 1    
    49   25   27 1    
    50   25  102 1    
    51   26  103 1    
    52   26  104 1    
    53   26  105 1    
    54   27   28 am   BACKBONE|DICT|INTERRES
    55   27  106 1    
    56   28   29 2    
    57   28   30 1    
    58   30   31 1    
    59   30   32 1    
    60   30  107 1    
    61   31  108 1    
    62   31  109 1    
    63   31  110 1    
    64   32   33 am   BACKBONE|DICT|INTERRES
    65   32  111 1    
    66   33   34 2    
    67   33   35 1    
    68   35   36 1    
    69   35   37 1    
    70   35  112 1    
    71   36  113 1    
    72   36  114 1    
    73   36  115 1    
    74   37   38 am   BACKBONE|DICT|INTERRES
    75   37  116 1    
    76   38   39 2    
    77   38   40 1    
    78   40   41 1    
    79   40   42 1    
    80   40  117 1    
    81   41  118 1    
    82   41  119 1    
    83   41  120 1    
    84   42   43 am   BACKBONE|DICT|INTERRES
    85   42  121 1    
    86   43   44 2    
    87   43   45 1    
    88   45   46 1    
    89   45   47 1    
    90   45  122 1    
    91   46  123 1    
    92   46  124 1    
    93   46  125 1    
    94   47   48 am   BACKBONE|DICT|INTERRES
    95   47  126 1    
    96   48   49 2    
    97   48   50 1    
    98   50   51 1    
    99   50   52 1    
   100   50  127 1    
   101   51  128 1    
   102   51  129 1    
   103   51  130 1    
   104   52   53 am   BACKBONE|DICT|INTERRES
   105   52  131 1    
   106   53   54 2    
   107   53   55 1    
   108   55   56 1    
   109   55   59 1    
   110   55  132 1    
   111   56   57 1    
   112   56  133 1    
   113   56  134 1    
   114   57   58 1    
   115   58  135 1    
   116   58  136 1    
   117   59   60 am   BACKBONE|DICT|INTERRES
   118   59  137 1    
   119   60   61 2    
   120   60   62 1    
   121   62   63 1    
   122   62   64 1    
   123   62  138 1    
   124   63  139 1    
   125   63  140 1    
   126   63  141 1    
   127   64   65 am   BACKBONE|DICT|INTERRES
   128   64  142 1    
   129   65   66 2    
   130   65   67 1    
   131   67   68 1    
   132   67   69 1    
   133   67  143 1    
   134   68  144 1    
   135   68  145 1    
   136   68  146 1    
   137   69   70 am   BACKBONE|DICT|INTERRES
   138   69  147 1    
   139   70   71 2    
   140   70   72 1    
   141   72   73 1    
   142   72   74 1    
   143   72  148 1    
   144   73  149 1    
   145   73  150 1    
   146   73  151 1    
   147   74   75 am   BACKBONE|DICT|INTERRES
   148   74  152 1    
   149   75   76 2    
   150   75   77 1    
   151   77   78 1    
   152   77   79 1    
   153   77  153 1    
   154   78  154 1    
   155   78  155 1    
   156   78  156 1    
   157   79   80 am   BACKBONE|DICT|INTERRES
   158   79  157 1    
   159   80   81 2    
@<TRIPOS>SUBSTRUCTURE
     1 UNK         1 GROUP             0       ****    0 ROOT    
