@<TRIPOS>MOLECULE
3R207
157   159    1
SMALL
USER_CHARGES


@<TRIPOS>ATOM
      1 CA        -50.7793  -26.9911   10.5161 C.3       0 UNK        -0.1975 
      2 C         -49.8976  -27.1790    9.2936 C.2       0 UNK         0.4852 
      3 O         -49.3508  -26.2049    8.7729 O.2       0 UNK        -0.5216 
      4 N         -49.7532  -28.4384    8.8574 N.am      1 UNK        -0.4461 
      5 CA        -49.0327  -28.8785    7.6556 C.3       1 UNK         0.0864 
      6 C6        -49.7358  -28.4445    6.3411 C.3       14 UNK        -0.0898 
      7 S7        -51.3587  -29.2595    6.1733 S.3       14 UNK        -0.2598 
      8 C8        -52.4102  -27.9065    5.5581 C.3       14 UNK         0.0286 
      9 C9        -52.9185  -26.9708    6.6506 C.ar      14 UNK        -0.0844 
     10 C10       -52.8134  -25.5871    6.4838 C.ar      14 UNK        -0.0881 
     11 C11       -53.3935  -24.7100    7.4050 C.ar      14 UNK        -0.0643 
     12 C12       -54.0487  -25.2269    8.5293 C.ar      14 UNK        -0.0930 
     13 C13       -54.1670  -26.6108    8.7087 C.ar      14 UNK        -0.0827 
     14 C14       -53.5984  -27.4741    7.7655 C.ar      14 UNK        -0.1249 
     15 C15       -55.0248  -27.1739    9.8381 C.3       14 UNK         0.0141 
     16 S16       -54.1307  -28.3256   10.9381 S.3       14 UNK        -0.2313 
     17 C17       -55.5076  -29.3803   11.5128 C.3       14 UNK        -0.0915 
     18 CA        -56.1308  -28.8778   12.8510 C.3       13 UNK         0.0968 
     19 C         -57.6534  -29.1970   12.9961 C.2       13 UNK         0.5732 
     20 N         -58.1820  -29.3555   14.2041 N.am      13 UNK        -0.7310 
     21 O         -58.3827  -29.2590   12.0089 O.2       13 UNK        -0.5035 
     22 N         -55.3131  -29.2307   14.0274 N.am      13 UNK        -0.4233 
     23 C         -55.1416  -30.4581   14.5392 C.2       13 UNK         0.4989 
     24 O         -55.6131  -31.4875   14.0520 O.2       13 UNK        -0.4996 
     25 CA        -54.3025  -30.5213   15.8280 C.3       12 UNK         0.0216 
     26 CB        -54.2861  -31.9170   16.4895 C.3       12 UNK        -0.1964 
     27 N         -52.9470  -30.0093   15.6045 N.am      12 UNK        -0.4276 
     28 C         -51.9880  -30.5359   14.8287 C.2       12 UNK         0.5020 
     29 O         -52.0885  -31.6094   14.2334 O.2       12 UNK        -0.5489 
     30 CA        -50.6906  -29.7238   14.6652 C.3       11 UNK         0.0294 
     31 CB        -50.6349  -29.1004   13.2642 C.3       11 UNK        -0.2019 
     32 N         -50.5209  -28.6551   15.6521 N.am      11 UNK        -0.4493 
     33 C         -50.1734  -28.8365   16.9332 C.2       11 UNK         0.4932 
     34 O         -49.9827  -29.9398   17.4445 O.2       11 UNK        -0.5029 
     35 CA        -50.0203  -27.5697   17.7860 C.3       10 UNK         0.0280 
     36 CB        -48.6645  -26.8972   17.5132 C.3       10 UNK        -0.1976 
     37 N         -51.0995  -26.6191   17.5134 N.am      10 UNK        -0.4242 
     38 C         -52.2432  -26.5463   18.2089 C.2       10 UNK         0.5072 
     39 O         -52.4984  -27.2524   19.1852 O.2       10 UNK        -0.5224 
     40 CA        -53.2859  -25.5103   17.7470 C.3       9 UNK         0.0343 
     41 CB        -53.1090  -24.1913   18.5164 C.3       9 UNK        -0.2003 
     42 N         -53.2414  -25.2386   16.3086 N.am      9 UNK        -0.4272 
     43 C         -53.6086  -26.1125   15.3621 C.2       9 UNK         0.4988 
     44 O         -54.0745  -27.2262   15.6002 O.2       9 UNK        -0.5108 
     45 CA        -53.3953  -25.6972   13.8983 C.3       8 UNK         0.0248 
     46 CB        -54.6597  -25.0258   13.3404 C.3       8 UNK        -0.2001 
     47 N         -52.2465  -24.8177   13.6662 N.am      8 UNK        -0.4140 
     48 C         -50.9716  -25.0597   13.9957 C.2       8 UNK         0.5028 
     49 O         -50.6153  -26.0371   14.6565 O.2       8 UNK        -0.5428 
     50 CA        -49.9280  -24.0470   13.4809 C.3       7 UNK         0.0264 
     51 CB        -48.4911  -24.4347   13.8772 C.3       7 UNK        -0.1988 
     52 N         -49.9870  -23.8906   12.0237 N.am      7 UNK        -0.4454 
     53 C         -50.9320  -23.2291   11.3380 C.2       7 UNK         0.5027 
     54 O         -51.8647  -22.6360   11.8846 O.2       7 UNK        -0.5083 
     55 CA        -50.8402  -23.2802    9.7975 C.3       6 UNK         0.0844 
     56 C56       -51.6987  -22.1911    9.1047 C.3       14 UNK        -0.0967 
     57 S57       -51.7771  -22.4323    7.3000 S.3       14 UNK        -0.2604 
     58 C58       -53.4093  -23.2142    7.1109 C.3       14 UNK         0.0134 
     59 N         -49.4511  -23.3429    9.3291 N.am      6 UNK        -0.4116 
     60 C         -48.5269  -22.3788    9.4498 C.2       5 UNK         0.5034 
     61 O         -48.7355  -21.2864    9.9793 O.2       5 UNK        -0.5045 
     62 CA        -47.1169  -22.6834    8.9189 C.3       5 UNK         0.0224 
     63 CB        -46.1743  -23.0256   10.0842 C.3       5 UNK        -0.1978 
     64 N         -47.0727  -23.7638    7.9291 N.am      5 UNK        -0.4737 
     65 C         -47.5206  -23.6558    6.6682 C.2       4 UNK         0.5027 
     66 O         -48.0514  -22.6360    6.2258 O.2       4 UNK        -0.5211 
     67 CA        -47.3182  -24.8780    5.7451 C.3       4 UNK         0.0297 
     68 CB        -47.4149  -24.5257    4.2464 C.3       4 UNK        -0.1993 
     69 N         -46.0797  -25.6139    6.0260 N.am      4 UNK        -0.4486 
     70 C         -44.8268  -25.1285    6.0551 C.2       3 UNK         0.4961 
     71 O         -44.5229  -23.9975    5.6722 O.2       3 UNK        -0.5105 
     72 CA        -43.7276  -26.0492    6.6346 C.3       3 UNK         0.0299 
     73 CB        -42.6453  -25.2514    7.3930 C.3       3 UNK        -0.1972 
     74 N         -44.2372  -27.1426    7.4769 N.am      3 UNK        -0.4305 
     75 C         -44.9888  -27.0369    8.5842 C.2       2 UNK         0.5006 
     76 O         -45.3420  -25.9700    9.0879 O.2       2 UNK        -0.5106 
     77 CA        -45.5053  -28.3580    9.1774 C.3       2 UNK         0.0296 
     78 CB        -45.2859  -28.4029   10.6998 C.3       2 UNK        -0.2002 
     79 N         -46.9278  -28.5772    8.8931 N.am      2 UNK        -0.4032 
     80 C         -47.5224  -28.5507    7.6884 C.2       1 UNK         0.5000 
     81 O         -46.9231  -28.3136    6.6368 O.2       1 UNK        -0.5238 
     82 H82       -50.1986  -26.6057   11.3520 H         1 UNK         0.0889 
     83 H83       -51.2274  -27.9344   10.8193 H         1 UNK         0.0889 
     84 H84       -51.5965  -26.3054   10.3016 H         1 UNK         0.0889 
     85 H85       -50.2431  -29.1761    9.3437 H         1 UNK         0.3028 
     86 H86       -49.0603  -29.9691    7.6847 H         1 UNK         0.0864 
     87 H87       -49.8508  -27.3602    6.3036 H         1 UNK         0.0720 
     88 H88       -49.1502  -28.7241    5.4637 H         1 UNK         0.0720 
     89 H89       -53.2760  -28.3464    5.0616 H         1 UNK         0.0814 
     90 H90       -51.8678  -27.3566    4.7873 H         1 UNK         0.0814 
     91 H91       -52.3266  -25.1849    5.6057 H         1 UNK         0.1469 
     92 H92       -54.5221  -24.5518    9.2289 H         1 UNK         0.1381 
     93 H93       -53.7211  -28.5426    7.8791 H         1 UNK         0.1206 
     94 H94       -55.8725  -27.6811    9.3767 H         1 UNK         0.0813 
     95 H95       -55.4475  -26.3727   10.4453 H         1 UNK         0.0813 
     96 H96       -55.1360  -30.4000   11.6185 H         1 UNK         0.0638 
     97 H97       -56.2446  -29.4353   10.7115 H         1 UNK         0.0638 
     98 H98       -56.1212  -27.7894   12.8169 H         1 UNK         0.0568 
     99 H99       -59.1679  -29.5465   14.2878 H         1 UNK         0.3450 
    100 H100      -57.6089  -29.2867   15.0290 H         1 UNK         0.3450 
    101 H101      -54.8930  -28.4503   14.5273 H         1 UNK         0.2987 
    102 H102      -54.7721  -29.8367   16.5364 H         1 UNK         0.0766 
    103 H103      -55.2965  -32.2310   16.7540 H         1 UNK         0.0798 
    104 H104      -53.6966  -31.9136   17.4063 H         1 UNK         0.0798 
    105 H105      -53.8751  -32.6812   15.8295 H         1 UNK         0.0798 
    106 H106      -52.7701  -29.0900   15.9889 H         1 UNK         0.3198 
    107 H107      -49.8550  -30.4197   14.7662 H         1 UNK         0.0843 
    108 H108      -51.4539  -28.3957   13.1171 H         1 UNK         0.0831 
    109 H109      -50.7155  -29.8648   12.4902 H         1 UNK         0.0831 
    110 H110      -49.6974  -28.5681   13.1020 H         1 UNK         0.0831 
    111 H111      -50.6055  -27.7003   15.3020 H         1 UNK         0.3133 
    112 H112      -50.0416  -27.8638   18.8377 H         1 UNK         0.0566 
    113 H113      -48.5267  -26.0161   18.1401 H         1 UNK         0.0814 
    114 H114      -48.5655  -26.5860   16.4725 H         1 UNK         0.0814 
    115 H115      -47.8413  -27.5798   17.7283 H         1 UNK         0.0814 
    116 H116      -50.9970  -26.0510   16.6800 H         1 UNK         0.3091 
    117 H117      -54.2736  -25.9124   17.9833 H         1 UNK         0.0702 
    118 H118      -53.8895  -23.4745   18.2604 H         1 UNK         0.0785 
    119 H119      -52.1438  -23.7275   18.3085 H         1 UNK         0.0785 
    120 H120      -53.1652  -24.3577   19.5932 H         1 UNK         0.0785 
    121 H121      -52.8768  -24.3426   16.0199 H         1 UNK         0.2998 
    122 H122      -53.2164  -26.6123   13.3312 H         1 UNK         0.0697 
    123 H123      -54.8400  -24.0569   13.8078 H         1 UNK         0.0825 
    124 H124      -55.5450  -25.6371   13.5154 H         1 UNK         0.0825 
    125 H125      -54.5810  -24.8682   12.2647 H         1 UNK         0.0825 
    126 H126      -52.4181  -23.9812   13.1141 H         1 UNK         0.3029 
    127 H127      -50.1562  -23.0846   13.9440 H         1 UNK         0.0897 
    128 H128      -48.2039  -25.4022   13.4630 H         1 UNK         0.0792 
    129 H129      -48.3899  -24.5017   14.9612 H         1 UNK         0.0792 
    130 H130      -47.7695  -23.6936   13.5327 H         1 UNK         0.0792 
    131 H131      -49.2650  -24.3575   11.4948 H         1 UNK         0.3086 
    132 H132      -51.2778  -24.2367    9.5180 H         1 UNK         0.0583 
    133 H133      -52.7151  -22.1864    9.5020 H         1 UNK         0.1020 
    134 H134      -51.2999  -21.1960    9.3067 H         1 UNK         0.1020 
    135 H135      -54.1447  -22.6993    7.7308 H         1 UNK         0.0694 
    136 H136      -53.7388  -23.0668    6.0813 H         1 UNK         0.0694 
    137 H137      -49.1825  -24.2230    8.8969 H         1 UNK         0.2989 
    138 H138      -46.7506  -21.7725    8.4399 H         1 UNK         0.1055 
    139 H139      -46.4860  -23.9339   10.6017 H         1 UNK         0.0806 
    140 H140      -46.1513  -22.2212   10.8207 H         1 UNK         0.0806 
    141 H141      -45.1519  -23.1746    9.7359 H         1 UNK         0.0806 
    142 H142      -46.6185  -24.6254    8.2193 H         1 UNK         0.3061 
    143 H143      -48.1347  -25.5631    5.9774 H         1 UNK         0.0734 
    144 H144      -48.3872  -24.0924    4.0085 H         1 UNK         0.0832 
    145 H145      -46.6550  -23.8011    3.9525 H         1 UNK         0.0832 
    146 H146      -47.2951  -25.4112    3.6224 H         1 UNK         0.0832 
    147 H147      -46.2178  -26.5773    6.3255 H         1 UNK         0.3156 
    148 H148      -43.2502  -26.5241    5.7764 H         1 UNK         0.0589 
    149 H149      -41.8704  -25.9084    7.7877 H         1 UNK         0.0808 
    150 H150      -42.1532  -24.5327    6.7366 H         1 UNK         0.0808 
    151 H151      -43.0684  -24.6915    8.2279 H         1 UNK         0.0808 
    152 H152      -44.0614  -28.0726    7.1206 H         1 UNK         0.3098 
    153 H153      -44.9489  -29.1850    8.7319 H         1 UNK         0.0720 
    154 H154      -44.2361  -28.2391   10.9472 H         1 UNK         0.0791 
    155 H155      -45.5679  -29.3707   11.1148 H         1 UNK         0.0791 
    156 H156      -45.8648  -27.6346   11.2146 H         1 UNK         0.0791 
    157 H157      -47.5167  -28.7549    9.6929 H         1 UNK         0.3028 
@<TRIPOS>BOND
     1    1    2 1    
     2    1   82 1    
     3    1   83 1    
     4    1   84 1    
     5    2    3 2    
     6    2    4 am   BACKBONE|DICT|INTERRES
     7    4    5 1    
     8    4   85 1    
     9    5    6 1    
    10    5   80 1    
    11    5   86 1    
    12    6    7 1    
    13    6   87 1    
    14    6   88 1    
    15    7    8 1    
    16    8    9 1    
    17    8   89 1    
    18    8   90 1    
    19    9   10 ar   
    20    9   14 ar   
    21   10   11 ar   
    22   10   91 1    
    23   11   12 ar   
    24   11   58 1    
    25   12   13 ar   
    26   12   92 1    
    27   13   14 ar   
    28   13   15 1    
    29   14   93 1    
    30   15   16 1    
    31   15   94 1    
    32   15   95 1    
    33   16   17 1    
    34   17   18 1    
    35   17   96 1    
    36   17   97 1    
    37   18   19 1    
    38   18   22 1    
    39   18   98 1    
    40   19   20 am   BACKBONE|DICT|INTERRES
    41   19   21 2    
    42   20   99 1    
    43   20  100 1    
    44   22   23 am   BACKBONE|DICT|INTERRES
    45   22  101 1    
    46   23   24 2    
    47   23   25 1    
    48   25   26 1    
    49   25   27 1    
    50   25  102 1    
    51   26  103 1    
    52   26  104 1    
    53   26  105 1    
    54   27   28 am   BACKBONE|DICT|INTERRES
    55   27  106 1    
    56   28   29 2    
    57   28   30 1    
    58   30   31 1    
    59   30   32 1    
    60   30  107 1    
    61   31  108 1    
    62   31  109 1    
    63   31  110 1    
    64   32   33 am   BACKBONE|DICT|INTERRES
    65   32  111 1    
    66   33   34 2    
    67   33   35 1    
    68   35   36 1    
    69   35   37 1    
    70   35  112 1    
    71   36  113 1    
    72   36  114 1    
    73   36  115 1    
    74   37   38 am   BACKBONE|DICT|INTERRES
    75   37  116 1    
    76   38   39 2    
    77   38   40 1    
    78   40   41 1    
    79   40   42 1    
    80   40  117 1    
    81   41  118 1    
    82   41  119 1    
    83   41  120 1    
    84   42   43 am   BACKBONE|DICT|INTERRES
    85   42  121 1    
    86   43   44 2    
    87   43   45 1    
    88   45   46 1    
    89   45   47 1    
    90   45  122 1    
    91   46  123 1    
    92   46  124 1    
    93   46  125 1    
    94   47   48 am   BACKBONE|DICT|INTERRES
    95   47  126 1    
    96   48   49 2    
    97   48   50 1    
    98   50   51 1    
    99   50   52 1    
   100   50  127 1    
   101   51  128 1    
   102   51  129 1    
   103   51  130 1    
   104   52   53 am   BACKBONE|DICT|INTERRES
   105   52  131 1    
   106   53   54 2    
   107   53   55 1    
   108   55   56 1    
   109   55   59 1    
   110   55  132 1    
   111   56   57 1    
   112   56  133 1    
   113   56  134 1    
   114   57   58 1    
   115   58  135 1    
   116   58  136 1    
   117   59   60 am   BACKBONE|DICT|INTERRES
   118   59  137 1    
   119   60   61 2    
   120   60   62 1    
   121   62   63 1    
   122   62   64 1    
   123   62  138 1    
   124   63  139 1    
   125   63  140 1    
   126   63  141 1    
   127   64   65 am   BACKBONE|DICT|INTERRES
   128   64  142 1    
   129   65   66 2    
   130   65   67 1    
   131   67   68 1    
   132   67   69 1    
   133   67  143 1    
   134   68  144 1    
   135   68  145 1    
   136   68  146 1    
   137   69   70 am   BACKBONE|DICT|INTERRES
   138   69  147 1    
   139   70   71 2    
   140   70   72 1    
   141   72   73 1    
   142   72   74 1    
   143   72  148 1    
   144   73  149 1    
   145   73  150 1    
   146   73  151 1    
   147   74   75 am   BACKBONE|DICT|INTERRES
   148   74  152 1    
   149   75   76 2    
   150   75   77 1    
   151   77   78 1    
   152   77   79 1    
   153   77  153 1    
   154   78  154 1    
   155   78  155 1    
   156   78  156 1    
   157   79   80 am   BACKBONE|DICT|INTERRES
   158   79  157 1    
   159   80   81 2    
@<TRIPOS>SUBSTRUCTURE
     1 UNK         1 GROUP             0       ****    0 ROOT    
