@<TRIPOS>MOLECULE
3R207
157   159    1
SMALL
USER_CHARGES


@<TRIPOS>ATOM
      1 CA        -46.6748  -32.9627    4.6076 C.3       0 UNK        -0.1975 
      2 C         -47.4644  -32.0264    5.5101 C.2       0 UNK         0.4852 
      3 O         -48.4400  -32.4554    6.1286 O.2       0 UNK        -0.5216 
      4 N         -47.0465  -30.7543    5.5924 N.am      1 UNK        -0.4461 
      5 CA        -47.6280  -29.6715    6.3978 C.3       1 UNK         0.0864 
      6 C6        -49.1161  -29.3812    6.0544 C.3       14 UNK        -0.0898 
      7 S7        -49.7225  -27.7983    6.7261 S.3       14 UNK        -0.2598 
      8 C8        -51.2325  -27.5917    5.7343 C.3       14 UNK         0.0286 
      9 C9        -52.0659  -26.4134    6.2158 C.ar      14 UNK        -0.0844 
     10 C10       -51.7824  -25.1187    5.7684 C.ar      14 UNK        -0.0881 
     11 C11       -52.5644  -24.0365    6.1852 C.ar      14 UNK        -0.0643 
     12 C12       -53.6350  -24.2575    7.0562 C.ar      14 UNK        -0.0930 
     13 C13       -53.9283  -25.5464    7.5102 C.ar      14 UNK        -0.0827 
     14 C14       -53.1400  -26.6210    7.0874 C.ar      14 UNK        -0.1249 
     15 C15       -55.1089  -25.7731    8.4421 C.3       14 UNK         0.0141 
     16 S16       -54.5542  -26.1233   10.1380 S.3       14 UNK        -0.2313 
     17 C17       -54.8636  -27.9167   10.2871 C.3       14 UNK        -0.0915 
     18 CA        -56.0322  -28.2303   11.2580 C.3       13 UNK         0.0968 
     19 C         -56.3639  -29.7525   11.2458 C.2       13 UNK         0.5732 
     20 N         -56.1439  -30.5020   12.3209 N.am      13 UNK        -0.7310 
     21 O         -56.8385  -30.2634   10.2342 O.2       13 UNK        -0.5035 
     22 N         -55.7669  -27.6744   12.5918 N.am      13 UNK        -0.4233 
     23 C         -56.6636  -27.5242   13.5736 C.2       13 UNK         0.4989 
     24 O         -57.8710  -27.7285   13.4354 O.2       13 UNK        -0.4996 
     25 CA        -56.1020  -27.0822   14.9436 C.3       12 UNK         0.0216 
     26 CB        -57.0034  -27.5164   16.1189 C.3       12 UNK        -0.1964 
     27 N         -54.7116  -27.5107   15.1770 N.am      12 UNK        -0.4276 
     28 C         -54.2335  -28.7666   15.1542 C.2       12 UNK         0.5020 
     29 O         -54.9277  -29.7590   14.9293 O.2       12 UNK        -0.5489 
     30 CA        -52.7172  -28.9515   15.3436 C.3       11 UNK         0.0294 
     31 CB        -52.0629  -29.3292   14.0027 C.3       11 UNK        -0.2019 
     32 N         -52.0381  -27.7685   15.8787 N.am      11 UNK        -0.4493 
     33 C         -52.0540  -27.3792   17.1617 C.2       11 UNK         0.4932 
     34 O         -52.6795  -27.9668   18.0452 O.2       11 UNK        -0.5029 
     35 CA        -51.2441  -26.1101   17.4955 C.3       10 UNK         0.0280 
     36 CB        -50.8743  -25.9978   18.9903 C.3       10 UNK        -0.1976 
     37 N         -50.0685  -25.9441   16.6285 N.am      10 UNK        -0.4242 
     38 C         -48.9752  -26.7261   16.5756 C.2       10 UNK         0.5072 
     39 O         -48.7805  -27.6763   17.3345 O.2       10 UNK        -0.5224 
     40 CA        -47.9322  -26.4462   15.4709 C.3       9 UNK         0.0343 
     41 CB        -47.8280  -27.6561   14.5272 C.3       9 UNK        -0.2003 
     42 N         -48.2126  -25.2469   14.6754 N.am      9 UNK        -0.4272 
     43 C         -48.0364  -23.9879   15.1054 C.2       9 UNK         0.4988 
     44 O         -47.5071  -23.7022   16.1795 O.2       9 UNK        -0.5108 
     45 CA        -48.5840  -22.8543   14.2167 C.3       8 UNK         0.0248 
     46 CB        -47.4560  -22.2145   13.3955 C.3       8 UNK        -0.2001 
     47 N         -49.6675  -23.2736   13.3203 N.am      8 UNK        -0.4140 
     48 C         -50.8582  -23.7422   13.7207 C.2       8 UNK         0.5028 
     49 O         -51.1739  -23.8528   14.9063 O.2       8 UNK        -0.5428 
     50 CA        -51.8311  -24.2509   12.6445 C.3       7 UNK         0.0264 
     51 CB        -53.2836  -23.8035   12.9191 C.3       7 UNK        -0.1988 
     52 N         -51.3969  -23.9779   11.2654 N.am      7 UNK        -0.4454 
     53 C         -51.4836  -22.8309   10.5758 C.2       7 UNK         0.5027 
     54 O         -51.9630  -21.7863   11.0195 O.2       7 UNK        -0.5083 
     55 CA        -50.9055  -22.8770    9.1466 C.3       6 UNK         0.0844 
     56 C56       -51.4348  -21.7302    8.2425 C.3       14 UNK        -0.0967 
     57 S57       -50.8380  -21.8805    6.5212 S.3       14 UNK        -0.2604 
     58 C58       -52.2678  -22.6310    5.6803 C.3       14 UNK         0.0134 
     59 N         -49.4423  -22.9672    9.1621 N.am      6 UNK        -0.4116 
     60 C         -48.5659  -22.0716    9.6346 C.2       5 UNK         0.5034 
     61 O         -48.8817  -21.0469   10.2400 O.2       5 UNK        -0.5045 
     62 CA        -47.0759  -22.3876    9.3816 C.3       5 UNK         0.0224 
     63 CB        -46.1333  -21.2740    9.8767 C.3       5 UNK        -0.1978 
     64 N         -46.6622  -23.6621    9.9770 N.am      5 UNK        -0.4737 
     65 C         -46.9809  -24.8747    9.5086 C.2       4 UNK         0.5027 
     66 O         -47.6439  -25.0452    8.4836 O.2       4 UNK        -0.5211 
     67 CA        -46.5001  -26.1018   10.3026 C.3       4 UNK         0.0297 
     68 CB        -45.8300  -25.7795   11.6581 C.3       4 UNK        -0.1993 
     69 N         -47.5864  -27.0721   10.4572 N.am      4 UNK        -0.4486 
     70 C         -48.7456  -26.9048   11.1147 C.2       3 UNK         0.4961 
     71 O         -49.0186  -25.9063   11.7851 O.2       3 UNK        -0.5105 
     72 CA        -49.8020  -28.0233   11.0057 C.3       3 UNK         0.0299 
     73 CB        -51.0530  -27.5121   10.2733 C.3       3 UNK        -0.1972 
     74 N         -49.3175  -29.2208   10.3180 N.am      3 UNK        -0.4305 
     75 C         -48.5124  -30.1497   10.8536 C.2       2 UNK         0.5006 
     76 O         -48.1583  -30.1489   12.0323 O.2       2 UNK        -0.5106 
     77 CA        -47.9899  -31.2549    9.9132 C.3       2 UNK         0.0296 
     78 CB        -48.7750  -32.5584   10.1307 C.3       2 UNK        -0.2002 
     79 N         -48.0239  -30.9094    8.4863 N.am      2 UNK        -0.4032 
     80 C         -47.3903  -29.8791    7.9082 C.2       1 UNK         0.5000 
     81 O         -46.6625  -29.0979    8.5231 O.2       1 UNK        -0.5238 
     82 H82       -45.8425  -32.4556    4.1200 H         1 UNK         0.0889 
     83 H83       -47.3235  -33.3712    3.8332 H         1 UNK         0.0889 
     84 H84       -46.2733  -33.7925    5.1886 H         1 UNK         0.0889 
     85 H85       -46.2212  -30.4885    5.0721 H         1 UNK         0.3028 
     86 H86       -47.0587  -28.7822    6.1209 H         1 UNK         0.0864 
     87 H87       -49.2322  -29.3485    4.9699 H         1 UNK         0.0720 
     88 H88       -49.7738  -30.1798    6.4010 H         1 UNK         0.0720 
     89 H89       -51.8219  -28.5090    5.7786 H         1 UNK         0.0814 
     90 H90       -50.9613  -27.4514    4.6867 H         1 UNK         0.0814 
     91 H91       -50.9529  -24.9520    5.0946 H         1 UNK         0.1469 
     92 H92       -54.2447  -23.4241    7.3772 H         1 UNK         0.1381 
     93 H93       -53.3653  -27.6191    7.4372 H         1 UNK         0.1206 
     94 H94       -55.7377  -26.5771    8.0583 H         1 UNK         0.0813 
     95 H95       -55.7461  -24.8878    8.4695 H         1 UNK         0.0813 
     96 H96       -53.9492  -28.3901   10.6455 H         1 UNK         0.0638 
     97 H97       -55.0507  -28.3400    9.2990 H         1 UNK         0.0638 
     98 H98       -56.9235  -27.7302   10.8746 H         1 UNK         0.0568 
     99 H99       -56.3719  -31.4823   12.2856 H         1 UNK         0.3450 
    100 H100      -55.7590  -30.1090   13.1741 H         1 UNK         0.3450 
    101 H101      -54.8019  -27.4664   12.7917 H         1 UNK         0.2987 
    102 H102      -56.0880  -25.9915   14.9231 H         1 UNK         0.0766 
    103 H103      -58.0034  -27.0908   16.0263 H         1 UNK         0.0798 
    104 H104      -56.5984  -27.1819   17.0740 H         1 UNK         0.0798 
    105 H105      -57.1140  -28.6004   16.1633 H         1 UNK         0.0798 
    106 H106      -54.0501  -26.7705   15.3630 H         1 UNK         0.3198 
    107 H107      -52.5748  -29.7790   16.0422 H         1 UNK         0.0843 
    108 H108      -52.1872  -28.5446   13.2556 H         1 UNK         0.0831 
    109 H109      -52.5075  -30.2378   13.5934 H         1 UNK         0.0831 
    110 H110      -50.9959  -29.5212   14.1194 H         1 UNK         0.0831 
    111 H111      -51.4867  -27.2267   15.2305 H         1 UNK         0.3133 
    112 H112      -51.9009  -25.2705   17.2638 H         1 UNK         0.0566 
    113 H113      -50.2971  -25.0949   19.1894 H         1 UNK         0.0814 
    114 H114      -50.2905  -26.8527   19.3321 H         1 UNK         0.0814 
    115 H115      -51.7702  -25.9516   19.6105 H         1 UNK         0.0814 
    116 H116      -50.1471  -25.1774   15.9657 H         1 UNK         0.3091 
    117 H117      -46.9663  -26.3146   15.9628 H         1 UNK         0.0702 
    118 H118      -47.0804  -27.4981   13.7514 H         1 UNK         0.0785 
    119 H119      -48.7790  -27.8696   14.0397 H         1 UNK         0.0785 
    120 H120      -47.5367  -28.5557   15.0709 H         1 UNK         0.0785 
    121 H121      -48.6181  -25.3931   13.7560 H         1 UNK         0.2998 
    122 H122      -48.9910  -22.0920   14.8843 H         1 UNK         0.0697 
    123 H123      -47.0247  -22.9203   12.6880 H         1 UNK         0.0825 
    124 H124      -46.6495  -21.8666   14.0425 H         1 UNK         0.0825 
    125 H125      -47.8163  -21.3501   12.8373 H         1 UNK         0.0825 
    126 H126      -49.4772  -23.2582   12.3292 H         1 UNK         0.3029 
    127 H127      -51.8135  -25.3370   12.7387 H         1 UNK         0.0897 
    128 H128      -53.3635  -22.7203   13.0132 H         1 UNK         0.0792 
    129 H129      -53.6528  -24.2314   13.8518 H         1 UNK         0.0792 
    130 H130      -53.9614  -24.1193   12.1284 H         1 UNK         0.0792 
    131 H131      -50.9175  -24.7499   10.8208 H         1 UNK         0.3086 
    132 H132      -51.2508  -23.8168    8.7131 H         1 UNK         0.0583 
    133 H133      -52.5258  -21.7088    8.2467 H         1 UNK         0.1020 
    134 H134      -51.1178  -20.7601    8.6295 H         1 UNK         0.1020 
    135 H135      -53.1380  -21.9834    5.7990 H         1 UNK         0.0694 
    136 H136      -52.0636  -22.6692    4.6093 H         1 UNK         0.0694 
    137 H137      -49.0454  -23.7923    8.7186 H         1 UNK         0.2989 
    138 H138      -46.9533  -22.4584    8.2980 H         1 UNK         0.1055 
    139 H139      -46.1854  -21.1435   10.9575 H         1 UNK         0.0806 
    140 H140      -46.3886  -20.3160    9.4215 H         1 UNK         0.0806 
    141 H141      -45.0967  -21.4862    9.6144 H         1 UNK         0.0806 
    142 H142      -46.1174  -23.6088   10.8247 H         1 UNK         0.3061 
    143 H143      -45.7515  -26.5869    9.6746 H         1 UNK         0.0734 
    144 H144      -46.5068  -25.2764   12.3474 H         1 UNK         0.0832 
    145 H145      -45.4841  -26.6916   12.1436 H         1 UNK         0.0832 
    146 H146      -44.9520  -25.1458   11.5280 H         1 UNK         0.0832 
    147 H147      -47.4736  -27.9084    9.8922 H         1 UNK         0.3156 
    148 H148      -50.0894  -28.3065   12.0187 H         1 UNK         0.0589 
    149 H149      -51.7257  -28.3284   10.0134 H         1 UNK         0.0808 
    150 H150      -51.6166  -26.8222   10.8986 H         1 UNK         0.0808 
    151 H151      -50.8028  -26.9859    9.3513 H         1 UNK         0.0808 
    152 H152      -49.5554  -29.3036    9.3400 H         1 UNK         0.3098 
    153 H153      -46.9462  -31.4341   10.1790 H         1 UNK         0.0720 
    154 H154      -48.7427  -32.8651   11.1773 H         1 UNK         0.0791 
    155 H155      -48.3579  -33.3761    9.5422 H         1 UNK         0.0791 
    156 H156      -49.8245  -32.4473    9.8551 H         1 UNK         0.0791 
    157 H157      -48.5264  -31.5404    7.8680 H         1 UNK         0.3028 
@<TRIPOS>BOND
     1    1    2 1    
     2    1   82 1    
     3    1   83 1    
     4    1   84 1    
     5    2    3 2    
     6    2    4 am   BACKBONE|DICT|INTERRES
     7    4    5 1    
     8    4   85 1    
     9    5    6 1    
    10    5   80 1    
    11    5   86 1    
    12    6    7 1    
    13    6   87 1    
    14    6   88 1    
    15    7    8 1    
    16    8    9 1    
    17    8   89 1    
    18    8   90 1    
    19    9   10 ar   
    20    9   14 ar   
    21   10   11 ar   
    22   10   91 1    
    23   11   12 ar   
    24   11   58 1    
    25   12   13 ar   
    26   12   92 1    
    27   13   14 ar   
    28   13   15 1    
    29   14   93 1    
    30   15   16 1    
    31   15   94 1    
    32   15   95 1    
    33   16   17 1    
    34   17   18 1    
    35   17   96 1    
    36   17   97 1    
    37   18   19 1    
    38   18   22 1    
    39   18   98 1    
    40   19   20 am   BACKBONE|DICT|INTERRES
    41   19   21 2    
    42   20   99 1    
    43   20  100 1    
    44   22   23 am   BACKBONE|DICT|INTERRES
    45   22  101 1    
    46   23   24 2    
    47   23   25 1    
    48   25   26 1    
    49   25   27 1    
    50   25  102 1    
    51   26  103 1    
    52   26  104 1    
    53   26  105 1    
    54   27   28 am   BACKBONE|DICT|INTERRES
    55   27  106 1    
    56   28   29 2    
    57   28   30 1    
    58   30   31 1    
    59   30   32 1    
    60   30  107 1    
    61   31  108 1    
    62   31  109 1    
    63   31  110 1    
    64   32   33 am   BACKBONE|DICT|INTERRES
    65   32  111 1    
    66   33   34 2    
    67   33   35 1    
    68   35   36 1    
    69   35   37 1    
    70   35  112 1    
    71   36  113 1    
    72   36  114 1    
    73   36  115 1    
    74   37   38 am   BACKBONE|DICT|INTERRES
    75   37  116 1    
    76   38   39 2    
    77   38   40 1    
    78   40   41 1    
    79   40   42 1    
    80   40  117 1    
    81   41  118 1    
    82   41  119 1    
    83   41  120 1    
    84   42   43 am   BACKBONE|DICT|INTERRES
    85   42  121 1    
    86   43   44 2    
    87   43   45 1    
    88   45   46 1    
    89   45   47 1    
    90   45  122 1    
    91   46  123 1    
    92   46  124 1    
    93   46  125 1    
    94   47   48 am   BACKBONE|DICT|INTERRES
    95   47  126 1    
    96   48   49 2    
    97   48   50 1    
    98   50   51 1    
    99   50   52 1    
   100   50  127 1    
   101   51  128 1    
   102   51  129 1    
   103   51  130 1    
   104   52   53 am   BACKBONE|DICT|INTERRES
   105   52  131 1    
   106   53   54 2    
   107   53   55 1    
   108   55   56 1    
   109   55   59 1    
   110   55  132 1    
   111   56   57 1    
   112   56  133 1    
   113   56  134 1    
   114   57   58 1    
   115   58  135 1    
   116   58  136 1    
   117   59   60 am   BACKBONE|DICT|INTERRES
   118   59  137 1    
   119   60   61 2    
   120   60   62 1    
   121   62   63 1    
   122   62   64 1    
   123   62  138 1    
   124   63  139 1    
   125   63  140 1    
   126   63  141 1    
   127   64   65 am   BACKBONE|DICT|INTERRES
   128   64  142 1    
   129   65   66 2    
   130   65   67 1    
   131   67   68 1    
   132   67   69 1    
   133   67  143 1    
   134   68  144 1    
   135   68  145 1    
   136   68  146 1    
   137   69   70 am   BACKBONE|DICT|INTERRES
   138   69  147 1    
   139   70   71 2    
   140   70   72 1    
   141   72   73 1    
   142   72   74 1    
   143   72  148 1    
   144   73  149 1    
   145   73  150 1    
   146   73  151 1    
   147   74   75 am   BACKBONE|DICT|INTERRES
   148   74  152 1    
   149   75   76 2    
   150   75   77 1    
   151   77   78 1    
   152   77   79 1    
   153   77  153 1    
   154   78  154 1    
   155   78  155 1    
   156   78  156 1    
   157   79   80 am   BACKBONE|DICT|INTERRES
   158   79  157 1    
   159   80   81 2    
@<TRIPOS>SUBSTRUCTURE
     1 UNK         1 GROUP             0       ****    0 ROOT    
