@<TRIPOS>MOLECULE
3R207
157   159    1
SMALL
USER_CHARGES


@<TRIPOS>ATOM
      1 CA        -49.9017  -20.5643    3.6181 C.3       0 UNK        -0.1975 
      2 C         -49.8718  -22.0235    4.0480 C.2       0 UNK         0.4852 
      3 O         -49.8040  -22.9081    3.1931 O.2       0 UNK        -0.5216 
      4 N         -49.9215  -22.2767    5.3644 N.am      1 UNK        -0.4461 
      5 CA        -49.8773  -23.5896    6.0195 C.3       1 UNK         0.0864 
      6 C6        -51.0485  -24.5256    5.6035 C.3       14 UNK        -0.0898 
      7 S7        -51.1383  -26.0469    6.6033 S.3       14 UNK        -0.2598 
      8 C8        -52.5243  -25.6637    7.7326 C.3       14 UNK         0.0286 
      9 C9        -52.7238  -26.6519    8.8856 C.ar      14 UNK        -0.0844 
     10 C10       -52.0434  -27.8759    8.9646 C.ar      14 UNK        -0.0881 
     11 C11       -52.2390  -28.7372   10.0455 C.ar      14 UNK        -0.0643 
     12 C12       -53.1479  -28.3891   11.0427 C.ar      14 UNK        -0.0930 
     13 C13       -53.8451  -27.1820   10.9792 C.ar      14 UNK        -0.0827 
     14 C14       -53.6250  -26.3161    9.9033 C.ar      14 UNK        -0.1249 
     15 C15       -54.8228  -26.8220   12.0877 C.3       14 UNK         0.0141 
     16 S16       -56.5618  -26.8730   11.5527 S.3       14 UNK        -0.2313 
     17 C17       -56.7661  -28.5614   10.8853 C.3       14 UNK        -0.0915 
     18 CA        -57.5455  -29.5065   11.8483 C.3       13 UNK         0.0968 
     19 C         -58.2822  -30.6705   11.1086 C.2       13 UNK         0.5732 
     20 N         -58.5124  -31.8146   11.7429 N.am      13 UNK        -0.7310 
     21 O         -58.6916  -30.5308    9.9583 O.2       13 UNK        -0.5035 
     22 N         -56.7487  -29.9364   13.0167 N.am      13 UNK        -0.4233 
     23 C         -55.6956  -30.7697   12.9931 C.2       13 UNK         0.4989 
     24 O         -55.1723  -31.1915   11.9607 O.2       13 UNK        -0.4996 
     25 CA        -55.1792  -31.2453   14.3666 C.3       12 UNK         0.0216 
     26 CB        -53.9208  -32.1381   14.2714 C.3       12 UNK        -0.1964 
     27 N         -54.9920  -30.1395   15.3150 N.am      12 UNK        -0.4276 
     28 C         -54.0777  -29.1639   15.2384 C.2       12 UNK         0.5020 
     29 O         -53.1880  -29.1050   14.3895 O.2       12 UNK        -0.5489 
     30 CA        -54.1621  -28.0725   16.3072 C.3       11 UNK         0.0294 
     31 CB        -53.3732  -28.4743   17.5651 C.3       11 UNK        -0.2019 
     32 N         -53.5938  -26.8447   15.7615 N.am      11 UNK        -0.4493 
     33 C         -54.0998  -25.6172   15.9177 C.2       11 UNK         0.4932 
     34 O         -55.1418  -25.3767   16.5293 O.2       11 UNK        -0.5029 
     35 CA        -53.2785  -24.4704   15.3002 C.3       10 UNK         0.0280 
     36 CB        -53.7859  -23.0681   15.6967 C.3       10 UNK        -0.1976 
     37 N         -51.8478  -24.6135   15.5857 N.am      10 UNK        -0.4242 
     38 C         -51.2456  -24.6402   16.7855 C.2       10 UNK         0.5072 
     39 O         -51.8249  -24.4778   17.8604 O.2       10 UNK        -0.5224 
     40 CA        -49.7287  -24.9057   16.7912 C.3       9 UNK         0.0343 
     41 CB        -49.4557  -26.4068   16.9775 C.3       9 UNK        -0.2003 
     42 N         -49.0549  -24.4330   15.5782 N.am      9 UNK        -0.4272 
     43 C         -48.9243  -23.1402   15.2437 C.2       9 UNK         0.4988 
     44 O         -49.2759  -22.2054   15.9646 O.2       9 UNK        -0.5108 
     45 CA        -48.3187  -22.8344   13.8656 C.3       8 UNK         0.0248 
     46 CB        -46.7834  -22.8430   13.9385 C.3       8 UNK        -0.2001 
     47 N         -48.7726  -23.7628   12.8269 N.am      8 UNK        -0.4140 
     48 C         -50.0291  -23.8410   12.3631 C.2       8 UNK         0.5028 
     49 O         -50.9447  -23.1073   12.7350 O.2       8 UNK        -0.5428 
     50 CA        -50.3232  -24.9445   11.3333 C.3       7 UNK         0.0264 
     51 CB        -49.7697  -24.5716    9.9482 C.3       7 UNK        -0.1988 
     52 N         -49.7914  -26.2441   11.7425 N.am      7 UNK        -0.4454 
     53 C         -50.2172  -26.9487   12.8022 C.2       7 UNK         0.5027 
     54 O         -51.1326  -26.5864   13.5433 O.2       7 UNK        -0.5083 
     55 CA        -49.4389  -28.2392   13.1393 C.3       6 UNK         0.0844 
     56 C56       -50.0990  -29.5180   12.5657 C.3       14 UNK        -0.0967 
     57 S57       -49.7900  -29.7953   10.7854 S.3       14 UNK        -0.2604 
     58 C58       -51.4707  -30.0455   10.1320 C.3       14 UNK         0.0134 
     59 N         -48.0176  -28.1441   12.7915 N.am      6 UNK        -0.4116 
     60 C         -47.1414  -27.3286   13.3900 C.2       5 UNK         0.5034 
     61 O         -47.4296  -26.5670   14.3141 O.2       5 UNK        -0.5045 
     62 CA        -45.7109  -27.3422   12.8310 C.3       5 UNK         0.0224 
     63 CB        -45.0269  -28.6986   13.0708 C.3       5 UNK        -0.1978 
     64 N         -45.6343  -26.9934   11.4078 N.am      5 UNK        -0.4737 
     65 C         -46.0055  -25.8190   10.8840 C.2       4 UNK         0.5027 
     66 O         -46.5950  -24.9487   11.5188 O.2       4 UNK        -0.5211 
     67 CA        -45.6351  -25.5425    9.4195 C.3       4 UNK         0.0297 
     68 CB        -44.1141  -25.6354    9.1817 C.3       4 UNK        -0.1993 
     69 N         -46.3829  -26.3373    8.4433 N.am      4 UNK        -0.4486 
     70 C         -46.3495  -27.6636    8.2393 C.2       3 UNK         0.4961 
     71 O         -45.7051  -28.4519    8.9327 O.2       3 UNK        -0.5105 
     72 CA        -47.1583  -28.2101    7.0443 C.3       3 UNK         0.0299 
     73 CB        -48.4899  -28.7953    7.5321 C.3       3 UNK        -0.1972 
     74 N         -47.4282  -27.2056    6.0104 N.am      3 UNK        -0.4305 
     75 C         -46.4955  -26.6333    5.2337 C.2       2 UNK         0.5006 
     76 O         -45.3144  -26.9819    5.2214 O.2       2 UNK        -0.5106 
     77 CA        -46.9321  -25.4607    4.3315 C.3       2 UNK         0.0296 
     78 CB        -47.0331  -25.9215    2.8681 C.3       2 UNK        -0.2002 
     79 N         -48.1890  -24.8003    4.7064 N.am      2 UNK        -0.4032 
     80 C         -48.4827  -24.2386    5.8880 C.2       1 UNK         0.5000 
     81 O         -47.7181  -24.2347    6.8549 O.2       1 UNK        -0.5238 
     82 H82       -49.0006  -20.3212    3.0556 H         1 UNK         0.0889 
     83 H83       -49.9624  -19.8877    4.4705 H         1 UNK         0.0889 
     84 H84       -50.7636  -20.3805    2.9772 H         1 UNK         0.0889 
     85 H85       -49.9520  -21.4921    6.0015 H         1 UNK         0.3028 
     86 H86       -50.0085  -23.3762    7.0814 H         1 UNK         0.0864 
     87 H87       -50.9733  -24.8197    4.5560 H         1 UNK         0.0720 
     88 H88       -51.9954  -23.9902    5.6878 H         1 UNK         0.0720 
     89 H89       -53.4455  -25.6127    7.1508 H         1 UNK         0.0814 
     90 H90       -52.3623  -24.6692    8.1510 H         1 UNK         0.0814 
     91 H91       -51.3519  -28.1754    8.1930 H         1 UNK         0.1469 
     92 H92       -53.3152  -29.0626   11.8707 H         1 UNK         0.1381 
     93 H93       -54.1630  -25.3789    9.8585 H         1 UNK         0.1206 
     94 H94       -54.7045  -27.4896   12.9394 H         1 UNK         0.0813 
     95 H95       -54.5945  -25.8205   12.4530 H         1 UNK         0.0813 
     96 H96       -55.8085  -28.9947   10.6017 H         1 UNK         0.0638 
     97 H97       -57.3062  -28.4271    9.9473 H         1 UNK         0.0638 
     98 H98       -58.3677  -28.9244   12.2655 H         1 UNK         0.0568 
     99 H99       -59.0004  -32.5528   11.2607 H         1 UNK         0.3450 
    100 H100      -58.2119  -31.9469   12.6943 H         1 UNK         0.3450 
    101 H101      -57.1108  -29.6465   13.9128 H         1 UNK         0.2987 
    102 H102      -55.9742  -31.8652   14.7835 H         1 UNK         0.0766 
    103 H103      -53.5837  -32.4570   15.2575 H         1 UNK         0.0798 
    104 H104      -53.0911  -31.6277   13.7816 H         1 UNK         0.0798 
    105 H105      -54.1277  -33.0391   13.6927 H         1 UNK         0.0798 
    106 H106      -55.6597  -30.1022   16.0737 H         1 UNK         0.3198 
    107 H107      -55.2123  -27.9208   16.5667 H         1 UNK         0.0843 
    108 H108      -52.3210  -28.6536   17.3389 H         1 UNK         0.0831 
    109 H109      -53.7738  -29.3874   18.0070 H         1 UNK         0.0831 
    110 H110      -53.4219  -27.6959   18.3270 H         1 UNK         0.0831 
    111 H111      -52.7880  -26.9790   15.1578 H         1 UNK         0.3133 
    112 H112      -53.3795  -24.5640   14.2182 H         1 UNK         0.0566 
    113 H113      -53.1869  -22.2862   15.2295 H         1 UNK         0.0814 
    114 H114      -54.8180  -22.9220   15.3758 H         1 UNK         0.0814 
    115 H115      -53.7561  -22.9146   16.7759 H         1 UNK         0.0814 
    116 H116      -51.2776  -24.8307   14.7763 H         1 UNK         0.3091 
    117 H117      -49.3013  -24.3720   17.6426 H         1 UNK         0.0702 
    118 H118      -48.3865  -26.6144   17.0260 H         1 UNK         0.0785 
    119 H119      -49.8762  -26.9950   16.1619 H         1 UNK         0.0785 
    120 H120      -49.9006  -26.7718   17.9042 H         1 UNK         0.0785 
    121 H121      -48.6612  -25.1407   14.9644 H         1 UNK         0.2998 
    122 H122      -48.6395  -21.8311   13.5776 H         1 UNK         0.0697 
    123 H123      -46.3974  -23.8334   14.1836 H         1 UNK         0.0825 
    124 H124      -46.4229  -22.1517   14.7013 H         1 UNK         0.0825 
    125 H125      -46.3409  -22.5389   12.9897 H         1 UNK         0.0825 
    126 H126      -48.0580  -24.3661   12.4210 H         1 UNK         0.3029 
    127 H127      -51.4075  -25.0461   11.2526 H         1 UNK         0.0897 
    128 H128      -49.9474  -25.3659    9.2248 H         1 UNK         0.0792 
    129 H129      -48.6972  -24.3790    9.9685 H         1 UNK         0.0792 
    130 H130      -50.2535  -23.6702    9.5709 H         1 UNK         0.0792 
    131 H131      -49.0207  -26.6123   11.2064 H         1 UNK         0.3086 
    132 H132      -49.4856  -28.3346   14.2258 H         1 UNK         0.0583 
    133 H133      -49.7089  -30.3868   13.0977 H         1 UNK         0.1020 
    134 H134      -51.1694  -29.5209   12.7730 H         1 UNK         0.1020 
    135 H135      -51.3980  -30.4901    9.1384 H         1 UNK         0.0694 
    136 H136      -52.0037  -30.7692   10.7514 H         1 UNK         0.0694 
    137 H137      -47.7076  -28.7222   12.0235 H         1 UNK         0.2989 
    138 H138      -45.1504  -26.5831   13.3813 H         1 UNK         0.1055 
    139 H139      -45.0862  -28.9867   14.1215 H         1 UNK         0.0806 
    140 H140      -43.9695  -28.6582   12.8085 H         1 UNK         0.0806 
    141 H141      -45.4842  -29.4974   12.4857 H         1 UNK         0.0806 
    142 H142      -45.2486  -27.6826   10.7701 H         1 UNK         0.3061 
    143 H143      -45.9222  -24.5079    9.2227 H         1 UNK         0.0734 
    144 H144      -43.8546  -25.3141    8.1729 H         1 UNK         0.0832 
    145 H145      -43.5724  -24.9914    9.8758 H         1 UNK         0.0832 
    146 H146      -43.7327  -26.6479    9.3151 H         1 UNK         0.0832 
    147 H147      -46.9578  -25.7794    7.8168 H         1 UNK         0.3156 
    148 H148      -46.5763  -29.0130    6.5873 H         1 UNK         0.0589 
    149 H149      -49.0689  -28.0558    8.0857 H         1 UNK         0.0808 
    150 H150      -49.1008  -29.1582    6.7054 H         1 UNK         0.0808 
    151 H151      -48.3155  -29.6399    8.1992 H         1 UNK         0.0808 
    152 H152      -48.3773  -26.8668    5.9427 H         1 UNK         0.3098 
    153 H153      -46.1465  -24.7055    4.3974 H         1 UNK         0.0720 
    154 H154      -47.2304  -25.0827    2.2001 H         1 UNK         0.0791 
    155 H155      -47.8289  -26.6549    2.7314 H         1 UNK         0.0791 
    156 H156      -46.1021  -26.3842    2.5367 H         1 UNK         0.0791 
    157 H157      -48.8633  -24.6611    3.9623 H         1 UNK         0.3028 
@<TRIPOS>BOND
     1    1    2 1    
     2    1   82 1    
     3    1   83 1    
     4    1   84 1    
     5    2    3 2    
     6    2    4 am   BACKBONE|DICT|INTERRES
     7    4    5 1    
     8    4   85 1    
     9    5    6 1    
    10    5   80 1    
    11    5   86 1    
    12    6    7 1    
    13    6   87 1    
    14    6   88 1    
    15    7    8 1    
    16    8    9 1    
    17    8   89 1    
    18    8   90 1    
    19    9   10 ar   
    20    9   14 ar   
    21   10   11 ar   
    22   10   91 1    
    23   11   12 ar   
    24   11   58 1    
    25   12   13 ar   
    26   12   92 1    
    27   13   14 ar   
    28   13   15 1    
    29   14   93 1    
    30   15   16 1    
    31   15   94 1    
    32   15   95 1    
    33   16   17 1    
    34   17   18 1    
    35   17   96 1    
    36   17   97 1    
    37   18   19 1    
    38   18   22 1    
    39   18   98 1    
    40   19   20 am   BACKBONE|DICT|INTERRES
    41   19   21 2    
    42   20   99 1    
    43   20  100 1    
    44   22   23 am   BACKBONE|DICT|INTERRES
    45   22  101 1    
    46   23   24 2    
    47   23   25 1    
    48   25   26 1    
    49   25   27 1    
    50   25  102 1    
    51   26  103 1    
    52   26  104 1    
    53   26  105 1    
    54   27   28 am   BACKBONE|DICT|INTERRES
    55   27  106 1    
    56   28   29 2    
    57   28   30 1    
    58   30   31 1    
    59   30   32 1    
    60   30  107 1    
    61   31  108 1    
    62   31  109 1    
    63   31  110 1    
    64   32   33 am   BACKBONE|DICT|INTERRES
    65   32  111 1    
    66   33   34 2    
    67   33   35 1    
    68   35   36 1    
    69   35   37 1    
    70   35  112 1    
    71   36  113 1    
    72   36  114 1    
    73   36  115 1    
    74   37   38 am   BACKBONE|DICT|INTERRES
    75   37  116 1    
    76   38   39 2    
    77   38   40 1    
    78   40   41 1    
    79   40   42 1    
    80   40  117 1    
    81   41  118 1    
    82   41  119 1    
    83   41  120 1    
    84   42   43 am   BACKBONE|DICT|INTERRES
    85   42  121 1    
    86   43   44 2    
    87   43   45 1    
    88   45   46 1    
    89   45   47 1    
    90   45  122 1    
    91   46  123 1    
    92   46  124 1    
    93   46  125 1    
    94   47   48 am   BACKBONE|DICT|INTERRES
    95   47  126 1    
    96   48   49 2    
    97   48   50 1    
    98   50   51 1    
    99   50   52 1    
   100   50  127 1    
   101   51  128 1    
   102   51  129 1    
   103   51  130 1    
   104   52   53 am   BACKBONE|DICT|INTERRES
   105   52  131 1    
   106   53   54 2    
   107   53   55 1    
   108   55   56 1    
   109   55   59 1    
   110   55  132 1    
   111   56   57 1    
   112   56  133 1    
   113   56  134 1    
   114   57   58 1    
   115   58  135 1    
   116   58  136 1    
   117   59   60 am   BACKBONE|DICT|INTERRES
   118   59  137 1    
   119   60   61 2    
   120   60   62 1    
   121   62   63 1    
   122   62   64 1    
   123   62  138 1    
   124   63  139 1    
   125   63  140 1    
   126   63  141 1    
   127   64   65 am   BACKBONE|DICT|INTERRES
   128   64  142 1    
   129   65   66 2    
   130   65   67 1    
   131   67   68 1    
   132   67   69 1    
   133   67  143 1    
   134   68  144 1    
   135   68  145 1    
   136   68  146 1    
   137   69   70 am   BACKBONE|DICT|INTERRES
   138   69  147 1    
   139   70   71 2    
   140   70   72 1    
   141   72   73 1    
   142   72   74 1    
   143   72  148 1    
   144   73  149 1    
   145   73  150 1    
   146   73  151 1    
   147   74   75 am   BACKBONE|DICT|INTERRES
   148   74  152 1    
   149   75   76 2    
   150   75   77 1    
   151   77   78 1    
   152   77   79 1    
   153   77  153 1    
   154   78  154 1    
   155   78  155 1    
   156   78  156 1    
   157   79   80 am   BACKBONE|DICT|INTERRES
   158   79  157 1    
   159   80   81 2    
@<TRIPOS>SUBSTRUCTURE
     1 UNK         1 GROUP             0       ****    0 ROOT    
