@<TRIPOS>MOLECULE
3R207
157   159    1
SMALL
USER_CHARGES


@<TRIPOS>ATOM
      1 CA        -53.5012  -25.9742    6.1253 C.3       0 UNK        -0.1975 
      2 C         -52.1867  -26.7389    6.1142 C.2       0 UNK         0.4852 
      3 O         -51.3527  -26.5331    6.9958 O.2       0 UNK        -0.5216 
      4 N         -51.9883  -27.6154    5.1204 N.am      1 UNK        -0.4461 
      5 CA        -50.7963  -28.4563    4.9655 C.3       1 UNK         0.0864 
      6 C6        -50.9379  -29.4974    3.8208 C.3       14 UNK        -0.0898 
      7 S7        -52.5297  -30.3972    3.8059 S.3       14 UNK        -0.2598 
      8 C8        -52.1655  -31.8776    4.8023 C.3       14 UNK         0.0286 
      9 C9        -52.0210  -31.5341    6.2766 C.ar      14 UNK        -0.0844 
     10 C10       -50.7611  -31.5403    6.8824 C.ar      14 UNK        -0.0881 
     11 C11       -50.6199  -31.1730    8.2234 C.ar      14 UNK        -0.0643 
     12 C12       -51.7528  -30.8360    8.9686 C.ar      14 UNK        -0.0930 
     13 C13       -53.0146  -30.8157    8.3711 C.ar      14 UNK        -0.0827 
     14 C14       -53.1462  -31.1774    7.0276 C.ar      14 UNK        -0.1249 
     15 C15       -54.2195  -30.3501    9.1705 C.3       14 UNK         0.0141 
     16 S16       -54.4514  -28.5580    8.9619 S.3       14 UNK        -0.2313 
     17 C17       -55.4749  -28.1459   10.4129 C.3       14 UNK        -0.0915 
     18 CA        -54.6508  -27.4683   11.5505 C.3       13 UNK         0.0968 
     19 C         -54.4537  -25.9305   11.3590 C.2       13 UNK         0.5732 
     20 N         -54.3966  -25.1380   12.4239 N.am      13 UNK        -0.7310 
     21 O         -54.3289  -25.4430   10.2389 O.2       13 UNK        -0.5035 
     22 N         -55.1265  -27.8561   12.8887 N.am      13 UNK        -0.4233 
     23 C         -56.3362  -27.6118   13.4065 C.2       13 UNK         0.4989 
     24 O         -57.2481  -27.0585   12.7917 O.2       13 UNK        -0.4996 
     25 CA        -56.5730  -28.0316   14.8692 C.3       12 UNK         0.0216 
     26 CB        -56.9119  -29.5320   14.9700 C.3       12 UNK        -0.1964 
     27 N         -55.4942  -27.6520   15.7960 N.am      12 UNK        -0.4276 
     28 C         -54.2323  -28.0983   15.8604 C.2       12 UNK         0.5020 
     29 O         -53.7589  -28.9319   15.0852 O.2       12 UNK        -0.5489 
     30 CA        -53.3445  -27.4525   16.9392 C.3       11 UNK         0.0294 
     31 CB        -52.0094  -28.1973   17.1276 C.3       11 UNK        -0.2019 
     32 N         -53.0616  -26.0538   16.6144 N.am      11 UNK        -0.4493 
     33 C         -53.9036  -25.0260   16.7869 C.2       11 UNK         0.4932 
     34 O         -55.0410  -25.1563   17.2451 O.2       11 UNK        -0.5029 
     35 CA        -53.3907  -23.6355   16.3577 C.3       10 UNK         0.0280 
     36 CB        -54.3058  -22.4831   16.8235 C.3       10 UNK        -0.1976 
     37 N         -51.9958  -23.3950   16.7513 N.am      10 UNK        -0.4242 
     38 C         -51.4869  -23.3723   17.9938 C.2       10 UNK         0.5072 
     39 O         -52.1594  -23.4894   19.0197 O.2       10 UNK        -0.5224 
     40 CA        -49.9578  -23.2317   18.0878 C.3       9 UNK         0.0343 
     41 CB        -49.4059  -23.4793   19.5062 C.3       9 UNK        -0.2003 
     42 N         -49.3349  -24.1528   17.1404 N.am      9 UNK        -0.4272 
     43 C         -48.1593  -24.0000   16.5265 C.2       9 UNK         0.4988 
     44 O         -47.4078  -23.0415   16.7076 O.2       9 UNK        -0.5108 
     45 CA        -47.7553  -25.1100   15.5380 C.3       8 UNK         0.0248 
     46 CB        -47.6091  -26.4762   16.2393 C.3       8 UNK        -0.2001 
     47 N         -48.6217  -25.2095   14.3547 N.am      8 UNK        -0.4140 
     48 C         -49.9285  -25.5117   14.2962 C.2       8 UNK         0.5028 
     49 O         -50.6340  -25.7266   15.2823 O.2       8 UNK        -0.5428 
     50 CA        -50.5732  -25.5870   12.9044 C.3       7 UNK         0.0264 
     51 CB        -50.9994  -24.1901   12.4294 C.3       7 UNK        -0.1988 
     52 N         -49.7124  -26.2107   11.8982 N.am      7 UNK        -0.4454 
     53 C         -49.3431  -27.5002   11.9093 C.2       7 UNK         0.5027 
     54 O         -49.6888  -28.3019   12.7776 O.2       7 UNK        -0.5083 
     55 CA        -48.4472  -27.9892   10.7575 C.3       6 UNK         0.0844 
     56 C56       -49.2915  -28.3411    9.5093 C.3       14 UNK        -0.0967 
     57 S57       -48.4156  -29.5272    8.4353 S.3       14 UNK        -0.2604 
     58 C58       -49.2380  -31.0981    8.8515 C.3       14 UNK         0.0134 
     59 N         -47.4098  -26.9998   10.4597 N.am      6 UNK        -0.4116 
     60 C         -46.1928  -26.9799   11.0188 C.2       5 UNK         0.5034 
     61 O         -45.7760  -27.8444   11.7904 O.2       5 UNK        -0.5045 
     62 CA        -45.2771  -25.7903   10.6729 C.3       5 UNK         0.0224 
     63 CB        -44.3121  -26.1575    9.5348 C.3       5 UNK        -0.1978 
     64 N         -46.0046  -24.5702   10.3123 N.am      5 UNK        -0.4737 
     65 C         -46.7319  -23.8427   11.1714 C.2       4 UNK         0.5027 
     66 O         -46.8560  -24.1158   12.3645 O.2       4 UNK        -0.5211 
     67 CA        -47.4947  -22.6371   10.5945 C.3       4 UNK         0.0297 
     68 CB        -46.6098  -21.3813   10.6254 C.3       4 UNK        -0.1993 
     69 N         -48.0104  -22.8383    9.2350 N.am      4 UNK        -0.4486 
     70 C         -48.7896  -23.8536    8.8362 C.2       3 UNK         0.4961 
     71 O         -49.1320  -24.7797    9.5723 O.2       3 UNK        -0.5105 
     72 CA        -49.2577  -23.8681    7.3732 C.3       3 UNK         0.0299 
     73 CB        -48.8667  -22.6177    6.5513 C.3       3 UNK        -0.1972 
     74 N         -48.8304  -25.1005    6.7064 N.am      3 UNK        -0.4305 
     75 C         -47.5723  -25.4966    6.4536 C.2       2 UNK         0.5006 
     76 O         -46.5798  -24.8438    6.7824 O.2       2 UNK        -0.5106 
     77 CA        -47.3676  -26.8405    5.7197 C.3       2 UNK         0.0296 
     78 CB        -46.2060  -27.6453    6.3301 C.3       2 UNK        -0.2002 
     79 N         -48.5739  -27.6760    5.6854 N.am      2 UNK        -0.4032 
     80 C         -49.5396  -27.5833    4.7606 C.2       1 UNK         0.5000 
     81 O         -49.4879  -26.8197    3.7929 O.2       1 UNK        -0.5238 
     82 H82       -54.1983  -26.3516    5.3773 H         1 UNK         0.0889 
     83 H83       -53.9744  -26.0607    7.1035 H         1 UNK         0.0889 
     84 H84       -53.3218  -24.9181    5.9267 H         1 UNK         0.0889 
     85 H85       -52.7007  -27.7475    4.4171 H         1 UNK         0.3028 
     86 H86       -50.6822  -28.9993    5.9046 H         1 UNK         0.0864 
     87 H87       -50.8522  -29.0063    2.8493 H         1 UNK         0.0720 
     88 H88       -50.1198  -30.2186    3.8629 H         1 UNK         0.0720 
     89 H89       -51.2692  -32.3683    4.4198 H         1 UNK         0.0814 
     90 H90       -52.9800  -32.5931    4.6808 H         1 UNK         0.0814 
     91 H91       -49.8838  -31.7952    6.3034 H         1 UNK         0.1469 
     92 H92       -51.6508  -30.5513   10.0066 H         1 UNK         0.1381 
     93 H93       -54.1190  -31.1482    6.5558 H         1 UNK         0.1206 
     94 H94       -54.0786  -30.5852   10.2268 H         1 UNK         0.0813 
     95 H95       -55.1201  -30.8761    8.8500 H         1 UNK         0.0813 
     96 H96       -56.3019  -27.5085   10.0950 H         1 UNK         0.0638 
     97 H97       -55.9393  -29.0665   10.7698 H         1 UNK         0.0638 
     98 H98       -53.6393  -27.8745   11.5130 H         1 UNK         0.0568 
     99 H99       -54.2771  -24.1476   12.2872 H         1 UNK         0.3450 
    100 H100      -54.5156  -25.5164   13.3476 H         1 UNK         0.3450 
    101 H101      -54.4497  -28.3132   13.4973 H         1 UNK         0.2987 
    102 H102      -57.4510  -27.4797   15.2092 H         1 UNK         0.0766 
    103 H103      -57.1556  -29.8149   15.9941 H         1 UNK         0.0798 
    104 H104      -56.0880  -30.1630   14.6353 H         1 UNK         0.0798 
    105 H105      -57.7768  -29.7768   14.3520 H         1 UNK         0.0798 
    106 H106      -55.7214  -26.8907   16.4306 H         1 UNK         0.3198 
    107 H107      -53.8864  -27.4954   17.8867 H         1 UNK         0.0843 
    108 H108      -52.1796  -29.2404   17.3971 H         1 UNK         0.0831 
    109 H109      -51.4135  -27.7489   17.9226 H         1 UNK         0.0831 
    110 H110      -51.4094  -28.1902   16.2163 H         1 UNK         0.0831 
    111 H111      -52.1613  -25.8786   16.1667 H         1 UNK         0.3133 
    112 H112      -53.3998  -23.6378   15.2668 H         1 UNK         0.0566 
    113 H113      -53.9310  -21.5170   16.4859 H         1 UNK         0.0814 
    114 H114      -55.3130  -22.5972   16.4208 H         1 UNK         0.0814 
    115 H115      -54.3940  -22.4482   17.9098 H         1 UNK         0.0814 
    116 H116      -51.3405  -23.3140   15.9865 H         1 UNK         0.3091 
    117 H117      -49.7196  -22.2064   17.7972 H         1 UNK         0.0702 
    118 H118      -48.3257  -23.3377   19.5429 H         1 UNK         0.0785 
    119 H119      -49.6231  -24.4916   19.8489 H         1 UNK         0.0785 
    120 H120      -49.8460  -22.7868   20.2249 H         1 UNK         0.0785 
    121 H121      -49.9037  -24.9405   16.8381 H         1 UNK         0.2998 
    122 H122      -46.7702  -24.8390   15.1543 H         1 UNK         0.0697 
    123 H123      -48.5603  -26.8541   16.6155 H         1 UNK         0.0825 
    124 H124      -46.9281  -26.4074   17.0886 H         1 UNK         0.0825 
    125 H125      -47.2030  -27.2242   15.5582 H         1 UNK         0.0825 
    126 H126      -48.1491  -24.9785   13.4836 H         1 UNK         0.3029 
    127 H127      -51.4718  -26.2015   12.9955 H         1 UNK         0.0897 
    128 H128      -51.5099  -24.2385   11.4670 H         1 UNK         0.0792 
    129 H129      -51.6882  -23.7296   13.1385 H         1 UNK         0.0792 
    130 H130      -50.1454  -23.5221   12.3219 H         1 UNK         0.0792 
    131 H131      -49.4391  -25.6304   11.1057 H         1 UNK         0.3086 
    132 H132      -47.9756  -28.9089   11.1117 H         1 UNK         0.0583 
    133 H133      -50.2560  -28.7600    9.7914 H         1 UNK         0.1020 
    134 H134      -49.5293  -27.4454    8.9319 H         1 UNK         0.1020 
    135 H135      -48.6255  -31.9251    8.4890 H         1 UNK         0.0694 
    136 H136      -49.2937  -31.2098    9.9356 H         1 UNK         0.0694 
    137 H137      -47.6936  -26.2143    9.8866 H         1 UNK         0.2989 
    138 H138      -44.6843  -25.5764   11.5654 H         1 UNK         0.1055 
    139 H139      -43.7673  -27.0752    9.7613 H         1 UNK         0.0806 
    140 H140      -43.5714  -25.3736    9.3760 H         1 UNK         0.0806 
    141 H141      -44.8393  -26.3129    8.5940 H         1 UNK         0.0806 
    142 H142      -45.9844  -24.2913    9.3398 H         1 UNK         0.3061 
    143 H143      -48.3548  -22.4579   11.2411 H         1 UNK         0.0734 
    144 H144      -46.2290  -21.1975   11.6313 H         1 UNK         0.0832 
    145 H145      -45.7479  -21.4772    9.9638 H         1 UNK         0.0832 
    146 H146      -47.1672  -20.4933   10.3266 H         1 UNK         0.0832 
    147 H147      -47.7611  -22.1401    8.5495 H         1 UNK         0.3156 
    148 H148      -50.3473  -23.9066    7.4093 H         1 UNK         0.0589 
    149 H149      -47.7869  -22.4922    6.4658 H         1 UNK         0.0808 
    150 H150      -49.2678  -22.6794    5.5395 H         1 UNK         0.0808 
    151 H151      -49.2746  -21.7094    6.9968 H         1 UNK         0.0808 
    152 H152      -49.5888  -25.7471    6.5110 H         1 UNK         0.3098 
    153 H153      -47.0850  -26.5933    4.6944 H         1 UNK         0.0720 
    154 H154      -45.2594  -27.1181    6.2052 H         1 UNK         0.0791 
    155 H155      -46.0967  -28.6180    5.8502 H         1 UNK         0.0791 
    156 H156      -46.3445  -27.8096    7.3984 H         1 UNK         0.0791 
    157 H157      -48.6993  -28.3055    6.4692 H         1 UNK         0.3028 
@<TRIPOS>BOND
     1    1    2 1    
     2    1   82 1    
     3    1   83 1    
     4    1   84 1    
     5    2    3 2    
     6    2    4 am   BACKBONE|DICT|INTERRES
     7    4    5 1    
     8    4   85 1    
     9    5    6 1    
    10    5   80 1    
    11    5   86 1    
    12    6    7 1    
    13    6   87 1    
    14    6   88 1    
    15    7    8 1    
    16    8    9 1    
    17    8   89 1    
    18    8   90 1    
    19    9   10 ar   
    20    9   14 ar   
    21   10   11 ar   
    22   10   91 1    
    23   11   12 ar   
    24   11   58 1    
    25   12   13 ar   
    26   12   92 1    
    27   13   14 ar   
    28   13   15 1    
    29   14   93 1    
    30   15   16 1    
    31   15   94 1    
    32   15   95 1    
    33   16   17 1    
    34   17   18 1    
    35   17   96 1    
    36   17   97 1    
    37   18   19 1    
    38   18   22 1    
    39   18   98 1    
    40   19   20 am   BACKBONE|DICT|INTERRES
    41   19   21 2    
    42   20   99 1    
    43   20  100 1    
    44   22   23 am   BACKBONE|DICT|INTERRES
    45   22  101 1    
    46   23   24 2    
    47   23   25 1    
    48   25   26 1    
    49   25   27 1    
    50   25  102 1    
    51   26  103 1    
    52   26  104 1    
    53   26  105 1    
    54   27   28 am   BACKBONE|DICT|INTERRES
    55   27  106 1    
    56   28   29 2    
    57   28   30 1    
    58   30   31 1    
    59   30   32 1    
    60   30  107 1    
    61   31  108 1    
    62   31  109 1    
    63   31  110 1    
    64   32   33 am   BACKBONE|DICT|INTERRES
    65   32  111 1    
    66   33   34 2    
    67   33   35 1    
    68   35   36 1    
    69   35   37 1    
    70   35  112 1    
    71   36  113 1    
    72   36  114 1    
    73   36  115 1    
    74   37   38 am   BACKBONE|DICT|INTERRES
    75   37  116 1    
    76   38   39 2    
    77   38   40 1    
    78   40   41 1    
    79   40   42 1    
    80   40  117 1    
    81   41  118 1    
    82   41  119 1    
    83   41  120 1    
    84   42   43 am   BACKBONE|DICT|INTERRES
    85   42  121 1    
    86   43   44 2    
    87   43   45 1    
    88   45   46 1    
    89   45   47 1    
    90   45  122 1    
    91   46  123 1    
    92   46  124 1    
    93   46  125 1    
    94   47   48 am   BACKBONE|DICT|INTERRES
    95   47  126 1    
    96   48   49 2    
    97   48   50 1    
    98   50   51 1    
    99   50   52 1    
   100   50  127 1    
   101   51  128 1    
   102   51  129 1    
   103   51  130 1    
   104   52   53 am   BACKBONE|DICT|INTERRES
   105   52  131 1    
   106   53   54 2    
   107   53   55 1    
   108   55   56 1    
   109   55   59 1    
   110   55  132 1    
   111   56   57 1    
   112   56  133 1    
   113   56  134 1    
   114   57   58 1    
   115   58  135 1    
   116   58  136 1    
   117   59   60 am   BACKBONE|DICT|INTERRES
   118   59  137 1    
   119   60   61 2    
   120   60   62 1    
   121   62   63 1    
   122   62   64 1    
   123   62  138 1    
   124   63  139 1    
   125   63  140 1    
   126   63  141 1    
   127   64   65 am   BACKBONE|DICT|INTERRES
   128   64  142 1    
   129   65   66 2    
   130   65   67 1    
   131   67   68 1    
   132   67   69 1    
   133   67  143 1    
   134   68  144 1    
   135   68  145 1    
   136   68  146 1    
   137   69   70 am   BACKBONE|DICT|INTERRES
   138   69  147 1    
   139   70   71 2    
   140   70   72 1    
   141   72   73 1    
   142   72   74 1    
   143   72  148 1    
   144   73  149 1    
   145   73  150 1    
   146   73  151 1    
   147   74   75 am   BACKBONE|DICT|INTERRES
   148   74  152 1    
   149   75   76 2    
   150   75   77 1    
   151   77   78 1    
   152   77   79 1    
   153   77  153 1    
   154   78  154 1    
   155   78  155 1    
   156   78  156 1    
   157   79   80 am   BACKBONE|DICT|INTERRES
   158   79  157 1    
   159   80   81 2    
@<TRIPOS>SUBSTRUCTURE
     1 UNK         1 GROUP             0       ****    0 ROOT    
