@<TRIPOS>MOLECULE
3R207
157   159    1
SMALL
USER_CHARGES


@<TRIPOS>ATOM
      1 CA        -49.8135  -29.1168    9.6207 C.3       0 UNK        -0.1975 
      2 C         -49.0902  -29.4107    8.3171 C.2       0 UNK         0.4852 
      3 O         -47.9051  -29.7473    8.3459 O.2       0 UNK        -0.5216 
      4 N         -49.7718  -29.2774    7.1688 N.am      1 UNK        -0.4461 
      5 CA        -49.1970  -29.4995    5.8354 C.3       1 UNK         0.0864 
      6 C6        -50.2415  -29.9797    4.7883 C.3       14 UNK        -0.0898 
      7 S7        -51.6195  -28.8400    4.4106 S.3       14 UNK        -0.2598 
      8 C8        -53.0636  -29.7263    5.0851 C.3       14 UNK         0.0286 
      9 C9        -53.1367  -29.5932    6.5971 C.ar      14 UNK        -0.0844 
     10 C10       -53.2415  -28.3236    7.1686 C.ar      14 UNK        -0.0881 
     11 C11       -53.2381  -28.1676    8.5538 C.ar      14 UNK        -0.0643 
     12 C12       -53.1743  -29.2978    9.3726 C.ar      14 UNK        -0.0930 
     13 C13       -53.1173  -30.5788    8.8164 C.ar      14 UNK        -0.0827 
     14 C14       -53.0888  -30.7202    7.4241 C.ar      14 UNK        -0.1249 
     15 C15       -53.0516  -31.8051    9.7180 C.3       14 UNK         0.0141 
     16 S16       -54.6636  -32.1906   10.4815 S.3       14 UNK        -0.2313 
     17 C17       -54.6738  -31.1175   11.9615 C.3       14 UNK        -0.0915 
     18 CA        -55.6336  -29.8984   11.8305 C.3       13 UNK         0.0968 
     19 C         -57.0803  -30.2224   12.3153 C.2       13 UNK         0.5732 
     20 N         -57.6340  -29.5248   13.3016 N.am      13 UNK        -0.7310 
     21 O         -57.7225  -31.1217   11.7788 O.2       13 UNK        -0.5035 
     22 N         -55.0404  -28.6981   12.4405 N.am      13 UNK        -0.4233 
     23 C         -55.3673  -27.4389   12.1226 C.2       13 UNK         0.4989 
     24 O         -56.1607  -27.1430   11.2280 O.2       13 UNK        -0.4996 
     25 CA        -54.6732  -26.3271   12.9379 C.3       12 UNK         0.0216 
     26 CB        -55.3678  -24.9576   12.7937 C.3       12 UNK        -0.1964 
     27 N         -54.4856  -26.6522   14.3583 N.am      12 UNK        -0.4276 
     28 C         -55.4227  -27.0395   15.2389 C.2       12 UNK         0.5020 
     29 O         -56.5977  -27.2582   14.9405 O.2       12 UNK        -0.5489 
     30 CA        -54.9742  -27.2573   16.6956 C.3       11 UNK         0.0294 
     31 CB        -54.8872  -28.7609   17.0051 C.3       11 UNK        -0.2019 
     32 N         -53.6885  -26.6328   17.0183 N.am      11 UNK        -0.4493 
     33 C         -53.4638  -25.3197   17.1468 C.2       11 UNK         0.4932 
     34 O         -54.3435  -24.4662   17.0349 O.2       11 UNK        -0.5029 
     35 CA        -52.0167  -24.8731   17.4288 C.3       10 UNK         0.0280 
     36 CB        -51.7227  -24.8717   18.9411 C.3       10 UNK        -0.1976 
     37 N         -50.9806  -25.6033   16.6810 N.am      10 UNK        -0.4242 
     38 C         -50.6148  -26.8923   16.7669 C.2       10 UNK         0.5072 
     39 O         -51.1570  -27.7084   17.5133 O.2       10 UNK        -0.5224 
     40 CA        -49.4864  -27.3779   15.8387 C.3       9 UNK         0.0343 
     41 CB        -50.0805  -28.1713   14.6622 C.3       9 UNK        -0.2003 
     42 N         -48.6436  -26.2996   15.3149 N.am      9 UNK        -0.4272 
     43 C         -47.7786  -25.5767   16.0421 C.2       9 UNK         0.4988 
     44 O         -47.5394  -25.7872   17.2315 O.2       9 UNK        -0.5108 
     45 CA        -47.0874  -24.3980   15.3314 C.3       8 UNK         0.0248 
     46 CB        -45.8407  -24.8798   14.5742 C.3       8 UNK        -0.2001 
     47 N         -47.9791  -23.6742   14.4176 N.am      8 UNK        -0.4140 
     48 C         -49.0850  -23.0164   14.8002 C.2       8 UNK         0.5028 
     49 O         -49.4551  -22.9159   15.9694 O.2       8 UNK        -0.5428 
     50 CA        -49.9551  -22.4098   13.6907 C.3       7 UNK         0.0264 
     51 CB        -49.4210  -21.0352   13.2566 C.3       7 UNK        -0.1988 
     52 N         -50.0508  -23.2980   12.5327 N.am      7 UNK        -0.4454 
     53 C         -50.7717  -24.4289   12.5084 C.2       7 UNK         0.5027 
     54 O         -51.4639  -24.8233   13.4485 O.2       7 UNK        -0.5083 
     55 CA        -50.6880  -25.2738   11.2220 C.3       6 UNK         0.0844 
     56 C56       -51.6722  -24.7213   10.1630 C.3       14 UNK        -0.0967 
     57 S57       -51.7920  -25.8256    8.7218 S.3       14 UNK        -0.2604 
     58 C58       -53.2774  -26.7769    9.1599 C.3       14 UNK         0.0134 
     59 N         -49.3141  -25.3688   10.7126 N.am      6 UNK        -0.4116 
     60 C         -48.2911  -25.9353   11.3728 C.2       5 UNK         0.5034 
     61 O         -48.4146  -26.5052   12.4549 O.2       5 UNK        -0.5045 
     62 CA        -46.8796  -25.8021   10.7681 C.3       5 UNK         0.0224 
     63 CB        -46.5436  -27.0280    9.9099 C.3       5 UNK        -0.1978 
     64 N         -46.6842  -24.5860    9.9763 N.am      5 UNK        -0.4737 
     65 C         -46.8942  -23.3374   10.4177 C.2       4 UNK         0.5027 
     66 O         -47.1490  -23.0697   11.5928 O.2       4 UNK        -0.5211 
     67 CA        -46.8947  -22.2063    9.3719 C.3       4 UNK         0.0297 
     68 CB        -45.5877  -21.4034    9.4554 C.3       4 UNK        -0.1993 
     69 N         -47.0995  -22.6553    7.9880 N.am      4 UNK        -0.4486 
     70 C         -48.1464  -23.3560    7.5236 C.2       3 UNK         0.4961 
     71 O         -49.1044  -23.6910    8.2198 O.2       3 UNK        -0.5105 
     72 CA        -48.0974  -23.7906    6.0446 C.3       3 UNK         0.0299 
     73 CB        -47.2893  -22.8199    5.1555 C.3       3 UNK        -0.1972 
     74 N         -47.6135  -25.1658    5.8472 N.am      3 UNK        -0.4305 
     75 C         -46.4981  -25.7294    6.3360 C.2       2 UNK         0.5006 
     76 O         -45.7549  -25.1888    7.1574 O.2       2 UNK        -0.5106 
     77 CA        -46.1486  -27.1326    5.8027 C.3       2 UNK         0.0296 
     78 CB        -44.8040  -27.6578    6.3410 C.3       2 UNK        -0.2002 
     79 N         -47.1873  -28.1221    6.0912 N.am      2 UNK        -0.4032 
     80 C         -48.3104  -28.3112    5.3875 C.2       1 UNK         0.5000 
     81 O         -48.6347  -27.5888    4.4424 O.2       1 UNK        -0.5238 
     82 H82       -50.3592  -29.9976    9.9555 H         1 UNK         0.0889 
     83 H83       -50.5114  -28.2914    9.5056 H         1 UNK         0.0889 
     84 H84       -49.1039  -28.8429   10.4007 H         1 UNK         0.0889 
     85 H85       -50.7433  -28.9928    7.1841 H         1 UNK         0.3028 
     86 H86       -48.5043  -30.3399    5.9267 H         1 UNK         0.0864 
     87 H87       -49.7367  -30.2023    3.8465 H         1 UNK         0.0720 
     88 H88       -50.6566  -30.9332    5.1180 H         1 UNK         0.0720 
     89 H89       -53.9704  -29.3027    4.6513 H         1 UNK         0.0814 
     90 H90       -53.0359  -30.7724    4.7761 H         1 UNK         0.0814 
     91 H91       -53.2819  -27.4489    6.5332 H         1 UNK         0.1469 
     92 H92       -53.1591  -29.1806   10.4456 H         1 UNK         0.1381 
     93 H93       -53.0202  -31.7062    6.9850 H         1 UNK         0.1206 
     94 H94       -52.7342  -32.6743    9.1400 H         1 UNK         0.0813 
     95 H95       -52.2901  -31.6679   10.4866 H         1 UNK         0.0813 
     96 H96       -53.6508  -30.7870   12.1447 H         1 UNK         0.0638 
     97 H97       -54.9281  -31.7276   12.8304 H         1 UNK         0.0638 
     98 H98       -55.7382  -29.6738   10.7672 H         1 UNK         0.0568 
     99 H99       -58.5714  -29.7528   13.5907 H         1 UNK         0.3450 
    100 H100      -57.1463  -28.7570   13.7517 H         1 UNK         0.3450 
    101 H101      -54.4086  -28.8539   13.2110 H         1 UNK         0.2987 
    102 H102      -53.6711  -26.2294   12.5200 H         1 UNK         0.0766 
    103 H103      -54.8299  -24.1833   13.3411 H         1 UNK         0.0798 
    104 H104      -56.3913  -24.9851   13.1694 H         1 UNK         0.0798 
    105 H105      -55.4097  -24.6439   11.7498 H         1 UNK         0.0798 
    106 H106      -53.5517  -26.5075   14.7171 H         1 UNK         0.3198 
    107 H107      -55.7382  -26.8154   17.3389 H         1 UNK         0.0843 
    108 H108      -54.1218  -29.2542   16.4047 H         1 UNK         0.0831 
    109 H109      -55.8358  -29.2592   16.7989 H         1 UNK         0.0831 
    110 H110      -54.6537  -28.9364   18.0554 H         1 UNK         0.0831 
    111 H111      -52.8936  -27.2500   17.1782 H         1 UNK         0.3133 
    112 H112      -51.9410  -23.8408   17.0833 H         1 UNK         0.0566 
    113 H113      -50.7262  -24.4813   19.1485 H         1 UNK         0.0814 
    114 H114      -52.4354  -24.2417   19.4748 H         1 UNK         0.0814 
    115 H115      -51.7882  -25.8709   19.3726 H         1 UNK         0.0814 
    116 H116      -50.4780  -25.0341   16.0116 H         1 UNK         0.3091 
    117 H117      -48.8533  -28.0505   16.4209 H         1 UNK         0.0702 
    118 H118      -50.7069  -28.9916   15.0157 H         1 UNK         0.0785 
    119 H119      -50.6968  -27.5401   14.0205 H         1 UNK         0.0785 
    120 H120      -49.2960  -28.6089   14.0445 H         1 UNK         0.0785 
    121 H121      -48.7073  -26.1250   14.3154 H         1 UNK         0.2998 
    122 H122      -46.7658  -23.6895   16.0977 H         1 UNK         0.0697 
    123 H123      -46.0815  -25.6759   13.8709 H         1 UNK         0.0825 
    124 H124      -45.0988  -25.2783   15.2674 H         1 UNK         0.0825 
    125 H125      -45.3667  -24.0687   14.0208 H         1 UNK         0.0825 
    126 H126      -47.7246  -23.6559   13.4343 H         1 UNK         0.3029 
    127 H127      -50.9596  -22.2686   14.0968 H         1 UNK         0.0897 
    128 H128      -50.0616  -20.5817   12.5001 H         1 UNK         0.0792 
    129 H129      -48.4120  -21.0974   12.8482 H         1 UNK         0.0792 
    130 H130      -49.3856  -20.3487   14.1036 H         1 UNK         0.0792 
    131 H131      -49.4520  -23.0823   11.7468 H         1 UNK         0.3086 
    132 H132      -51.0044  -26.2852   11.4868 H         1 UNK         0.0583 
    133 H133      -52.6686  -24.5731   10.5851 H         1 UNK         0.1020 
    134 H134      -51.3496  -23.7390    9.8121 H         1 UNK         0.1020 
    135 H135      -53.3389  -26.8514   10.2433 H         1 UNK         0.0694 
    136 H136      -54.1706  -26.2467    8.8267 H         1 UNK         0.0694 
    137 H137      -49.1379  -24.9116    9.8224 H         1 UNK         0.2989 
    138 H138      -46.1708  -25.7639   11.5956 H         1 UNK         0.1055 
    139 H139      -45.5087  -26.9972    9.5701 H         1 UNK         0.0806 
    140 H140      -46.6700  -27.9527   10.4750 H         1 UNK         0.0806 
    141 H141      -47.1855  -27.0895    9.0313 H         1 UNK         0.0806 
    142 H142      -46.4445  -24.7110    8.9965 H         1 UNK         0.3061 
    143 H143      -47.7234  -21.5415    9.6233 H         1 UNK         0.0734 
    144 H144      -45.6097  -20.5360    8.7955 H         1 UNK         0.0832 
    145 H145      -45.4217  -21.0326   10.4681 H         1 UNK         0.0832 
    146 H146      -44.7233  -22.0117    9.1857 H         1 UNK         0.0832 
    147 H147      -46.3396  -22.4821    7.3460 H         1 UNK         0.3156 
    148 H148      -49.1296  -23.7753    5.6913 H         1 UNK         0.0589 
    149 H149      -46.2188  -22.8620    5.3596 H         1 UNK         0.0808 
    150 H150      -47.4278  -23.0543    4.0999 H         1 UNK         0.0808 
    151 H151      -47.6159  -21.7885    5.2971 H         1 UNK         0.0808 
    152 H152      -48.1714  -25.7429    5.2246 H         1 UNK         0.3098 
    153 H153      -46.0476  -27.0391    4.7192 H         1 UNK         0.0720 
    154 H154      -44.8308  -27.8114    7.4197 H         1 UNK         0.0791 
    155 H155      -43.9954  -26.9565    6.1300 H         1 UNK         0.0791 
    156 H156      -44.5354  -28.6064    5.8758 H         1 UNK         0.0791 
    157 H157      -47.0505  -28.7121    6.9075 H         1 UNK         0.3028 
@<TRIPOS>BOND
     1    1    2 1    
     2    1   82 1    
     3    1   83 1    
     4    1   84 1    
     5    2    3 2    
     6    2    4 am   BACKBONE|DICT|INTERRES
     7    4    5 1    
     8    4   85 1    
     9    5    6 1    
    10    5   80 1    
    11    5   86 1    
    12    6    7 1    
    13    6   87 1    
    14    6   88 1    
    15    7    8 1    
    16    8    9 1    
    17    8   89 1    
    18    8   90 1    
    19    9   10 ar   
    20    9   14 ar   
    21   10   11 ar   
    22   10   91 1    
    23   11   12 ar   
    24   11   58 1    
    25   12   13 ar   
    26   12   92 1    
    27   13   14 ar   
    28   13   15 1    
    29   14   93 1    
    30   15   16 1    
    31   15   94 1    
    32   15   95 1    
    33   16   17 1    
    34   17   18 1    
    35   17   96 1    
    36   17   97 1    
    37   18   19 1    
    38   18   22 1    
    39   18   98 1    
    40   19   20 am   BACKBONE|DICT|INTERRES
    41   19   21 2    
    42   20   99 1    
    43   20  100 1    
    44   22   23 am   BACKBONE|DICT|INTERRES
    45   22  101 1    
    46   23   24 2    
    47   23   25 1    
    48   25   26 1    
    49   25   27 1    
    50   25  102 1    
    51   26  103 1    
    52   26  104 1    
    53   26  105 1    
    54   27   28 am   BACKBONE|DICT|INTERRES
    55   27  106 1    
    56   28   29 2    
    57   28   30 1    
    58   30   31 1    
    59   30   32 1    
    60   30  107 1    
    61   31  108 1    
    62   31  109 1    
    63   31  110 1    
    64   32   33 am   BACKBONE|DICT|INTERRES
    65   32  111 1    
    66   33   34 2    
    67   33   35 1    
    68   35   36 1    
    69   35   37 1    
    70   35  112 1    
    71   36  113 1    
    72   36  114 1    
    73   36  115 1    
    74   37   38 am   BACKBONE|DICT|INTERRES
    75   37  116 1    
    76   38   39 2    
    77   38   40 1    
    78   40   41 1    
    79   40   42 1    
    80   40  117 1    
    81   41  118 1    
    82   41  119 1    
    83   41  120 1    
    84   42   43 am   BACKBONE|DICT|INTERRES
    85   42  121 1    
    86   43   44 2    
    87   43   45 1    
    88   45   46 1    
    89   45   47 1    
    90   45  122 1    
    91   46  123 1    
    92   46  124 1    
    93   46  125 1    
    94   47   48 am   BACKBONE|DICT|INTERRES
    95   47  126 1    
    96   48   49 2    
    97   48   50 1    
    98   50   51 1    
    99   50   52 1    
   100   50  127 1    
   101   51  128 1    
   102   51  129 1    
   103   51  130 1    
   104   52   53 am   BACKBONE|DICT|INTERRES
   105   52  131 1    
   106   53   54 2    
   107   53   55 1    
   108   55   56 1    
   109   55   59 1    
   110   55  132 1    
   111   56   57 1    
   112   56  133 1    
   113   56  134 1    
   114   57   58 1    
   115   58  135 1    
   116   58  136 1    
   117   59   60 am   BACKBONE|DICT|INTERRES
   118   59  137 1    
   119   60   61 2    
   120   60   62 1    
   121   62   63 1    
   122   62   64 1    
   123   62  138 1    
   124   63  139 1    
   125   63  140 1    
   126   63  141 1    
   127   64   65 am   BACKBONE|DICT|INTERRES
   128   64  142 1    
   129   65   66 2    
   130   65   67 1    
   131   67   68 1    
   132   67   69 1    
   133   67  143 1    
   134   68  144 1    
   135   68  145 1    
   136   68  146 1    
   137   69   70 am   BACKBONE|DICT|INTERRES
   138   69  147 1    
   139   70   71 2    
   140   70   72 1    
   141   72   73 1    
   142   72   74 1    
   143   72  148 1    
   144   73  149 1    
   145   73  150 1    
   146   73  151 1    
   147   74   75 am   BACKBONE|DICT|INTERRES
   148   74  152 1    
   149   75   76 2    
   150   75   77 1    
   151   77   78 1    
   152   77   79 1    
   153   77  153 1    
   154   78  154 1    
   155   78  155 1    
   156   78  156 1    
   157   79   80 am   BACKBONE|DICT|INTERRES
   158   79  157 1    
   159   80   81 2    
@<TRIPOS>SUBSTRUCTURE
     1 UNK         1 GROUP             0       ****    0 ROOT    
