@<TRIPOS>MOLECULE
3R207
157   159    1
SMALL
USER_CHARGES


@<TRIPOS>ATOM
      1 CA        -45.7769  -25.3867   12.0401 C.3       0 UNK        -0.1975 
      2 C         -45.5307  -25.9312   10.6405 C.2       0 UNK         0.4852 
      3 O         -44.5979  -25.4829    9.9712 O.2       0 UNK        -0.5216 
      4 N         -46.3462  -26.8966   10.1939 N.am      1 UNK        -0.4461 
      5 CA        -46.2800  -27.4793    8.8474 C.3       1 UNK         0.0864 
      6 C6        -47.1035  -28.7902    8.7345 C.3       14 UNK        -0.0898 
      7 S7        -48.8947  -28.5526    8.9625 S.3       14 UNK        -0.2598 
      8 C8        -49.5267  -30.2493    8.8381 C.3       14 UNK         0.0286 
      9 C9        -51.0058  -30.2532    9.1818 C.ar      14 UNK        -0.0844 
     10 C10       -51.9420  -29.8059    8.2455 C.ar      14 UNK        -0.0881 
     11 C11       -53.2882  -29.6703    8.5970 C.ar      14 UNK        -0.0643 
     12 C12       -53.7028  -30.0419    9.8804 C.ar      14 UNK        -0.0930 
     13 C13       -52.7799  -30.5277   10.8120 C.ar      14 UNK        -0.0827 
     14 C14       -51.4319  -30.6294   10.4581 C.ar      14 UNK        -0.1249 
     15 C15       -53.2296  -30.8992   12.2153 C.3       14 UNK         0.0141 
     16 S16       -52.8313  -29.5566   13.3707 S.3       14 UNK        -0.2313 
     17 C17       -54.2508  -29.5966   14.5125 C.3       14 UNK        -0.0915 
     18 CA        -55.5278  -28.9049   13.9573 C.3       13 UNK         0.0968 
     19 C         -56.6064  -28.7825   15.0734 C.2       13 UNK         0.5732 
     20 N         -56.9321  -27.5885   15.5597 N.am      13 UNK        -0.7310 
     21 O         -57.1581  -29.7925   15.5033 O.2       13 UNK        -0.5035 
     22 N         -55.2289  -27.6390   13.2740 N.am      13 UNK        -0.4233 
     23 C         -56.0703  -26.9864   12.4610 C.2       13 UNK         0.4989 
     24 O         -57.1497  -27.4499   12.0891 O.2       13 UNK        -0.4996 
     25 CA        -55.6436  -25.5816   11.9821 C.3       12 UNK         0.0216 
     26 CB        -56.8428  -24.6179   11.8575 C.3       12 UNK        -0.1964 
     27 N         -54.5701  -24.9708   12.7811 N.am      12 UNK        -0.4276 
     28 C         -54.5991  -24.7010   14.0943 C.2       12 UNK         0.5020 
     29 O         -55.5747  -24.9135   14.8208 O.2       12 UNK        -0.5489 
     30 CA        -53.3098  -24.1421   14.7169 C.3       11 UNK         0.0294 
     31 CB        -53.4296  -22.6285   14.9521 C.3       11 UNK        -0.2019 
     32 N         -53.0390  -24.8172   15.9887 N.am      11 UNK        -0.4493 
     33 C         -52.6265  -26.0866   16.0769 C.2       11 UNK         0.4932 
     34 O         -52.2715  -26.7586   15.1030 O.2       11 UNK        -0.5029 
     35 CA        -52.6285  -26.7243   17.4724 C.3       10 UNK         0.0280 
     36 CB        -54.0598  -26.9187   18.0061 C.3       10 UNK        -0.1976 
     37 N         -51.9689  -28.0154   17.3451 N.am      10 UNK        -0.4242 
     38 C         -51.3383  -28.7110   18.2938 C.2       10 UNK         0.5072 
     39 O         -51.3205  -28.3993   19.4852 O.2       10 UNK        -0.5224 
     40 CA        -50.5794  -29.9657   17.8179 C.3       9 UNK         0.0343 
     41 CB        -51.4633  -31.2145   17.9680 C.3       9 UNK        -0.2003 
     42 N         -50.1121  -29.8723   16.4274 N.am      9 UNK        -0.4272 
     43 C         -49.1880  -29.0058   15.9862 C.2       9 UNK         0.4988 
     44 O         -48.5926  -28.2089   16.7118 O.2       9 UNK        -0.5108 
     45 CA        -48.9040  -28.9938   14.4817 C.3       8 UNK         0.0248 
     46 CB        -49.1063  -30.3576   13.7850 C.3       8 UNK        -0.2001 
     47 N         -49.7390  -27.9621   13.8722 N.am      8 UNK        -0.4140 
     48 C         -49.4625  -27.3389   12.7255 C.2       8 UNK         0.5028 
     49 O         -48.4721  -27.5714   12.0294 O.2       8 UNK        -0.5428 
     50 CA        -50.4294  -26.2330   12.3034 C.3       7 UNK         0.0264 
     51 CB        -49.8626  -24.8477   12.6660 C.3       7 UNK        -0.1988 
     52 N         -50.6859  -26.3483   10.8717 N.am      7 UNK        -0.4454 
     53 C         -51.7553  -25.8260   10.2637 C.2       7 UNK         0.5027 
     54 O         -52.5409  -25.0536   10.8185 O.2       7 UNK        -0.5083 
     55 CA        -52.0075  -26.2321    8.8059 C.3       6 UNK         0.0844 
     56 C56       -53.5162  -26.5123    8.5534 C.3       14 UNK        -0.0967 
     57 S57       -53.8181  -27.4271    7.0025 S.3       14 UNK        -0.2604 
     58 C58       -54.2900  -29.0869    7.6065 C.3       14 UNK         0.0134 
     59 N         -51.4845  -25.1560    7.9729 N.am      6 UNK        -0.4116 
     60 C         -50.8433  -25.2937    6.8081 C.2       5 UNK         0.5034 
     61 O         -50.6202  -26.3722    6.2580 O.2       5 UNK        -0.5045 
     62 CA        -50.3594  -23.9982    6.1318 C.3       5 UNK         0.0224 
     63 CB        -51.5333  -23.0902    5.7115 C.3       5 UNK        -0.1978 
     64 N         -49.3572  -23.2728    6.9219 N.am      5 UNK        -0.4737 
     65 C         -49.4889  -22.6890    8.1231 C.2       4 UNK         0.5027 
     66 O         -50.5668  -22.5717    8.7079 O.2       4 UNK        -0.5211 
     67 CA        -48.2057  -22.1776    8.8057 C.3       4 UNK         0.0297 
     68 CB        -48.1260  -22.6755   10.2579 C.3       4 UNK        -0.1993 
     69 N         -47.0061  -22.6372    8.1039 N.am      4 UNK        -0.4486 
     70 C         -46.1406  -21.8591    7.4412 C.2       3 UNK         0.4961 
     71 O         -46.2215  -20.6315    7.3917 O.2       3 UNK        -0.5105 
     72 CA        -44.9903  -22.5615    6.6912 C.3       3 UNK         0.0299 
     73 CB        -43.7035  -22.5203    7.5310 C.3       3 UNK        -0.1972 
     74 N         -45.2776  -23.9524    6.3256 N.am      3 UNK        -0.4305 
     75 C         -46.2413  -24.3453    5.4794 C.2       2 UNK         0.5006 
     76 O         -46.9672  -23.5661    4.8621 O.2       2 UNK        -0.5106 
     77 CA        -46.4855  -25.8597    5.3417 C.3       2 UNK         0.0296 
     78 CB        -45.7124  -26.4193    4.1368 C.3       2 UNK        -0.2002 
     79 N         -46.1658  -26.6526    6.5368 N.am      2 UNK        -0.4032 
     80 C         -46.6743  -26.4515    7.7624 C.2       1 UNK         0.5000 
     81 O         -47.4203  -25.5092    8.0447 O.2       1 UNK        -0.5238 
     82 H82       -44.8475  -25.3813   12.6087 H         1 UNK         0.0889 
     83 H83       -46.5010  -25.9850   12.5906 H         1 UNK         0.0889 
     84 H84       -46.1484  -24.3643   11.9851 H         1 UNK         0.0889 
     85 H85       -47.1261  -27.2059   10.7737 H         1 UNK         0.3028 
     86 H86       -45.2338  -27.7407    8.6739 H         1 UNK         0.0864 
     87 H87       -46.9377  -29.2634    7.7650 H         1 UNK         0.0720 
     88 H88       -46.7548  -29.5062    9.4805 H         1 UNK         0.0720 
     89 H89       -49.3702  -30.6306    7.8280 H         1 UNK         0.0814 
     90 H90       -48.9710  -30.9001    9.5150 H         1 UNK         0.0814 
     91 H91       -51.6115  -29.4947    7.2634 H         1 UNK         0.1469 
     92 H92       -54.7412  -29.9348   10.1630 H         1 UNK         0.1381 
     93 H93       -50.7109  -30.9650   11.1905 H         1 UNK         0.1206 
     94 H94       -54.3008  -31.1040   12.2257 H         1 UNK         0.0813 
     95 H95       -52.7359  -31.8159   12.5408 H         1 UNK         0.0813 
     96 H96       -54.4606  -30.6337   14.7805 H         1 UNK         0.0638 
     97 H97       -53.9281  -29.1072   15.4326 H         1 UNK         0.0638 
     98 H98       -55.9524  -29.5703   13.2039 H         1 UNK         0.0568 
     99 H99       -56.4819  -26.7449   15.2215 H         1 UNK         0.3450 
    100 H100      -57.6360  -27.5268   16.2771 H         1 UNK         0.3450 
    101 H101      -54.3532  -27.2040   13.5260 H         1 UNK         0.2987 
    102 H102      -55.2326  -25.7208   10.9823 H         1 UNK         0.0766 
    103 H103      -56.5277  -23.6375   11.5004 H         1 UNK         0.0798 
    104 H104      -57.5800  -24.9963   11.1483 H         1 UNK         0.0798 
    105 H105      -57.3519  -24.4800   12.8119 H         1 UNK         0.0798 
    106 H106      -53.7129  -24.8018   12.2549 H         1 UNK         0.3198 
    107 H107      -52.4736  -24.3227   14.0380 H         1 UNK         0.0843 
    108 H108      -54.2563  -22.3874   15.6218 H         1 UNK         0.0831 
    109 H109      -53.6073  -22.1024   14.0131 H         1 UNK         0.0831 
    110 H110      -52.5157  -22.2198   15.3836 H         1 UNK         0.0831 
    111 H111      -53.3510  -24.3460   16.8255 H         1 UNK         0.3133 
    112 H112      -52.0561  -26.0862   18.1485 H         1 UNK         0.0566 
    113 H113      -54.6518  -27.5522   17.3454 H         1 UNK         0.0814 
    114 H114      -54.5831  -25.9667   18.0995 H         1 UNK         0.0814 
    115 H115      -54.0552  -27.3811   18.9933 H         1 UNK         0.0814 
    116 H116      -51.8937  -28.3247   16.3842 H         1 UNK         0.3091 
    117 H117      -49.7038  -30.0834   18.4598 H         1 UNK         0.0702 
    118 H118      -50.9159  -32.1220   17.7125 H         1 UNK         0.0785 
    119 H119      -52.3474  -31.1633   17.3308 H         1 UNK         0.0785 
    120 H120      -51.8091  -31.3258   18.9968 H         1 UNK         0.0785 
    121 H121      -50.5464  -30.4925   15.7590 H         1 UNK         0.2998 
    122 H122      -47.8558  -28.7092   14.3656 H         1 UNK         0.0697 
    123 H123      -50.1504  -30.6671   13.7672 H         1 UNK         0.0825 
    124 H124      -48.5349  -31.1414   14.2837 H         1 UNK         0.0825 
    125 H125      -48.7607  -30.3205   12.7515 H         1 UNK         0.0825 
    126 H126      -50.5643  -27.6764   14.3911 H         1 UNK         0.3029 
    127 H127      -51.3791  -26.3802   12.8175 H         1 UNK         0.0897 
    128 H128      -50.4957  -24.0379   12.3038 H         1 UNK         0.0792 
    129 H129      -49.7828  -24.7368   13.7480 H         1 UNK         0.0792 
    130 H130      -48.8647  -24.7063   12.2533 H         1 UNK         0.0792 
    131 H131      -50.0640  -26.9770   10.3724 H         1 UNK         0.3086 
    132 H132      -51.4420  -27.1441    8.6168 H         1 UNK         0.0583 
    133 H133      -53.9463  -27.0838    9.3779 H         1 UNK         0.1020 
    134 H134      -54.0779  -25.5769    8.5206 H         1 UNK         0.1020 
    135 H135      -55.2834  -29.0231    8.0534 H         1 UNK         0.0694 
    136 H136      -54.3791  -29.7607    6.7534 H         1 UNK         0.0694 
    137 H137      -51.5183  -24.2238    8.3789 H         1 UNK         0.2989 
    138 H138      -49.8452  -24.3014    5.2179 H         1 UNK         0.1055 
    139 H139      -51.1802  -22.2237    5.1525 H         1 UNK         0.0806 
    140 H140      -52.1050  -22.7257    6.5650 H         1 UNK         0.0806 
    141 H141      -52.2276  -23.6306    5.0667 H         1 UNK         0.0806 
    142 H142      -48.4220  -23.3050    6.5348 H         1 UNK         0.3061 
    143 H143      -48.2585  -21.0873    8.8138 H         1 UNK         0.0734 
    144 H144      -48.9875  -22.3453   10.8398 H         1 UNK         0.0832 
    145 H145      -48.0998  -23.7651   10.2941 H         1 UNK         0.0832 
    146 H146      -47.2337  -22.2995   10.7583 H         1 UNK         0.0832 
    147 H147      -46.8902  -23.6485    8.0733 H         1 UNK         0.3156 
    148 H148      -44.8150  -22.0055    5.7678 H         1 UNK         0.0589 
    149 H149      -43.8103  -23.0834    8.4595 H         1 UNK         0.0808 
    150 H150      -42.8563  -22.9324    6.9825 H         1 UNK         0.0808 
    151 H151      -43.4450  -21.4950    7.7999 H         1 UNK         0.0808 
    152 H152      -44.7431  -24.6641    6.8032 H         1 UNK         0.3098 
    153 H153      -47.5530  -25.9925    5.1521 H         1 UNK         0.0720 
    154 H154      -45.9669  -27.4629    3.9503 H         1 UNK         0.0791 
    155 H155      -45.9503  -25.8642    3.2280 H         1 UNK         0.0791 
    156 H156      -44.6335  -26.3561    4.2840 H         1 UNK         0.0791 
    157 H157      -45.5568  -27.4454    6.3927 H         1 UNK         0.3028 
@<TRIPOS>BOND
     1    1    2 1    
     2    1   82 1    
     3    1   83 1    
     4    1   84 1    
     5    2    3 2    
     6    2    4 am   BACKBONE|DICT|INTERRES
     7    4    5 1    
     8    4   85 1    
     9    5    6 1    
    10    5   80 1    
    11    5   86 1    
    12    6    7 1    
    13    6   87 1    
    14    6   88 1    
    15    7    8 1    
    16    8    9 1    
    17    8   89 1    
    18    8   90 1    
    19    9   10 ar   
    20    9   14 ar   
    21   10   11 ar   
    22   10   91 1    
    23   11   12 ar   
    24   11   58 1    
    25   12   13 ar   
    26   12   92 1    
    27   13   14 ar   
    28   13   15 1    
    29   14   93 1    
    30   15   16 1    
    31   15   94 1    
    32   15   95 1    
    33   16   17 1    
    34   17   18 1    
    35   17   96 1    
    36   17   97 1    
    37   18   19 1    
    38   18   22 1    
    39   18   98 1    
    40   19   20 am   BACKBONE|DICT|INTERRES
    41   19   21 2    
    42   20   99 1    
    43   20  100 1    
    44   22   23 am   BACKBONE|DICT|INTERRES
    45   22  101 1    
    46   23   24 2    
    47   23   25 1    
    48   25   26 1    
    49   25   27 1    
    50   25  102 1    
    51   26  103 1    
    52   26  104 1    
    53   26  105 1    
    54   27   28 am   BACKBONE|DICT|INTERRES
    55   27  106 1    
    56   28   29 2    
    57   28   30 1    
    58   30   31 1    
    59   30   32 1    
    60   30  107 1    
    61   31  108 1    
    62   31  109 1    
    63   31  110 1    
    64   32   33 am   BACKBONE|DICT|INTERRES
    65   32  111 1    
    66   33   34 2    
    67   33   35 1    
    68   35   36 1    
    69   35   37 1    
    70   35  112 1    
    71   36  113 1    
    72   36  114 1    
    73   36  115 1    
    74   37   38 am   BACKBONE|DICT|INTERRES
    75   37  116 1    
    76   38   39 2    
    77   38   40 1    
    78   40   41 1    
    79   40   42 1    
    80   40  117 1    
    81   41  118 1    
    82   41  119 1    
    83   41  120 1    
    84   42   43 am   BACKBONE|DICT|INTERRES
    85   42  121 1    
    86   43   44 2    
    87   43   45 1    
    88   45   46 1    
    89   45   47 1    
    90   45  122 1    
    91   46  123 1    
    92   46  124 1    
    93   46  125 1    
    94   47   48 am   BACKBONE|DICT|INTERRES
    95   47  126 1    
    96   48   49 2    
    97   48   50 1    
    98   50   51 1    
    99   50   52 1    
   100   50  127 1    
   101   51  128 1    
   102   51  129 1    
   103   51  130 1    
   104   52   53 am   BACKBONE|DICT|INTERRES
   105   52  131 1    
   106   53   54 2    
   107   53   55 1    
   108   55   56 1    
   109   55   59 1    
   110   55  132 1    
   111   56   57 1    
   112   56  133 1    
   113   56  134 1    
   114   57   58 1    
   115   58  135 1    
   116   58  136 1    
   117   59   60 am   BACKBONE|DICT|INTERRES
   118   59  137 1    
   119   60   61 2    
   120   60   62 1    
   121   62   63 1    
   122   62   64 1    
   123   62  138 1    
   124   63  139 1    
   125   63  140 1    
   126   63  141 1    
   127   64   65 am   BACKBONE|DICT|INTERRES
   128   64  142 1    
   129   65   66 2    
   130   65   67 1    
   131   67   68 1    
   132   67   69 1    
   133   67  143 1    
   134   68  144 1    
   135   68  145 1    
   136   68  146 1    
   137   69   70 am   BACKBONE|DICT|INTERRES
   138   69  147 1    
   139   70   71 2    
   140   70   72 1    
   141   72   73 1    
   142   72   74 1    
   143   72  148 1    
   144   73  149 1    
   145   73  150 1    
   146   73  151 1    
   147   74   75 am   BACKBONE|DICT|INTERRES
   148   74  152 1    
   149   75   76 2    
   150   75   77 1    
   151   77   78 1    
   152   77   79 1    
   153   77  153 1    
   154   78  154 1    
   155   78  155 1    
   156   78  156 1    
   157   79   80 am   BACKBONE|DICT|INTERRES
   158   79  157 1    
   159   80   81 2    
@<TRIPOS>SUBSTRUCTURE
     1 UNK         1 GROUP             0       ****    0 ROOT    
