@<TRIPOS>MOLECULE
3R207
157   159    1
SMALL
USER_CHARGES


@<TRIPOS>ATOM
      1 CA        -50.7055  -30.1154    9.1867 C.3       0 UNK        -0.1975 
      2 C         -50.2341  -30.2452    7.7489 C.2       0 UNK         0.4852 
      3 O         -49.3510  -31.0555    7.4664 O.2       0 UNK        -0.5216 
      4 N         -50.8195  -29.4570    6.8367 N.am      1 UNK        -0.4461 
      5 CA        -50.5001  -29.4844    5.4046 C.3       1 UNK         0.0864 
      6 C6        -51.7088  -29.0543    4.5355 C.3       14 UNK        -0.0898 
      7 S7        -52.1945  -27.2986    4.6873 S.3       14 UNK        -0.2598 
      8 C8        -53.7178  -27.3703    5.6861 C.3       14 UNK         0.0286 
      9 C9        -53.4679  -26.9300    7.1208 C.ar      14 UNK        -0.0844 
     10 C10       -53.1381  -25.5972    7.3852 C.ar      14 UNK        -0.0881 
     11 C11       -52.9202  -25.1622    8.6945 C.ar      14 UNK        -0.0643 
     12 C12       -53.0530  -26.0691    9.7494 C.ar      14 UNK        -0.0930 
     13 C13       -53.4022  -27.4004    9.5010 C.ar      14 UNK        -0.0827 
     14 C14       -53.5966  -27.8304    8.1834 C.ar      14 UNK        -0.1249 
     15 C15       -53.5667  -28.3644   10.6653 C.3       14 UNK         0.0141 
     16 S16       -55.2901  -28.4384   11.2368 S.3       14 UNK        -0.2313 
     17 C17       -55.9282  -29.8755   10.2991 C.3       14 UNK        -0.0915 
     18 CA        -55.9770  -31.1820   11.1384 C.3       13 UNK         0.0968 
     19 C         -54.5597  -31.8067   11.3161 C.2       13 UNK         0.5732 
     20 N         -53.9808  -31.8420   12.5116 N.am      13 UNK        -0.7310 
     21 O         -53.9733  -32.2688   10.3406 O.2       13 UNK        -0.5035 
     22 N         -56.7242  -30.9653   12.3819 N.am      13 UNK        -0.4233 
     23 C         -57.1570  -31.9079   13.2258 C.2       13 UNK         0.4989 
     24 O         -57.1307  -33.1147   12.9782 O.2       13 UNK        -0.4996 
     25 CA        -57.6963  -31.4011   14.5816 C.3       12 UNK         0.0216 
     26 CB        -57.5574  -32.4536   15.7025 C.3       12 UNK        -0.1964 
     27 N         -57.1127  -30.1136   15.0019 N.am      12 UNK        -0.4276 
     28 C         -55.8137  -29.8453   15.2102 C.2       12 UNK         0.5020 
     29 O         -54.9078  -30.6755   15.0875 O.2       12 UNK        -0.5489 
     30 CA        -55.4750  -28.3977   15.5892 C.3       11 UNK         0.0294 
     31 CB        -56.0023  -28.0461   16.9925 C.3       11 UNK        -0.2019 
     32 N         -54.0248  -28.2193   15.5681 N.am      11 UNK        -0.4493 
     33 C         -53.3763  -27.1601   15.0761 C.2       11 UNK         0.4932 
     34 O         -53.9319  -26.1992   14.5376 O.2       11 UNK        -0.5029 
     35 CA        -51.8404  -27.1994   15.1967 C.3       10 UNK         0.0280 
     36 CB        -51.2228  -27.9727   14.0210 C.3       10 UNK        -0.1976 
     37 N         -51.2475  -25.8604   15.2470 N.am      10 UNK        -0.4242 
     38 C         -51.4604  -24.9588   16.2166 C.2       10 UNK         0.5072 
     39 O         -52.1042  -25.1925   17.2427 O.2       10 UNK        -0.5224 
     40 CA        -50.8409  -23.5661   15.9921 C.3       9 UNK         0.0343 
     41 CB        -51.0434  -22.6036   17.1823 C.3       9 UNK        -0.2003 
     42 N         -49.4285  -23.6370   15.6073 N.am      9 UNK        -0.4272 
     43 C         -48.4081  -24.1406   16.3192 C.2       9 UNK         0.4988 
     44 O         -48.5219  -24.5923   17.4595 O.2       9 UNK        -0.5108 
     45 CA        -47.0169  -24.1653   15.6543 C.3       8 UNK         0.0248 
     46 CB        -46.5973  -25.6155   15.3616 C.3       8 UNK        -0.2001 
     47 N         -46.9298  -23.3816   14.4172 N.am      8 UNK        -0.4140 
     48 C         -46.9279  -22.0420   14.3560 C.2       8 UNK         0.5028 
     49 O         -46.9230  -21.3115   15.3475 O.2       8 UNK        -0.5428 
     50 CA        -46.9819  -21.4079   12.9545 C.3       7 UNK         0.0264 
     51 CB        -45.5751  -21.3216   12.3417 C.3       7 UNK        -0.1988 
     52 N         -47.8748  -22.1169   12.0324 N.am      7 UNK        -0.4454 
     53 C         -49.2010  -22.2540   12.1902 C.2       7 UNK         0.5027 
     54 O         -49.8345  -21.7657   13.1257 O.2       7 UNK        -0.5083 
     55 CA        -49.9313  -23.1378   11.1607 C.3       6 UNK         0.0844 
     56 C56       -50.2183  -22.3551    9.8521 C.3       14 UNK        -0.0967 
     57 S57       -50.8131  -23.4105    8.4879 S.3       14 UNK        -0.2604 
     58 C58       -52.5415  -23.7140    8.9627 C.3       14 UNK         0.0134 
     59 N         -49.1997  -24.3863   10.9440 N.am      6 UNK        -0.4116 
     60 C         -49.0456  -25.3513   11.8595 C.2       5 UNK         0.5034 
     61 O         -49.5533  -25.3252   12.9809 O.2       5 UNK        -0.5045 
     62 CA        -48.1378  -26.5254   11.4668 C.3       5 UNK         0.0224 
     63 CB        -48.9419  -27.6070   10.7326 C.3       5 UNK        -0.1978 
     64 N         -47.0144  -26.0921   10.6310 N.am      5 UNK        -0.4737 
     65 C         -45.9816  -25.3687   11.0889 C.2       4 UNK         0.5027 
     66 O         -45.8575  -25.0312   12.2646 O.2       4 UNK        -0.5211 
     67 CA        -44.9378  -24.8984   10.0613 C.3       4 UNK         0.0297 
     68 CB        -43.8605  -25.9751    9.8587 C.3       4 UNK        -0.1993 
     69 N         -45.5249  -24.5434    8.7680 N.am      4 UNK        -0.4486 
     70 C         -46.4295  -23.5726    8.5771 C.2       3 UNK         0.4961 
     71 O         -46.8170  -22.8165    9.4677 O.2       3 UNK        -0.5105 
     72 CA        -47.0377  -23.4488    7.1687 C.3       3 UNK         0.0299 
     73 CB        -46.3091  -22.3585    6.3678 C.3       3 UNK        -0.1972 
     74 N         -47.0459  -24.6995    6.3976 N.am      3 UNK        -0.4305 
     75 C         -47.6699  -25.8289    6.7611 C.2       2 UNK         0.5006 
     76 O         -48.2707  -25.9767    7.8284 O.2       2 UNK        -0.5106 
     77 CA        -47.5479  -27.0122    5.7984 C.3       2 UNK         0.0296 
     78 CB        -46.2695  -27.8204    6.0897 C.3       2 UNK        -0.2002 
     79 N         -48.7247  -27.8583    5.9602 N.am      2 UNK        -0.4032 
     80 C         -49.2057  -28.7156    5.0507 C.2       1 UNK         0.5000 
     81 O         -48.6689  -28.9187    3.9592 O.2       1 UNK        -0.5238 
     82 H82       -51.5235  -30.8099    9.3770 H         1 UNK         0.0889 
     83 H83       -51.0466  -29.1035    9.3961 H         1 UNK         0.0889 
     84 H84       -49.8954  -30.3487    9.8770 H         1 UNK         0.0889 
     85 H85       -51.5314  -28.7944    7.1148 H         1 UNK         0.3028 
     86 H86       -50.2962  -30.5244    5.1389 H         1 UNK         0.0864 
     87 H87       -51.4830  -29.2372    3.4832 H         1 UNK         0.0720 
     88 H88       -52.5631  -29.6960    4.7540 H         1 UNK         0.0720 
     89 H89       -54.4544  -26.7008    5.2395 H         1 UNK         0.0814 
     90 H90       -54.1623  -28.3656    5.6511 H         1 UNK         0.0814 
     91 H91       -53.0368  -24.8972    6.5668 H         1 UNK         0.1469 
     92 H92       -52.8928  -25.7369   10.7663 H         1 UNK         0.1381 
     93 H93       -53.8657  -28.8591    7.9877 H         1 UNK         0.1206 
     94 H94       -53.2204  -29.3601   10.3924 H         1 UNK         0.0813 
     95 H95       -52.9424  -28.0481   11.4999 H         1 UNK         0.0813 
     96 H96       -55.3554  -30.0173    9.3818 H         1 UNK         0.0638 
     97 H97       -56.9375  -29.6234    9.9705 H         1 UNK         0.0638 
     98 H98       -56.5436  -31.9144   10.5606 H         1 UNK         0.0568 
     99 H99       -54.4355  -31.4561   13.3331 H         1 UNK         0.3450 
    100 H100      -53.0683  -32.2579   12.5989 H         1 UNK         0.3450 
    101 H101      -56.7827  -30.0020   12.6752 H         1 UNK         0.2987 
    102 H102      -58.7616  -31.2202   14.4301 H         1 UNK         0.0766 
    103 H103      -58.1071  -33.3634   15.4578 H         1 UNK         0.0798 
    104 H104      -57.9545  -32.0823   16.6471 H         1 UNK         0.0798 
    105 H105      -56.5168  -32.7370   15.8645 H         1 UNK         0.0798 
    106 H106      -57.7761  -29.3592   15.1208 H         1 UNK         0.3198 
    107 H107      -55.9431  -27.7444   14.8492 H         1 UNK         0.0843 
    108 H108      -57.0884  -28.1279   17.0440 H         1 UNK         0.0831 
    109 H109      -55.7453  -27.0220   17.2646 H         1 UNK         0.0831 
    110 H110      -55.5880  -28.7070   17.7551 H         1 UNK         0.0831 
    111 H111      -53.4999  -29.0246   15.8853 H         1 UNK         0.3133 
    112 H112      -51.5813  -27.7118   16.1255 H         1 UNK         0.0566 
    113 H113      -50.1474  -28.0965   14.1505 H         1 UNK         0.0814 
    114 H114      -51.6566  -28.9692   13.9256 H         1 UNK         0.0814 
    115 H115      -51.3849  -27.4501   13.0788 H         1 UNK         0.0814 
    116 H116      -50.6870  -25.5854   14.4427 H         1 UNK         0.3091 
    117 H117      -51.3647  -23.1385   15.1357 H         1 UNK         0.0702 
    118 H118      -50.5831  -22.9819   18.0955 H         1 UNK         0.0785 
    119 H119      -52.1044  -22.4597   17.3898 H         1 UNK         0.0785 
    120 H120      -50.6180  -21.6220   16.9732 H         1 UNK         0.0785 
    121 H121      -49.2260  -23.3015   14.6742 H         1 UNK         0.2998 
    122 H122      -46.3089  -23.7449   16.3714 H         1 UNK         0.0697 
    123 H123      -47.2724  -26.0913   14.6499 H         1 UNK         0.0825 
    124 H124      -46.6044  -26.2184   16.2706 H         1 UNK         0.0825 
    125 H125      -45.5883  -25.6627   14.9516 H         1 UNK         0.0825 
    126 H126      -46.8354  -23.9101   13.5539 H         1 UNK         0.3029 
    127 H127      -47.3675  -20.3925   13.0682 H         1 UNK         0.0897 
    128 H128      -45.5934  -20.8177   11.3751 H         1 UNK         0.0792 
    129 H129      -44.9011  -20.7589   12.9891 H         1 UNK         0.0792 
    130 H130      -45.1378  -22.3095   12.1948 H         1 UNK         0.0792 
    131 H131      -47.4456  -22.5119   11.1970 H         1 UNK         0.3086 
    132 H132      -50.8937  -23.4104   11.5988 H         1 UNK         0.0583 
    133 H133      -50.9470  -21.5628   10.0341 H         1 UNK         0.1020 
    134 H134      -49.3172  -21.8531    9.4950 H         1 UNK         0.1020 
    135 H135      -52.6967  -23.4719   10.0147 H         1 UNK         0.0694 
    136 H136      -53.1925  -23.0475    8.3952 H         1 UNK         0.0694 
    137 H137      -48.7651  -24.5010   10.0387 H         1 UNK         0.2989 
    138 H138      -47.7359  -26.9603   12.3844 H         1 UNK         0.1055 
    139 H139      -49.7153  -28.0214   11.3793 H         1 UNK         0.0806 
    140 H140      -48.3026  -28.4329   10.4210 H         1 UNK         0.0806 
    141 H141      -49.4386  -27.2115    9.8458 H         1 UNK         0.0806 
    142 H142      -47.0934  -26.2659    9.6358 H         1 UNK         0.3061 
    143 H143      -44.4576  -24.0041   10.4637 H         1 UNK         0.0734 
    144 H144      -43.3952  -26.2425   10.8086 H         1 UNK         0.0832 
    145 H145      -44.2753  -26.8888    9.4311 H         1 UNK         0.0832 
    146 H146      -43.0663  -25.6243    9.1994 H         1 UNK         0.0832 
    147 H147      -45.2615  -25.1085    7.9746 H         1 UNK         0.3156 
    148 H148      -48.0762  -23.1383    7.2939 H         1 UNK         0.0589 
    149 H149      -45.2680  -22.6228    6.1781 H         1 UNK         0.0808 
    150 H150      -46.7927  -22.1802    5.4072 H         1 UNK         0.0808 
    151 H151      -46.3112  -21.4108    6.9086 H         1 UNK         0.0808 
    152 H152      -46.5622  -24.6807    5.5108 H         1 UNK         0.3098 
    153 H153      -47.5203  -26.6304    4.7755 H         1 UNK         0.0720 
    154 H154      -46.1631  -28.6582    5.4003 H         1 UNK         0.0791 
    155 H155      -46.2712  -28.2224    7.1039 H         1 UNK         0.0791 
    156 H156      -45.3778  -27.2015    5.9827 H         1 UNK         0.0791 
    157 H157      -49.2333  -27.7060    6.8222 H         1 UNK         0.3028 
@<TRIPOS>BOND
     1    1    2 1    
     2    1   82 1    
     3    1   83 1    
     4    1   84 1    
     5    2    3 2    
     6    2    4 am   BACKBONE|DICT|INTERRES
     7    4    5 1    
     8    4   85 1    
     9    5    6 1    
    10    5   80 1    
    11    5   86 1    
    12    6    7 1    
    13    6   87 1    
    14    6   88 1    
    15    7    8 1    
    16    8    9 1    
    17    8   89 1    
    18    8   90 1    
    19    9   10 ar   
    20    9   14 ar   
    21   10   11 ar   
    22   10   91 1    
    23   11   12 ar   
    24   11   58 1    
    25   12   13 ar   
    26   12   92 1    
    27   13   14 ar   
    28   13   15 1    
    29   14   93 1    
    30   15   16 1    
    31   15   94 1    
    32   15   95 1    
    33   16   17 1    
    34   17   18 1    
    35   17   96 1    
    36   17   97 1    
    37   18   19 1    
    38   18   22 1    
    39   18   98 1    
    40   19   20 am   BACKBONE|DICT|INTERRES
    41   19   21 2    
    42   20   99 1    
    43   20  100 1    
    44   22   23 am   BACKBONE|DICT|INTERRES
    45   22  101 1    
    46   23   24 2    
    47   23   25 1    
    48   25   26 1    
    49   25   27 1    
    50   25  102 1    
    51   26  103 1    
    52   26  104 1    
    53   26  105 1    
    54   27   28 am   BACKBONE|DICT|INTERRES
    55   27  106 1    
    56   28   29 2    
    57   28   30 1    
    58   30   31 1    
    59   30   32 1    
    60   30  107 1    
    61   31  108 1    
    62   31  109 1    
    63   31  110 1    
    64   32   33 am   BACKBONE|DICT|INTERRES
    65   32  111 1    
    66   33   34 2    
    67   33   35 1    
    68   35   36 1    
    69   35   37 1    
    70   35  112 1    
    71   36  113 1    
    72   36  114 1    
    73   36  115 1    
    74   37   38 am   BACKBONE|DICT|INTERRES
    75   37  116 1    
    76   38   39 2    
    77   38   40 1    
    78   40   41 1    
    79   40   42 1    
    80   40  117 1    
    81   41  118 1    
    82   41  119 1    
    83   41  120 1    
    84   42   43 am   BACKBONE|DICT|INTERRES
    85   42  121 1    
    86   43   44 2    
    87   43   45 1    
    88   45   46 1    
    89   45   47 1    
    90   45  122 1    
    91   46  123 1    
    92   46  124 1    
    93   46  125 1    
    94   47   48 am   BACKBONE|DICT|INTERRES
    95   47  126 1    
    96   48   49 2    
    97   48   50 1    
    98   50   51 1    
    99   50   52 1    
   100   50  127 1    
   101   51  128 1    
   102   51  129 1    
   103   51  130 1    
   104   52   53 am   BACKBONE|DICT|INTERRES
   105   52  131 1    
   106   53   54 2    
   107   53   55 1    
   108   55   56 1    
   109   55   59 1    
   110   55  132 1    
   111   56   57 1    
   112   56  133 1    
   113   56  134 1    
   114   57   58 1    
   115   58  135 1    
   116   58  136 1    
   117   59   60 am   BACKBONE|DICT|INTERRES
   118   59  137 1    
   119   60   61 2    
   120   60   62 1    
   121   62   63 1    
   122   62   64 1    
   123   62  138 1    
   124   63  139 1    
   125   63  140 1    
   126   63  141 1    
   127   64   65 am   BACKBONE|DICT|INTERRES
   128   64  142 1    
   129   65   66 2    
   130   65   67 1    
   131   67   68 1    
   132   67   69 1    
   133   67  143 1    
   134   68  144 1    
   135   68  145 1    
   136   68  146 1    
   137   69   70 am   BACKBONE|DICT|INTERRES
   138   69  147 1    
   139   70   71 2    
   140   70   72 1    
   141   72   73 1    
   142   72   74 1    
   143   72  148 1    
   144   73  149 1    
   145   73  150 1    
   146   73  151 1    
   147   74   75 am   BACKBONE|DICT|INTERRES
   148   74  152 1    
   149   75   76 2    
   150   75   77 1    
   151   77   78 1    
   152   77   79 1    
   153   77  153 1    
   154   78  154 1    
   155   78  155 1    
   156   78  156 1    
   157   79   80 am   BACKBONE|DICT|INTERRES
   158   79  157 1    
   159   80   81 2    
@<TRIPOS>SUBSTRUCTURE
     1 UNK         1 GROUP             0       ****    0 ROOT    
