@<TRIPOS>MOLECULE
3R207
157   159    1
SMALL
USER_CHARGES


@<TRIPOS>ATOM
      1 CA        -46.8476  -32.5419    3.9308 C.3       0 UNK        -0.1975 
      2 C         -47.6600  -31.3765    4.4748 C.2       0 UNK         0.4852 
      3 O         -47.9089  -31.3157    5.6798 O.2       0 UNK        -0.5216 
      4 N         -48.0625  -30.4432    3.5995 N.am      1 UNK        -0.4461 
      5 CA        -48.8627  -29.2384    3.8716 C.3       1 UNK         0.0864 
      6 C6        -50.2413  -29.5550    4.5179 C.3       14 UNK        -0.0898 
      7 S7        -51.5502  -28.3528    4.0967 S.3       14 UNK        -0.2598 
      8 C8        -51.4482  -27.1373    5.4502 C.3       14 UNK         0.0286 
      9 C9        -52.1156  -27.6061    6.7351 C.ar      14 UNK        -0.0844 
     10 C10       -51.4034  -28.3682    7.6636 C.ar      14 UNK        -0.0881 
     11 C11       -51.9991  -28.7686    8.8611 C.ar      14 UNK        -0.0643 
     12 C12       -53.3107  -28.3786    9.1405 C.ar      14 UNK        -0.0930 
     13 C13       -54.0348  -27.5924    8.2339 C.ar      14 UNK        -0.0827 
     14 C14       -53.4301  -27.2275    7.0255 C.ar      14 UNK        -0.1249 
     15 C15       -55.4590  -27.1020    8.5114 C.3       14 UNK         0.0141 
     16 S16       -55.9942  -27.1696   10.2595 S.3       14 UNK        -0.2313 
     17 C17       -56.6302  -28.8762   10.3911 C.3       14 UNK        -0.0915 
     18 CA        -57.8044  -28.9755   11.3994 C.3       13 UNK         0.0968 
     19 C         -58.5369  -30.3447   11.2831 C.2       13 UNK         0.5732 
     20 N         -58.5786  -31.1732   12.3203 N.am      13 UNK        -0.7310 
     21 O         -59.0901  -30.6569   10.2312 O.2       13 UNK        -0.5035 
     22 N         -57.3655  -28.6397   12.7646 N.am      13 UNK        -0.4233 
     23 C         -58.1583  -28.1498   13.7257 C.2       13 UNK         0.4989 
     24 O         -59.3483  -27.8808   13.5554 O.2       13 UNK        -0.4996 
     25 CA        -57.5422  -27.9420   15.1231 C.3       12 UNK         0.0216 
     26 CB        -58.1717  -28.9137   16.1369 C.3       12 UNK        -0.1964 
     27 N         -56.0834  -28.0993   15.1638 N.am      12 UNK        -0.4276 
     28 C         -55.2038  -27.1491   14.8227 C.2       12 UNK         0.5020 
     29 O         -55.5214  -26.0406   14.3850 O.2       12 UNK        -0.5489 
     30 CA        -53.7156  -27.5177   14.9727 C.3       11 UNK         0.0294 
     31 CB        -53.1388  -27.9598   13.6174 C.3       11 UNK        -0.2019 
     32 N         -52.9129  -26.4106   15.5006 N.am      11 UNK        -0.4493 
     33 C         -53.0885  -25.8326   16.6981 C.2       11 UNK         0.4932 
     34 O         -53.9202  -26.2093   17.5269 O.2       11 UNK        -0.5029 
     35 CA        -52.1588  -24.6467   17.0193 C.3       10 UNK         0.0280 
     36 CB        -52.3939  -24.0448   18.4212 C.3       10 UNK        -0.1976 
     37 N         -50.7452  -24.9801   16.8211 N.am      10 UNK        -0.4242 
     38 C         -50.0254  -25.9247   17.4468 C.2       10 UNK         0.5072 
     39 O         -50.4605  -26.6342   18.3550 O.2       10 UNK        -0.5224 
     40 CA        -48.5709  -26.1375   16.9802 C.3       9 UNK         0.0343 
     41 CB        -48.4476  -27.4714   16.2251 C.3       9 UNK        -0.2003 
     42 N         -48.0550  -25.0621   16.1284 N.am      9 UNK        -0.4272 
     43 C         -47.7189  -23.8359   16.5522 C.2       9 UNK         0.4988 
     44 O         -47.7335  -23.4913   17.7343 O.2       9 UNK        -0.5108 
     45 CA        -47.3393  -22.8085   15.4699 C.3       8 UNK         0.0248 
     46 CB        -45.8560  -22.9398   15.0892 C.3       8 UNK        -0.2001 
     47 N         -48.1739  -22.9029   14.2657 N.am      8 UNK        -0.4140 
     48 C         -49.4992  -22.6891   14.2437 C.2       8 UNK         0.5028 
     49 O         -50.1546  -22.3535   15.2298 O.2       8 UNK        -0.5428 
     50 CA        -50.2317  -22.9401   12.9165 C.3       7 UNK         0.0264 
     51 CB        -50.0226  -21.7687   11.9440 C.3       7 UNK        -0.1988 
     52 N         -49.8274  -24.1989   12.2871 N.am      7 UNK        -0.4454 
     53 C         -50.0551  -25.4140   12.8080 C.2       7 UNK         0.5027 
     54 O         -50.7169  -25.5990   13.8302 O.2       7 UNK        -0.5083 
     55 CA        -49.4047  -26.6255   12.1093 C.3       6 UNK         0.0844 
     56 C56       -50.3130  -27.1969   11.0023 C.3       14 UNK        -0.0967 
     57 S57       -49.6818  -28.7970   10.3935 S.3       14 UNK        -0.2604 
     58 C58       -51.2210  -29.6089    9.8645 C.3       14 UNK         0.0134 
     59 N         -48.0599  -26.3245   11.6128 N.am      6 UNK        -0.4116 
     60 C         -47.0113  -26.0331   12.3924 C.2       5 UNK         0.5034 
     61 O         -47.0540  -26.0071   13.6213 O.2       5 UNK        -0.5045 
     62 CA        -45.7081  -25.6545   11.6773 C.3       5 UNK         0.0224 
     63 CB        -44.9657  -26.9074   11.1862 C.3       5 UNK        -0.1978 
     64 N         -45.9539  -24.7436   10.5578 N.am      5 UNK        -0.4737 
     65 C         -46.3548  -23.4727   10.7017 C.2       4 UNK         0.5027 
     66 O         -46.5250  -22.9287   11.7928 O.2       4 UNK        -0.5211 
     67 CA        -46.6508  -22.6900    9.4121 C.3       4 UNK         0.0297 
     68 CB        -45.3559  -22.1090    8.8229 C.3       4 UNK        -0.1993 
     69 N         -47.3384  -23.4936    8.3971 N.am      4 UNK        -0.4486 
     70 C         -48.5738  -23.9938    8.5400 C.2       3 UNK         0.4961 
     71 O         -49.2645  -23.8402    9.5450 O.2       3 UNK        -0.5105 
     72 CA        -49.1235  -24.8353    7.3784 C.3       3 UNK         0.0299 
     73 CB        -49.6623  -23.9159    6.2698 C.3       3 UNK        -0.1972 
     74 N         -48.1619  -25.7841    6.8065 N.am      3 UNK        -0.4305 
     75 C         -47.4617  -26.7063    7.4810 C.2       2 UNK         0.5006 
     76 O         -47.4675  -26.8065    8.7093 O.2       2 UNK        -0.5106 
     77 CA        -46.6197  -27.6761    6.6283 C.3       2 UNK         0.0296 
     78 CB        -45.7155  -28.5791    7.4875 C.3       2 UNK        -0.2002 
     79 N         -47.4486  -28.5261    5.7678 N.am      2 UNK        -0.4032 
     80 C         -48.0748  -28.1535    4.6434 C.2       1 UNK         0.5000 
     81 O         -48.0333  -27.0033    4.2007 O.2       1 UNK        -0.5238 
     82 H82       -47.3559  -33.4825    4.1411 H         1 UNK         0.0889 
     83 H83       -45.8678  -32.5701    4.4067 H         1 UNK         0.0889 
     84 H84       -46.7000  -32.4698    2.8534 H         1 UNK         0.0889 
     85 H85       -47.7899  -30.5497    2.6315 H         1 UNK         0.3028 
     86 H86       -49.0554  -28.8209    2.8816 H         1 UNK         0.0864 
     87 H87       -50.5998  -30.5144    4.1414 H         1 UNK         0.0720 
     88 H88       -50.1612  -29.6942    5.5936 H         1 UNK         0.0720 
     89 H89       -51.9153  -26.2109    5.1128 H         1 UNK         0.0814 
     90 H90       -50.4077  -26.8901    5.6446 H         1 UNK         0.0814 
     91 H91       -50.3737  -28.6355    7.4751 H         1 UNK         0.1469 
     92 H92       -53.7505  -28.6818   10.0781 H         1 UNK         0.1381 
     93 H93       -53.9787  -26.6238    6.3150 H         1 UNK         0.1206 
     94 H94       -56.1596  -27.6534    7.8834 H         1 UNK         0.0813 
     95 H95       -55.5313  -26.0597    8.1972 H         1 UNK         0.0813 
     96 H96       -55.8178  -29.5430   10.6829 H         1 UNK         0.0638 
     97 H97       -56.9516  -29.2017    9.4002 H         1 UNK         0.0638 
     98 H98       -58.5469  -28.2333   11.0993 H         1 UNK         0.0568 
     99 H99       -59.0624  -32.0525   12.2282 H         1 UNK         0.3450 
    100 H100      -58.1344  -30.9301   13.1901 H         1 UNK         0.3450 
    101 H101      -56.3995  -28.8265   12.9820 H         1 UNK         0.2987 
    102 H102      -57.7914  -26.9246   15.4328 H         1 UNK         0.0766 
    103 H103      -57.8014  -28.7291   17.1456 H         1 UNK         0.0798 
    104 H104      -57.9622  -29.9544   15.8867 H         1 UNK         0.0798 
    105 H105      -59.2563  -28.7991   16.1691 H         1 UNK         0.0798 
    106 H106      -55.7356  -28.9818   15.5129 H         1 UNK         0.3198 
    107 H107      -53.6244  -28.3472   15.6771 H         1 UNK         0.0843 
    108 H108      -53.2143  -27.1633   12.8757 H         1 UNK         0.0831 
    109 H109      -53.6750  -28.8236   13.2226 H         1 UNK         0.0831 
    110 H110      -52.0893  -28.2423   13.7040 H         1 UNK         0.0831 
    111 H111      -52.1829  -26.0463   14.8908 H         1 UNK         0.3133 
    112 H112      -52.3909  -23.8711   16.2880 H         1 UNK         0.0566 
    113 H113      -51.7432  -23.1882   18.5972 H         1 UNK         0.0814 
    114 H114      -53.4224  -23.6982   18.5280 H         1 UNK         0.0814 
    115 H115      -52.2132  -24.7722   19.2131 H         1 UNK         0.0814 
    116 H116      -50.2892  -24.4643   16.0786 H         1 UNK         0.3091 
    117 H117      -47.9466  -26.1920   17.8743 H         1 UNK         0.0702 
    118 H118      -47.4167  -27.6673   15.9293 H         1 UNK         0.0785 
    119 H119      -49.0624  -27.4795   15.3246 H         1 UNK         0.0785 
    120 H120      -48.7703  -28.3066   16.8481 H         1 UNK         0.0785 
    121 H121      -47.9213  -25.2884   15.1455 H         1 UNK         0.2998 
    122 H122      -47.4915  -21.8142   15.8947 H         1 UNK         0.0697 
    123 H123      -45.6388  -23.9060   14.6336 H         1 UNK         0.0825 
    124 H124      -45.2171  -22.8419   15.9678 H         1 UNK         0.0825 
    125 H125      -45.5580  -22.1642   14.3834 H         1 UNK         0.0825 
    126 H126      -47.6978  -23.1296   13.3967 H         1 UNK         0.3029 
    127 H127      -51.2994  -23.0085   13.1370 H         1 UNK         0.0897 
    128 H128      -50.6139  -21.8978   11.0373 H         1 UNK         0.0792 
    129 H129      -50.3277  -20.8249   12.3979 H         1 UNK         0.0792 
    130 H130      -48.9781  -21.6674   11.6491 H         1 UNK         0.0792 
    131 H131      -49.3611  -24.1272   11.3848 H         1 UNK         0.3086 
    132 H132      -49.2957  -27.3971   12.8744 H         1 UNK         0.0583 
    133 H133      -51.3279  -27.3412   11.3747 H         1 UNK         0.1020 
    134 H134      -50.3894  -26.5037   10.1619 H         1 UNK         0.1020 
    135 H135      -50.9765  -30.5702    9.4107 H         1 UNK         0.0694 
    136 H136      -51.8247  -29.8271   10.7469 H         1 UNK         0.0694 
    137 H137      -47.9247  -26.3697   10.6066 H         1 UNK         0.2989 
    138 H138      -45.0697  -25.1407   12.3997 H         1 UNK         0.1055 
    139 H139      -44.7211  -27.5641   12.0221 H         1 UNK         0.0806 
    140 H140      -44.0287  -26.6479   10.6935 H         1 UNK         0.0806 
    141 H141      -45.5658  -27.4879   10.4851 H         1 UNK         0.0806 
    142 H142      -45.9123  -25.1372    9.6282 H         1 UNK         0.3061 
    143 H143      -47.3064  -21.8575    9.6768 H         1 UNK         0.0734 
    144 H144      -45.5611  -21.4761    7.9594 H         1 UNK         0.0832 
    145 H145      -44.8374  -21.4917    9.5581 H         1 UNK         0.0832 
    146 H146      -44.6642  -22.8922    8.5102 H         1 UNK         0.0832 
    147 H147      -46.8420  -23.6788    7.5377 H         1 UNK         0.3156 
    148 H148      -49.9563  -25.4239    7.7687 H         1 UNK         0.0589 
    149 H149      -48.8723  -23.3036    5.8330 H         1 UNK         0.0808 
    150 H150      -50.1251  -24.4815    5.4623 H         1 UNK         0.0808 
    151 H151      -50.4207  -23.2369    6.6624 H         1 UNK         0.0808 
    152 H152      -48.1029  -25.8218    5.7929 H         1 UNK         0.3098 
    153 H153      -45.9724  -27.0694    5.9916 H         1 UNK         0.0720 
    154 H154      -45.0983  -29.2291    6.8671 H         1 UNK         0.0791 
    155 H155      -46.2985  -29.2114    8.1590 H         1 UNK         0.0791 
    156 H156      -45.0395  -27.9835    8.1019 H         1 UNK         0.0791 
    157 H157      -47.5478  -29.5011    6.0417 H         1 UNK         0.3028 
@<TRIPOS>BOND
     1    1    2 1    
     2    1   82 1    
     3    1   83 1    
     4    1   84 1    
     5    2    3 2    
     6    2    4 am   BACKBONE|DICT|INTERRES
     7    4    5 1    
     8    4   85 1    
     9    5    6 1    
    10    5   80 1    
    11    5   86 1    
    12    6    7 1    
    13    6   87 1    
    14    6   88 1    
    15    7    8 1    
    16    8    9 1    
    17    8   89 1    
    18    8   90 1    
    19    9   10 ar   
    20    9   14 ar   
    21   10   11 ar   
    22   10   91 1    
    23   11   12 ar   
    24   11   58 1    
    25   12   13 ar   
    26   12   92 1    
    27   13   14 ar   
    28   13   15 1    
    29   14   93 1    
    30   15   16 1    
    31   15   94 1    
    32   15   95 1    
    33   16   17 1    
    34   17   18 1    
    35   17   96 1    
    36   17   97 1    
    37   18   19 1    
    38   18   22 1    
    39   18   98 1    
    40   19   20 am   BACKBONE|DICT|INTERRES
    41   19   21 2    
    42   20   99 1    
    43   20  100 1    
    44   22   23 am   BACKBONE|DICT|INTERRES
    45   22  101 1    
    46   23   24 2    
    47   23   25 1    
    48   25   26 1    
    49   25   27 1    
    50   25  102 1    
    51   26  103 1    
    52   26  104 1    
    53   26  105 1    
    54   27   28 am   BACKBONE|DICT|INTERRES
    55   27  106 1    
    56   28   29 2    
    57   28   30 1    
    58   30   31 1    
    59   30   32 1    
    60   30  107 1    
    61   31  108 1    
    62   31  109 1    
    63   31  110 1    
    64   32   33 am   BACKBONE|DICT|INTERRES
    65   32  111 1    
    66   33   34 2    
    67   33   35 1    
    68   35   36 1    
    69   35   37 1    
    70   35  112 1    
    71   36  113 1    
    72   36  114 1    
    73   36  115 1    
    74   37   38 am   BACKBONE|DICT|INTERRES
    75   37  116 1    
    76   38   39 2    
    77   38   40 1    
    78   40   41 1    
    79   40   42 1    
    80   40  117 1    
    81   41  118 1    
    82   41  119 1    
    83   41  120 1    
    84   42   43 am   BACKBONE|DICT|INTERRES
    85   42  121 1    
    86   43   44 2    
    87   43   45 1    
    88   45   46 1    
    89   45   47 1    
    90   45  122 1    
    91   46  123 1    
    92   46  124 1    
    93   46  125 1    
    94   47   48 am   BACKBONE|DICT|INTERRES
    95   47  126 1    
    96   48   49 2    
    97   48   50 1    
    98   50   51 1    
    99   50   52 1    
   100   50  127 1    
   101   51  128 1    
   102   51  129 1    
   103   51  130 1    
   104   52   53 am   BACKBONE|DICT|INTERRES
   105   52  131 1    
   106   53   54 2    
   107   53   55 1    
   108   55   56 1    
   109   55   59 1    
   110   55  132 1    
   111   56   57 1    
   112   56  133 1    
   113   56  134 1    
   114   57   58 1    
   115   58  135 1    
   116   58  136 1    
   117   59   60 am   BACKBONE|DICT|INTERRES
   118   59  137 1    
   119   60   61 2    
   120   60   62 1    
   121   62   63 1    
   122   62   64 1    
   123   62  138 1    
   124   63  139 1    
   125   63  140 1    
   126   63  141 1    
   127   64   65 am   BACKBONE|DICT|INTERRES
   128   64  142 1    
   129   65   66 2    
   130   65   67 1    
   131   67   68 1    
   132   67   69 1    
   133   67  143 1    
   134   68  144 1    
   135   68  145 1    
   136   68  146 1    
   137   69   70 am   BACKBONE|DICT|INTERRES
   138   69  147 1    
   139   70   71 2    
   140   70   72 1    
   141   72   73 1    
   142   72   74 1    
   143   72  148 1    
   144   73  149 1    
   145   73  150 1    
   146   73  151 1    
   147   74   75 am   BACKBONE|DICT|INTERRES
   148   74  152 1    
   149   75   76 2    
   150   75   77 1    
   151   77   78 1    
   152   77   79 1    
   153   77  153 1    
   154   78  154 1    
   155   78  155 1    
   156   78  156 1    
   157   79   80 am   BACKBONE|DICT|INTERRES
   158   79  157 1    
   159   80   81 2    
@<TRIPOS>SUBSTRUCTURE
     1 UNK         1 GROUP             0       ****    0 ROOT    
