@<TRIPOS>MOLECULE
3R207
157   159    1
SMALL
USER_CHARGES


@<TRIPOS>ATOM
      1 CA        -47.5392  -32.7612    2.1261 C.3       0 UNK        -0.1975 
      2 C         -47.8296  -31.4706    2.8783 C.2       0 UNK         0.4852 
      3 O         -47.0888  -30.4972    2.7312 O.2       0 UNK        -0.5216 
      4 N         -48.9052  -31.4527    3.6765 N.am      1 UNK        -0.4461 
      5 CA        -49.2982  -30.3238    4.5258 C.3       1 UNK         0.0864 
      6 C6        -50.7687  -30.4677    4.9986 C.3       14 UNK        -0.0898 
      7 S7        -51.5995  -28.8597    5.2027 S.3       14 UNK        -0.2598 
      8 C8        -51.5685  -28.6560    7.0111 C.3       14 UNK         0.0286 
      9 C9        -52.3360  -27.4120    7.4323 C.ar      14 UNK        -0.0844 
     10 C10       -51.8436  -26.1422    7.1147 C.ar      14 UNK        -0.0881 
     11 C11       -52.5550  -24.9945    7.4756 C.ar      14 UNK        -0.0643 
     12 C12       -53.7559  -25.1212    8.1780 C.ar      14 UNK        -0.0930 
     13 C13       -54.2505  -26.3839    8.5149 C.ar      14 UNK        -0.0827 
     14 C14       -53.5410  -27.5267    8.1328 C.ar      14 UNK        -0.1249 
     15 C15       -55.5573  -26.5016    9.2836 C.3       14 UNK         0.0141 
     16 S16       -55.2904  -26.2773   11.0684 S.3       14 UNK        -0.2313 
     17 C17       -54.6589  -27.9172   11.5588 C.3       14 UNK        -0.0915 
     18 CA        -55.5763  -28.5942   12.6075 C.3       13 UNK         0.0968 
     19 C         -55.1404  -30.0563   12.8746 C.2       13 UNK         0.5732 
     20 N         -55.9297  -31.0311   12.4441 N.am      13 UNK        -0.7310 
     21 O         -54.0749  -30.3158   13.4296 O.2       13 UNK        -0.5035 
     22 N         -55.5910  -27.8373   13.8619 N.am      13 UNK        -0.4233 
     23 C         -56.6431  -27.7299   14.6810 C.2       13 UNK         0.4989 
     24 O         -57.7455  -28.2272   14.4416 O.2       13 UNK        -0.4996 
     25 CA        -56.4407  -26.9068   15.9717 C.3       12 UNK         0.0216 
     26 CB        -57.4781  -27.2377   17.0662 C.3       12 UNK        -0.1964 
     27 N         -55.0758  -26.9781   16.5061 N.am      12 UNK        -0.4276 
     28 C         -54.4211  -28.0719   16.9202 C.2       12 UNK         0.5020 
     29 O         -54.9030  -29.2061   16.9609 O.2       12 UNK        -0.5489 
     30 CA        -52.9598  -27.8508   17.3441 C.3       11 UNK         0.0294 
     31 CB        -52.6438  -28.5758   18.6638 C.3       11 UNK        -0.2019 
     32 N         -51.9828  -28.2596   16.3312 N.am      11 UNK        -0.4493 
     33 C         -51.9631  -27.9240   15.0330 C.2       11 UNK         0.4932 
     34 O         -52.8479  -27.2934   14.4546 O.2       11 UNK        -0.5029 
     35 CA        -50.6577  -28.2487   14.2915 C.3       10 UNK         0.0280 
     36 CB        -50.8176  -28.2224   12.7600 C.3       10 UNK        -0.1976 
     37 N         -49.6764  -27.2434   14.6898 N.am      10 UNK        -0.4242 
     38 C         -48.9545  -27.2832   15.8175 C.2       10 UNK         0.5072 
     39 O         -48.8637  -28.2779   16.5389 O.2       10 UNK        -0.5224 
     40 CA        -48.2933  -25.9683   16.2534 C.3       9 UNK         0.0343 
     41 CB        -46.9559  -25.7381   15.5340 C.3       9 UNK        -0.2003 
     42 N         -49.1841  -24.8251   16.0339 N.am      9 UNK        -0.4272 
     43 C         -50.1893  -24.4866   16.8541 C.2       9 UNK         0.4988 
     44 O         -50.4624  -25.0899   17.8922 O.2       9 UNK        -0.5108 
     45 CA        -51.0116  -23.2512   16.4614 C.3       8 UNK         0.0248 
     46 CB        -50.1202  -22.0140   16.2483 C.3       8 UNK        -0.2001 
     47 N         -51.8094  -23.4875   15.2613 N.am      8 UNK        -0.4140 
     48 C         -52.9876  -24.1186   15.2210 C.2       8 UNK         0.5028 
     49 O         -53.5391  -24.6019   16.2119 O.2       8 UNK        -0.5428 
     50 CA        -53.7095  -24.2152   13.8616 C.3       7 UNK         0.0264 
     51 CB        -54.7137  -23.0592   13.6953 C.3       7 UNK        -0.1988 
     52 N         -52.8562  -24.3451   12.6691 N.am      7 UNK        -0.4454 
     53 C         -51.9759  -23.4742   12.1554 C.2       7 UNK         0.5027 
     54 O         -51.6767  -22.4000   12.6814 O.2       7 UNK        -0.5083 
     55 CA        -51.3123  -23.8746   10.8221 C.3       6 UNK         0.0844 
     56 C56       -51.5573  -22.7746    9.7532 C.3       14 UNK        -0.0967 
     57 S57       -50.6836  -23.0797    8.1744 S.3       14 UNK        -0.2604 
     58 C58       -52.0348  -23.6202    7.0870 C.3       14 UNK         0.0134 
     59 N         -49.8833  -24.1824   10.9230 N.am      6 UNK        -0.4116 
     60 C         -49.1458  -24.6952   11.9163 C.2       5 UNK         0.5034 
     61 O         -49.5563  -24.9450   13.0508 O.2       5 UNK        -0.5045 
     62 CA        -47.6829  -25.0348   11.5645 C.3       5 UNK         0.0224 
     63 CB        -47.4548  -26.5525   11.6670 C.3       5 UNK        -0.1978 
     64 N         -47.2778  -24.5948   10.2218 N.am      5 UNK        -0.4737 
     65 C         -46.9603  -23.3366    9.8863 C.2       4 UNK         0.5027 
     66 O         -46.9641  -22.4024   10.6885 O.2       4 UNK        -0.5211 
     67 CA        -46.6150  -23.0850    8.4032 C.3       4 UNK         0.0297 
     68 CB        -45.8184  -21.7802    8.1889 C.3       4 UNK        -0.1993 
     69 N         -45.9478  -24.2201    7.7489 N.am      4 UNK        -0.4486 
     70 C         -44.7603  -24.7578    8.0620 C.2       3 UNK         0.4961 
     71 O         -44.0588  -24.3837    9.0032 O.2       3 UNK        -0.5105 
     72 CA        -44.2958  -25.9265    7.1717 C.3       3 UNK         0.0299 
     73 CB        -42.8241  -26.3087    7.4197 C.3       3 UNK        -0.1972 
     74 N         -45.1304  -27.1162    7.3552 N.am      3 UNK        -0.4305 
     75 C         -46.3443  -27.3024    6.8233 C.2       2 UNK         0.5006 
     76 O         -46.9311  -26.4643    6.1324 O.2       2 UNK        -0.5106 
     77 CA        -47.0275  -28.6342    7.1448 C.3       2 UNK         0.0296 
     78 CB        -47.7593  -28.5660    8.4968 C.3       2 UNK        -0.2002 
     79 N         -47.9716  -28.9521    6.0772 N.am      2 UNK        -0.4032 
     80 C         -48.3304  -30.1902    5.7203 C.2       1 UNK         0.5000 
     81 O         -47.9456  -31.2089    6.3030 O.2       1 UNK        -0.5238 
     82 H82       -47.5417  -32.5781    1.0518 H         1 UNK         0.0889 
     83 H83       -48.2781  -33.5334    2.3400 H         1 UNK         0.0889 
     84 H84       -46.5579  -33.1446    2.4046 H         1 UNK         0.0889 
     85 H85       -49.4544  -32.2935    3.7840 H         1 UNK         0.3028 
     86 H86       -49.2131  -29.4249    3.9101 H         1 UNK         0.0864 
     87 H87       -50.8537  -31.0667    5.9079 H         1 UNK         0.0720 
     88 H88       -51.3506  -31.0034    4.2466 H         1 UNK         0.0720 
     89 H89       -50.5377  -28.5804    7.3565 H         1 UNK         0.0814 
     90 H90       -51.9905  -29.5448    7.4830 H         1 UNK         0.0814 
     91 H91       -50.9137  -26.0475    6.5703 H         1 UNK         0.1469 
     92 H92       -54.3092  -24.2371    8.4639 H         1 UNK         0.1381 
     93 H93       -53.9278  -28.5059    8.3788 H         1 UNK         0.1206 
     94 H94       -56.0398  -27.4615    9.0934 H         1 UNK         0.0813 
     95 H95       -56.2554  -25.7389    8.9353 H         1 UNK         0.0813 
     96 H96       -53.6475  -27.7933   11.9454 H         1 UNK         0.0638 
     97 H97       -54.5683  -28.5500   10.6755 H         1 UNK         0.0638 
     98 H98       -56.5861  -28.6097   12.1918 H         1 UNK         0.0568 
     99 H99       -55.6515  -31.9876   12.5973 H         1 UNK         0.3450 
    100 H100      -56.8036  -30.8308   11.9834 H         1 UNK         0.3450 
    101 H101      -54.6830  -27.4948   14.1669 H         1 UNK         0.2987 
    102 H102      -56.5908  -25.8654   15.6832 H         1 UNK         0.0766 
    103 H103      -58.4929  -27.0435   16.7167 H         1 UNK         0.0798 
    104 H104      -57.3229  -26.6291   17.9570 H         1 UNK         0.0798 
    105 H105      -57.4323  -28.2859   17.3634 H         1 UNK         0.0798 
    106 H106      -54.5458  -26.1054   16.4674 H         1 UNK         0.3198 
    107 H107      -52.8080  -26.7837   17.5171 H         1 UNK         0.0843 
    108 H108      -52.6937  -29.6596   18.5515 H         1 UNK         0.0831 
    109 H109      -53.3549  -28.2957   19.4421 H         1 UNK         0.0831 
    110 H110      -51.6488  -28.3197   19.0289 H         1 UNK         0.0831 
    111 H111      -51.1629  -28.7349   16.6850 H         1 UNK         0.3133 
    112 H112      -50.3213  -29.2455   14.5841 H         1 UNK         0.0566 
    113 H113      -49.8816  -28.4716   12.2611 H         1 UNK         0.0814 
    114 H114      -51.1393  -27.2449   12.3987 H         1 UNK         0.0814 
    115 H115      -51.5603  -28.9534   12.4382 H         1 UNK         0.0814 
    116 H116      -49.7044  -26.3675   14.1706 H         1 UNK         0.3091 
    117 H117      -48.0823  -26.0475   17.3223 H         1 UNK         0.0702 
    118 H118      -46.3008  -26.6044   15.6365 H         1 UNK         0.0785 
    119 H119      -46.4276  -24.8816   15.9532 H         1 UNK         0.0785 
    120 H120      -47.0929  -25.5533   14.4709 H         1 UNK         0.0785 
    121 H121      -49.0802  -24.3259   15.1601 H         1 UNK         0.2998 
    122 H122      -51.6884  -23.0302   17.2898 H         1 UNK         0.0697 
    123 H123      -49.4773  -22.1134   15.3729 H         1 UNK         0.0825 
    124 H124      -49.4761  -21.8417   17.1118 H         1 UNK         0.0825 
    125 H125      -50.7235  -21.1161   16.1127 H         1 UNK         0.0825 
    126 H126      -51.4702  -23.0945   14.3869 H         1 UNK         0.3029 
    127 H127      -54.2911  -25.1369   13.8968 H         1 UNK         0.0897 
    128 H128      -54.2156  -22.0906   13.6445 H         1 UNK         0.0792 
    129 H129      -55.4081  -23.0229   14.5358 H         1 UNK         0.0792 
    130 H130      -55.3085  -23.1804   12.7898 H         1 UNK         0.0792 
    131 H131      -52.9852  -25.2170   12.1735 H         1 UNK         0.3086 
    132 H132      -51.7879  -24.7918   10.4692 H         1 UNK         0.0583 
    133 H133      -52.6257  -22.6539    9.5659 H         1 UNK         0.1020 
    134 H134      -51.2113  -21.8059   10.1204 H         1 UNK         0.1020 
    135 H135      -52.8359  -22.8795    7.1003 H         1 UNK         0.0694 
    136 H136      -51.6674  -23.6508    6.0601 H         1 UNK         0.0694 
    137 H137      -49.3875  -24.0201   10.0594 H         1 UNK         0.2989 
    138 H138      -47.0473  -24.5338   12.2976 H         1 UNK         0.1055 
    139 H139      -48.1173  -27.1003   10.9974 H         1 UNK         0.0806 
    140 H140      -47.6509  -26.9201   12.6738 H         1 UNK         0.0806 
    141 H141      -46.4262  -26.8199   11.4239 H         1 UNK         0.0806 
    142 H142      -47.2367  -25.3013    9.5018 H         1 UNK         0.3061 
    143 H143      -47.5716  -22.9665    7.8923 H         1 UNK         0.0734 
    144 H144      -44.8691  -21.7925    8.7253 H         1 UNK         0.0832 
    145 H145      -45.6060  -21.6129    7.1331 H         1 UNK         0.0832 
    146 H146      -46.3802  -20.9157    8.5447 H         1 UNK         0.0832 
    147 H147      -46.4589  -24.6613    6.9891 H         1 UNK         0.3156 
    148 H148      -44.3774  -25.5970    6.1335 H         1 UNK         0.0589 
    149 H149      -42.4940  -27.0856    6.7299 H         1 UNK         0.0808 
    150 H150      -42.1681  -25.4494    7.2737 H         1 UNK         0.0808 
    151 H151      -42.6639  -26.6717    8.4359 H         1 UNK         0.0808 
    152 H152      -44.7450  -27.8415    7.9436 H         1 UNK         0.3098 
    153 H153      -46.2593  -29.4099    7.1860 H         1 UNK         0.0720 
    154 H154      -48.4879  -27.7546    8.5222 H         1 UNK         0.0791 
    155 H155      -47.0509  -28.4031    9.3091 H         1 UNK         0.0791 
    156 H156      -48.2854  -29.4958    8.7137 H         1 UNK         0.0791 
    157 H157      -48.2804  -28.1521    5.5380 H         1 UNK         0.3028 
@<TRIPOS>BOND
     1    1    2 1    
     2    1   82 1    
     3    1   83 1    
     4    1   84 1    
     5    2    3 2    
     6    2    4 am   BACKBONE|DICT|INTERRES
     7    4    5 1    
     8    4   85 1    
     9    5    6 1    
    10    5   80 1    
    11    5   86 1    
    12    6    7 1    
    13    6   87 1    
    14    6   88 1    
    15    7    8 1    
    16    8    9 1    
    17    8   89 1    
    18    8   90 1    
    19    9   10 ar   
    20    9   14 ar   
    21   10   11 ar   
    22   10   91 1    
    23   11   12 ar   
    24   11   58 1    
    25   12   13 ar   
    26   12   92 1    
    27   13   14 ar   
    28   13   15 1    
    29   14   93 1    
    30   15   16 1    
    31   15   94 1    
    32   15   95 1    
    33   16   17 1    
    34   17   18 1    
    35   17   96 1    
    36   17   97 1    
    37   18   19 1    
    38   18   22 1    
    39   18   98 1    
    40   19   20 am   BACKBONE|DICT|INTERRES
    41   19   21 2    
    42   20   99 1    
    43   20  100 1    
    44   22   23 am   BACKBONE|DICT|INTERRES
    45   22  101 1    
    46   23   24 2    
    47   23   25 1    
    48   25   26 1    
    49   25   27 1    
    50   25  102 1    
    51   26  103 1    
    52   26  104 1    
    53   26  105 1    
    54   27   28 am   BACKBONE|DICT|INTERRES
    55   27  106 1    
    56   28   29 2    
    57   28   30 1    
    58   30   31 1    
    59   30   32 1    
    60   30  107 1    
    61   31  108 1    
    62   31  109 1    
    63   31  110 1    
    64   32   33 am   BACKBONE|DICT|INTERRES
    65   32  111 1    
    66   33   34 2    
    67   33   35 1    
    68   35   36 1    
    69   35   37 1    
    70   35  112 1    
    71   36  113 1    
    72   36  114 1    
    73   36  115 1    
    74   37   38 am   BACKBONE|DICT|INTERRES
    75   37  116 1    
    76   38   39 2    
    77   38   40 1    
    78   40   41 1    
    79   40   42 1    
    80   40  117 1    
    81   41  118 1    
    82   41  119 1    
    83   41  120 1    
    84   42   43 am   BACKBONE|DICT|INTERRES
    85   42  121 1    
    86   43   44 2    
    87   43   45 1    
    88   45   46 1    
    89   45   47 1    
    90   45  122 1    
    91   46  123 1    
    92   46  124 1    
    93   46  125 1    
    94   47   48 am   BACKBONE|DICT|INTERRES
    95   47  126 1    
    96   48   49 2    
    97   48   50 1    
    98   50   51 1    
    99   50   52 1    
   100   50  127 1    
   101   51  128 1    
   102   51  129 1    
   103   51  130 1    
   104   52   53 am   BACKBONE|DICT|INTERRES
   105   52  131 1    
   106   53   54 2    
   107   53   55 1    
   108   55   56 1    
   109   55   59 1    
   110   55  132 1    
   111   56   57 1    
   112   56  133 1    
   113   56  134 1    
   114   57   58 1    
   115   58  135 1    
   116   58  136 1    
   117   59   60 am   BACKBONE|DICT|INTERRES
   118   59  137 1    
   119   60   61 2    
   120   60   62 1    
   121   62   63 1    
   122   62   64 1    
   123   62  138 1    
   124   63  139 1    
   125   63  140 1    
   126   63  141 1    
   127   64   65 am   BACKBONE|DICT|INTERRES
   128   64  142 1    
   129   65   66 2    
   130   65   67 1    
   131   67   68 1    
   132   67   69 1    
   133   67  143 1    
   134   68  144 1    
   135   68  145 1    
   136   68  146 1    
   137   69   70 am   BACKBONE|DICT|INTERRES
   138   69  147 1    
   139   70   71 2    
   140   70   72 1    
   141   72   73 1    
   142   72   74 1    
   143   72  148 1    
   144   73  149 1    
   145   73  150 1    
   146   73  151 1    
   147   74   75 am   BACKBONE|DICT|INTERRES
   148   74  152 1    
   149   75   76 2    
   150   75   77 1    
   151   77   78 1    
   152   77   79 1    
   153   77  153 1    
   154   78  154 1    
   155   78  155 1    
   156   78  156 1    
   157   79   80 am   BACKBONE|DICT|INTERRES
   158   79  157 1    
   159   80   81 2    
@<TRIPOS>SUBSTRUCTURE
     1 UNK         1 GROUP             0       ****    0 ROOT    
