@<TRIPOS>MOLECULE
3R207
157   159    1
SMALL
USER_CHARGES


@<TRIPOS>ATOM
      1 CA        -46.3081  -27.7208    5.8048 C.3       0 UNK        -0.1975 
      2 C         -47.7659  -27.5907    5.3898 C.2       0 UNK         0.4852 
      3 O         -48.2811  -26.4748    5.2993 O.2       0 UNK        -0.5216 
      4 N         -48.4311  -28.7281    5.1400 N.am      1 UNK        -0.4461 
      5 CA        -49.8192  -28.8392    4.6683 C.3       1 UNK         0.0864 
      6 C6        -50.2388  -30.2935    4.2952 C.3       14 UNK        -0.0898 
      7 S7        -49.3458  -31.6442    5.1485 S.3       14 UNK        -0.2598 
      8 C8        -50.5520  -32.2435    6.3834 C.3       14 UNK         0.0286 
      9 C9        -50.5473  -31.4646    7.6974 C.ar      14 UNK        -0.0844 
     10 C10       -49.3626  -30.9475    8.2343 C.ar      14 UNK        -0.0881 
     11 C11       -49.3764  -30.2433    9.4386 C.ar      14 UNK        -0.0643 
     12 C12       -50.5791  -30.0830   10.1289 C.ar      14 UNK        -0.0930 
     13 C13       -51.7751  -30.6158    9.6263 C.ar      14 UNK        -0.0827 
     14 C14       -51.7429  -31.3014    8.4064 C.ar      14 UNK        -0.1249 
     15 C15       -53.1258  -30.4536   10.3356 C.3       14 UNK         0.0141 
     16 S16       -53.0572  -29.6459   11.9712 S.3       14 UNK        -0.2313 
     17 C17       -54.7634  -29.0383   12.1809 C.3       14 UNK        -0.0915 
     18 CA        -55.0226  -27.6431   11.5457 C.3       13 UNK         0.0968 
     19 C         -56.4648  -27.1482   11.8623 C.2       13 UNK         0.5732 
     20 N         -56.6620  -26.0123   12.5236 N.am      13 UNK        -0.7310 
     21 O         -57.4314  -27.8099   11.4908 O.2       13 UNK        -0.5035 
     22 N         -53.9676  -26.6697   11.8677 N.am      13 UNK        -0.4233 
     23 C         -53.7061  -25.5690   11.1499 C.2       13 UNK         0.4989 
     24 O         -54.2944  -25.2845   10.1049 O.2       13 UNK        -0.4996 
     25 CA        -52.6135  -24.6253   11.6943 C.3       12 UNK         0.0216 
     26 CB        -52.7007  -23.2052   11.0956 C.3       12 UNK        -0.1964 
     27 N         -52.5668  -24.5565   13.1594 N.am      12 UNK        -0.4276 
     28 C         -53.5734  -24.2561   13.9926 C.2       12 UNK         0.5020 
     29 O         -54.7253  -23.9951   13.6361 O.2       12 UNK        -0.5489 
     30 CA        -53.2325  -24.3040   15.4913 C.3       11 UNK         0.0294 
     31 CB        -53.8379  -23.1021   16.2371 C.3       11 UNK        -0.2019 
     32 N         -53.6415  -25.5386   16.1718 N.am      11 UNK        -0.4493 
     33 C         -53.5323  -26.8034   15.7370 C.2       11 UNK         0.4932 
     34 O         -53.1761  -27.1355   14.6073 O.2       11 UNK        -0.5029 
     35 CA        -53.7644  -27.8817   16.8044 C.3       10 UNK         0.0280 
     36 CB        -53.8961  -29.2974   16.2120 C.3       10 UNK        -0.1976 
     37 N         -52.6127  -27.8424   17.7017 N.am      10 UNK        -0.4242 
     38 C         -52.5597  -27.1656   18.8552 C.2       10 UNK         0.5072 
     39 O         -53.5322  -26.6300   19.3883 O.2       10 UNK        -0.5224 
     40 CA        -51.1629  -27.0059   19.4747 C.3       9 UNK         0.0343 
     41 CB        -50.6751  -28.3258   20.0954 C.3       9 UNK        -0.2003 
     42 N         -50.1840  -26.5228   18.4936 N.am      9 UNK        -0.4272 
     43 C         -50.1800  -25.2849   17.9716 C.2       9 UNK         0.4988 
     44 O         -50.9896  -24.4099   18.2776 O.2       9 UNK        -0.5108 
     45 CA        -49.0883  -24.9594   16.9406 C.3       8 UNK         0.0248 
     46 CB        -47.7934  -24.5283   17.6490 C.3       8 UNK        -0.2001 
     47 N         -48.8077  -26.0939   16.0577 N.am      8 UNK        -0.4140 
     48 C         -49.3836  -26.2806   14.8642 C.2       8 UNK         0.5028 
     49 O         -50.1889  -25.5014   14.3464 O.2       8 UNK        -0.5428 
     50 CA        -48.9785  -27.5473   14.1034 C.3       7 UNK         0.0264 
     51 CB        -50.2028  -28.4280   13.8170 C.3       7 UNK        -0.1988 
     52 N         -48.3705  -27.1379   12.8423 N.am      7 UNK        -0.4454 
     53 C         -47.0519  -27.0898   12.6122 C.2       7 UNK         0.5027 
     54 O         -46.2048  -27.5308   13.3906 O.2       7 UNK        -0.5083 
     55 CA        -46.5906  -26.4093   11.3061 C.3       6 UNK         0.0844 
     56 C56       -46.3368  -27.4347   10.1699 C.3       14 UNK        -0.0967 
     57 S57       -47.8525  -27.9704    9.2974 S.3       14 UNK        -0.2604 
     58 C58       -48.0959  -29.6344    9.9832 C.3       14 UNK         0.0134 
     59 N         -47.4887  -25.3365   10.8749 N.am      6 UNK        -0.4116 
     60 C         -47.7158  -24.1798   11.5109 C.2       5 UNK         0.5034 
     61 O         -47.1589  -23.8456   12.5576 O.2       5 UNK        -0.5045 
     62 CA        -48.7468  -23.2548   10.8390 C.3       5 UNK         0.0224 
     63 CB        -48.7300  -21.8102   11.3817 C.3       5 UNK        -0.1978 
     64 N         -48.6425  -23.2925    9.3734 N.am      5 UNK        -0.4737 
     65 C         -47.6113  -22.8753    8.6194 C.2       4 UNK         0.5027 
     66 O         -46.6212  -22.3026    9.0748 O.2       4 UNK        -0.5211 
     67 CA        -47.6532  -23.1759    7.1057 C.3       4 UNK         0.0297 
     68 CB        -46.5126  -24.1350    6.7290 C.3       4 UNK        -0.1993 
     69 N         -48.9241  -23.7399    6.6372 N.am      4 UNK        -0.4486 
     70 C         -50.0703  -23.0505    6.5459 C.2       3 UNK         0.4961 
     71 O         -50.1557  -21.8417    6.7644 O.2       3 UNK        -0.5105 
     72 CA        -51.3464  -23.8282    6.1783 C.3       3 UNK         0.0299 
     73 CB        -51.6222  -23.7141    4.6707 C.3       3 UNK        -0.1972 
     74 N         -51.3546  -25.2450    6.5545 N.am      3 UNK        -0.4305 
     75 C         -51.1607  -25.7698    7.7725 C.2       2 UNK         0.5006 
     76 O         -50.8405  -25.1124    8.7631 O.2       2 UNK        -0.5106 
     77 CA        -51.3294  -27.2942    7.9027 C.3       2 UNK         0.0296 
     78 CB        -52.8198  -27.6853    7.9398 C.3       2 UNK        -0.2002 
     79 N         -50.5960  -28.0496    6.8770 N.am      2 UNK        -0.4032 
     80 C         -50.8600  -28.1371    5.5645 C.2       1 UNK         0.5000 
     81 O         -51.8474  -27.6257    5.0317 O.2       1 UNK        -0.5238 
     82 H82       -46.1827  -27.4261    6.8451 H         1 UNK         0.0889 
     83 H83       -45.6843  -27.0731    5.1894 H         1 UNK         0.0889 
     84 H84       -45.9443  -28.7423    5.6966 H         1 UNK         0.0889 
     85 H85       -47.9570  -29.6149    5.2448 H         1 UNK         0.3028 
     86 H86       -49.8424  -28.2661    3.7384 H         1 UNK         0.0864 
     87 H87       -50.0418  -30.4401    3.2321 H         1 UNK         0.0720 
     88 H88       -51.3156  -30.4461    4.3939 H         1 UNK         0.0720 
     89 H89       -51.5488  -32.2496    5.9399 H         1 UNK         0.0814 
     90 H90       -50.3156  -33.2834    6.6118 H         1 UNK         0.0814 
     91 H91       -48.4250  -31.0792    7.7127 H         1 UNK         0.1469 
     92 H92       -50.5672  -29.5231   11.0510 H         1 UNK         0.1381 
     93 H93       -52.6603  -31.7102    8.0047 H         1 UNK         0.1206 
     94 H94       -53.7912  -29.8812    9.6898 H         1 UNK         0.0813 
     95 H95       -53.5855  -31.4351   10.4591 H         1 UNK         0.0813 
     96 H96       -54.9580  -28.9977   13.2529 H         1 UNK         0.0638 
     97 H97       -55.4526  -29.7814   11.7757 H         1 UNK         0.0638 
     98 H98       -55.0028  -27.7861   10.4647 H         1 UNK         0.0568 
     99 H99       -55.8835  -25.4359   12.8268 H         1 UNK         0.3450 
    100 H100      -57.6051  -25.7130   12.7107 H         1 UNK         0.3450 
    101 H101      -53.4914  -26.8177   12.7546 H         1 UNK         0.2987 
    102 H102      -51.6647  -25.0637   11.3840 H         1 UNK         0.0766 
    103 H103      -51.9201  -22.5559   11.4911 H         1 UNK         0.0798 
    104 H104      -53.6634  -22.7390   11.3084 H         1 UNK         0.0798 
    105 H105      -52.5809  -23.2305   10.0116 H         1 UNK         0.0798 
    106 H106      -51.6858  -24.8560   13.5837 H         1 UNK         0.3198 
    107 H107      -52.1485  -24.2329   15.5939 H         1 UNK         0.0843 
    108 H108      -54.9275  -23.1469   16.2569 H         1 UNK         0.0831 
    109 H109      -53.5589  -22.1635   15.7562 H         1 UNK         0.0831 
    110 H110      -53.4827  -23.0542   17.2668 H         1 UNK         0.0831 
    111 H111      -53.9244  -25.4199   17.1349 H         1 UNK         0.3133 
    112 H112      -54.6867  -27.6497   17.3412 H         1 UNK         0.0566 
    113 H113      -54.0120  -30.0448   16.9968 H         1 UNK         0.0814 
    114 H114      -54.7744  -29.3662   15.5704 H         1 UNK         0.0814 
    115 H115      -53.0292  -29.5760   15.6110 H         1 UNK         0.0814 
    116 H116      -51.7503  -28.2121   17.3301 H         1 UNK         0.3091 
    117 H117      -51.2363  -26.2647   20.2738 H         1 UNK         0.0702 
    118 H118      -49.7242  -28.1919   20.6115 H         1 UNK         0.0785 
    119 H119      -50.5424  -29.1077   19.3467 H         1 UNK         0.0785 
    120 H120      -51.3904  -28.6971   20.8308 H         1 UNK         0.0785 
    121 H121      -49.4700  -27.1744   18.2056 H         1 UNK         0.2998 
    122 H122      -49.4377  -24.1119   16.3461 H         1 UNK         0.0697 
    123 H123      -47.3792  -25.3263   18.2665 H         1 UNK         0.0825 
    124 H124      -47.9728  -23.6719   18.3007 H         1 UNK         0.0825 
    125 H125      -47.0304  -24.2306   16.9293 H         1 UNK         0.0825 
    126 H126      -48.1218  -26.7630   16.3771 H         1 UNK         0.3029 
    127 H127      -48.2753  -28.1290   14.7035 H         1 UNK         0.0897 
    128 H128      -49.9162  -29.3560   13.3233 H         1 UNK         0.0792 
    129 H129      -50.9272  -27.9162   13.1823 H         1 UNK         0.0792 
    130 H130      -50.7175  -28.6984   14.7395 H         1 UNK         0.0792 
    131 H131      -48.9896  -26.7076   12.1713 H         1 UNK         0.3086 
    132 H132      -45.6320  -25.9390   11.5358 H         1 UNK         0.0583 
    133 H133      -45.6863  -26.9760    9.4237 H         1 UNK         0.1020 
    134 H134      -45.7808  -28.3013   10.5342 H         1 UNK         0.1020 
    135 H135      -47.2409  -30.2635    9.7306 H         1 UNK         0.0694 
    136 H136      -48.1358  -29.5828   11.0723 H         1 UNK         0.0694 
    137 H137      -47.9931  -25.5160   10.0184 H         1 UNK         0.2989 
    138 H138      -49.7214  -23.6784   11.0812 H         1 UNK         0.1055 
    139 H139      -48.9614  -21.7943   12.4475 H         1 UNK         0.0806 
    140 H140      -49.4728  -21.1902   10.8800 H         1 UNK         0.0806 
    141 H141      -47.7558  -21.3375   11.2562 H         1 UNK         0.0806 
    142 H142      -49.4059  -23.7769    8.9067 H         1 UNK         0.3061 
    143 H143      -47.4888  -22.2305    6.5844 H         1 UNK         0.0734 
    144 H144      -46.4982  -24.3379    5.6581 H         1 UNK         0.0832 
    145 H145      -45.5410  -23.7132    6.9898 H         1 UNK         0.0832 
    146 H146      -46.6050  -25.0861    7.2535 H         1 UNK         0.0832 
    147 H147      -48.9232  -24.7226    6.3820 H         1 UNK         0.3156 
    148 H148      -52.1727  -23.3565    6.7136 H         1 UNK         0.0589 
    149 H149      -50.8492  -24.2116    4.0832 H         1 UNK         0.0808 
    150 H150      -52.5822  -24.1584    4.4071 H         1 UNK         0.0808 
    151 H151      -51.6524  -22.6702    4.3549 H         1 UNK         0.0808 
    152 H152      -51.5977  -25.9057    5.8209 H         1 UNK         0.3098 
    153 H153      -50.8875  -27.5859    8.8556 H         1 UNK         0.0720 
    154 H154      -52.9579  -28.7538    7.7860 H         1 UNK         0.0791 
    155 H155      -53.4029  -27.1695    7.1761 H         1 UNK         0.0791 
    156 H156      -53.2548  -27.4345    8.9045 H         1 UNK         0.0791 
    157 H157      -49.7476  -28.4916    7.2044 H         1 UNK         0.3028 
@<TRIPOS>BOND
     1    1    2 1    
     2    1   82 1    
     3    1   83 1    
     4    1   84 1    
     5    2    3 2    
     6    2    4 am   BACKBONE|DICT|INTERRES
     7    4    5 1    
     8    4   85 1    
     9    5    6 1    
    10    5   80 1    
    11    5   86 1    
    12    6    7 1    
    13    6   87 1    
    14    6   88 1    
    15    7    8 1    
    16    8    9 1    
    17    8   89 1    
    18    8   90 1    
    19    9   10 ar   
    20    9   14 ar   
    21   10   11 ar   
    22   10   91 1    
    23   11   12 ar   
    24   11   58 1    
    25   12   13 ar   
    26   12   92 1    
    27   13   14 ar   
    28   13   15 1    
    29   14   93 1    
    30   15   16 1    
    31   15   94 1    
    32   15   95 1    
    33   16   17 1    
    34   17   18 1    
    35   17   96 1    
    36   17   97 1    
    37   18   19 1    
    38   18   22 1    
    39   18   98 1    
    40   19   20 am   BACKBONE|DICT|INTERRES
    41   19   21 2    
    42   20   99 1    
    43   20  100 1    
    44   22   23 am   BACKBONE|DICT|INTERRES
    45   22  101 1    
    46   23   24 2    
    47   23   25 1    
    48   25   26 1    
    49   25   27 1    
    50   25  102 1    
    51   26  103 1    
    52   26  104 1    
    53   26  105 1    
    54   27   28 am   BACKBONE|DICT|INTERRES
    55   27  106 1    
    56   28   29 2    
    57   28   30 1    
    58   30   31 1    
    59   30   32 1    
    60   30  107 1    
    61   31  108 1    
    62   31  109 1    
    63   31  110 1    
    64   32   33 am   BACKBONE|DICT|INTERRES
    65   32  111 1    
    66   33   34 2    
    67   33   35 1    
    68   35   36 1    
    69   35   37 1    
    70   35  112 1    
    71   36  113 1    
    72   36  114 1    
    73   36  115 1    
    74   37   38 am   BACKBONE|DICT|INTERRES
    75   37  116 1    
    76   38   39 2    
    77   38   40 1    
    78   40   41 1    
    79   40   42 1    
    80   40  117 1    
    81   41  118 1    
    82   41  119 1    
    83   41  120 1    
    84   42   43 am   BACKBONE|DICT|INTERRES
    85   42  121 1    
    86   43   44 2    
    87   43   45 1    
    88   45   46 1    
    89   45   47 1    
    90   45  122 1    
    91   46  123 1    
    92   46  124 1    
    93   46  125 1    
    94   47   48 am   BACKBONE|DICT|INTERRES
    95   47  126 1    
    96   48   49 2    
    97   48   50 1    
    98   50   51 1    
    99   50   52 1    
   100   50  127 1    
   101   51  128 1    
   102   51  129 1    
   103   51  130 1    
   104   52   53 am   BACKBONE|DICT|INTERRES
   105   52  131 1    
   106   53   54 2    
   107   53   55 1    
   108   55   56 1    
   109   55   59 1    
   110   55  132 1    
   111   56   57 1    
   112   56  133 1    
   113   56  134 1    
   114   57   58 1    
   115   58  135 1    
   116   58  136 1    
   117   59   60 am   BACKBONE|DICT|INTERRES
   118   59  137 1    
   119   60   61 2    
   120   60   62 1    
   121   62   63 1    
   122   62   64 1    
   123   62  138 1    
   124   63  139 1    
   125   63  140 1    
   126   63  141 1    
   127   64   65 am   BACKBONE|DICT|INTERRES
   128   64  142 1    
   129   65   66 2    
   130   65   67 1    
   131   67   68 1    
   132   67   69 1    
   133   67  143 1    
   134   68  144 1    
   135   68  145 1    
   136   68  146 1    
   137   69   70 am   BACKBONE|DICT|INTERRES
   138   69  147 1    
   139   70   71 2    
   140   70   72 1    
   141   72   73 1    
   142   72   74 1    
   143   72  148 1    
   144   73  149 1    
   145   73  150 1    
   146   73  151 1    
   147   74   75 am   BACKBONE|DICT|INTERRES
   148   74  152 1    
   149   75   76 2    
   150   75   77 1    
   151   77   78 1    
   152   77   79 1    
   153   77  153 1    
   154   78  154 1    
   155   78  155 1    
   156   78  156 1    
   157   79   80 am   BACKBONE|DICT|INTERRES
   158   79  157 1    
   159   80   81 2    
@<TRIPOS>SUBSTRUCTURE
     1 UNK         1 GROUP             0       ****    0 ROOT    
