@<TRIPOS>MOLECULE
3R207
157   159    1
SMALL
USER_CHARGES


@<TRIPOS>ATOM
      1 CA        -46.8456  -33.2364    6.8968 C.3       0 UNK        -0.1975 
      2 C         -47.1985  -31.7660    7.0684 C.2       0 UNK         0.4852 
      3 O         -46.5283  -31.0663    7.8290 O.2       0 UNK        -0.5216 
      4 N         -48.2441  -31.3037    6.3672 N.am      1 UNK        -0.4461 
      5 CA        -48.7501  -29.9238    6.3572 C.3       1 UNK         0.0864 
      6 C6        -49.3523  -29.4678    7.7221 C.3       14 UNK        -0.0898 
      7 S7        -50.6582  -30.5697    8.3698 S.3       14 UNK        -0.2598 
      8 C8        -52.0944  -30.1867    7.3141 C.3       14 UNK         0.0286 
      9 C9        -52.6884  -28.8113    7.5878 C.ar      14 UNK        -0.0844 
     10 C10       -52.2613  -27.7051    6.8494 C.ar      14 UNK        -0.0881 
     11 C11       -52.8236  -26.4445    7.0641 C.ar      14 UNK        -0.0643 
     12 C12       -53.8448  -26.2967    8.0055 C.ar      14 UNK        -0.0930 
     13 C13       -54.2960  -27.3988    8.7390 C.ar      14 UNK        -0.0827 
     14 C14       -53.7033  -28.6509    8.5373 C.ar      14 UNK        -0.1249 
     15 C15       -55.4695  -27.2469    9.6953 C.3       14 UNK         0.0141 
     16 S16       -55.0963  -26.1453   11.0949 S.3       14 UNK        -0.2313 
     17 C17       -56.7171  -26.1462   11.9409 C.3       14 UNK        -0.0915 
     18 CA        -56.6748  -26.8149   13.3400 C.3       13 UNK         0.0968 
     19 C         -58.0597  -26.7431   14.0466 C.2       13 UNK         0.5732 
     20 N         -58.6800  -27.8575   14.4157 N.am      13 UNK        -0.7310 
     21 O         -58.5784  -25.6521   14.2717 O.2       13 UNK        -0.5035 
     22 N         -56.0795  -28.1602   13.2837 N.am      13 UNK        -0.4233 
     23 C         -55.4394  -28.7538   14.2965 C.2       13 UNK         0.4989 
     24 O         -55.3614  -28.2703   15.4281 O.2       13 UNK        -0.4996 
     25 CA        -54.7800  -30.1097   13.9831 C.3       12 UNK         0.0216 
     26 CB        -54.0796  -30.1181   12.6073 C.3       12 UNK        -0.1964 
     27 N         -53.7876  -30.4272   15.0098 N.am      12 UNK        -0.4276 
     28 C         -53.9533  -31.3102   16.0032 C.2       12 UNK         0.5020 
     29 O         -54.9605  -32.0086   16.1335 O.2       12 UNK        -0.5489 
     30 CA        -52.8048  -31.4753   17.0187 C.3       11 UNK         0.0294 
     31 CB        -52.0901  -32.8208   16.8064 C.3       11 UNK        -0.2019 
     32 N         -51.8111  -30.4004   16.9619 N.am      11 UNK        -0.4493 
     33 C         -51.9553  -29.1930   17.5232 C.2       11 UNK         0.4932 
     34 O         -52.9294  -28.8648   18.2014 O.2       11 UNK        -0.5029 
     35 CA        -50.8271  -28.1681   17.2901 C.3       10 UNK         0.0280 
     36 CB        -49.5210  -28.7740   16.7261 C.3       10 UNK        -0.1976 
     37 N         -51.2757  -27.0562   16.4474 N.am      10 UNK        -0.4242 
     38 C         -51.8051  -27.1257   15.2178 C.2       10 UNK         0.5072 
     39 O         -51.9733  -28.1799   14.6028 O.2       10 UNK        -0.5224 
     40 CA        -52.1868  -25.7932   14.5490 C.3       9 UNK         0.0343 
     41 CB        -53.4135  -25.1406   15.2174 C.3       9 UNK        -0.2003 
     42 N         -51.0593  -24.8592   14.4311 N.am      9 UNK        -0.4272 
     43 C         -50.4023  -24.2106   15.4048 C.2       9 UNK         0.4988 
     44 O         -50.6996  -24.2765   16.5991 O.2       9 UNK        -0.5108 
     45 CA        -49.1789  -23.3744   14.9959 C.3       8 UNK         0.0248 
     46 CB        -47.9043  -24.2277   15.0961 C.3       8 UNK        -0.2001 
     47 N         -49.2752  -22.7835   13.6571 N.am      8 UNK        -0.4140 
     48 C         -50.1022  -21.7773   13.3353 C.2       8 UNK         0.5028 
     49 O         -50.8891  -21.2575   14.1278 O.2       8 UNK        -0.5428 
     50 CA        -50.0340  -21.2454   11.8933 C.3       7 UNK         0.0264 
     51 CB        -48.7921  -20.3616   11.6916 C.3       7 UNK        -0.1988 
     52 N         -50.0440  -22.3102   10.8907 N.am      7 UNK        -0.4454 
     53 C         -51.1041  -23.0844   10.6092 C.2       7 UNK         0.5027 
     54 O         -52.2101  -22.9530   11.1339 O.2       7 UNK        -0.5083 
     55 CA        -50.8796  -24.2010    9.5662 C.3       6 UNK         0.0844 
     56 C56       -51.0023  -23.5964    8.1416 C.3       14 UNK        -0.0967 
     57 S57       -50.6687  -24.7529    6.7726 S.3       14 UNK        -0.2604 
     58 C58       -52.3356  -25.2569    6.2530 C.3       14 UNK         0.0134 
     59 N         -49.6153  -24.9104    9.8121 N.am      6 UNK        -0.4116 
     60 C         -49.3132  -25.5529   10.9533 C.2       5 UNK         0.5034 
     61 O         -50.0995  -25.6982   11.8873 O.2       5 UNK        -0.5045 
     62 CA        -47.8750  -26.0634   11.1262 C.3       5 UNK         0.0224 
     63 CB        -47.7118  -27.4806   10.5591 C.3       5 UNK        -0.1978 
     64 N         -46.8938  -25.1624   10.5211 N.am      5 UNK        -0.4737 
     65 C         -46.5441  -23.9756   11.0340 C.2       4 UNK         0.5027 
     66 O         -46.9853  -23.5360   12.0941 O.2       4 UNK        -0.5211 
     67 CA        -45.5728  -23.1172   10.2065 C.3       4 UNK         0.0297 
     68 CB        -44.1190  -23.5376   10.4729 C.3       4 UNK        -0.1993 
     69 N         -45.8481  -23.1771    8.7689 N.am      4 UNK        -0.4486 
     70 C         -46.9663  -22.7099    8.1969 C.2       3 UNK         0.4961 
     71 O         -47.8615  -22.1327    8.8159 O.2       3 UNK        -0.5105 
     72 CA        -47.1362  -22.9720    6.6883 C.3       3 UNK         0.0299 
     73 CB        -46.4538  -21.8621    5.8733 C.3       3 UNK        -0.1972 
     74 N         -46.6672  -24.2864    6.2191 N.am      3 UNK        -0.4305 
     75 C         -47.0292  -25.4688    6.7369 C.2       2 UNK         0.5006 
     76 O         -47.6925  -25.5924    7.7680 O.2       2 UNK        -0.5106 
     77 CA        -46.5649  -26.7336    6.0088 C.3       2 UNK         0.0296 
     78 CB        -45.1162  -27.0888    6.3904 C.3       2 UNK        -0.2002 
     79 N         -47.4694  -27.8079    6.4087 N.am      2 UNK        -0.4032 
     80 C         -47.6942  -28.9568    5.7632 C.2       1 UNK         0.5000 
     81 O         -47.1212  -29.2658    4.7146 O.2       1 UNK        -0.5238 
     82 H82       -45.8296  -33.3361    6.5157 H         1 UNK         0.0889 
     83 H83       -47.5189  -33.7403    6.2035 H         1 UNK         0.0889 
     84 H84       -46.9021  -33.7493    7.8565 H         1 UNK         0.0889 
     85 H85       -48.7269  -31.9358    5.7445 H         1 UNK         0.3028 
     86 H86       -49.5620  -29.9165    5.6295 H         1 UNK         0.0864 
     87 H87       -49.7551  -28.4563    7.6666 H         1 UNK         0.0720 
     88 H88       -48.5687  -29.4394    8.4792 H         1 UNK         0.0720 
     89 H89       -52.8562  -30.9491    7.4841 H         1 UNK         0.0814 
     90 H90       -51.8173  -30.2791    6.2636 H         1 UNK         0.0814 
     91 H91       -51.4864  -27.8199    6.1041 H         1 UNK         0.1469 
     92 H92       -54.2997  -25.3279    8.1611 H         1 UNK         0.1381 
     93 H93       -54.0506  -29.5089    9.0967 H         1 UNK         0.1206 
     94 H94       -55.7807  -28.2194   10.0788 H         1 UNK         0.0813 
     95 H95       -56.3206  -26.8474    9.1417 H         1 UNK         0.0813 
     96 H96       -57.0357  -25.1060   12.0298 H         1 UNK         0.0638 
     97 H97       -57.4629  -26.6345   11.3111 H         1 UNK         0.0638 
     98 H98       -56.0176  -26.1975   13.9521 H         1 UNK         0.0568 
     99 H99       -59.5740  -27.7949   14.8766 H         1 UNK         0.3450 
    100 H100      -58.2606  -28.7569   14.2456 H         1 UNK         0.3450 
    101 H101      -56.1186  -28.6233   12.3895 H         1 UNK         0.2987 
    102 H102      -55.5692  -30.8640   13.9716 H         1 UNK         0.0766 
    103 H103      -54.7968  -30.0555   11.7887 H         1 UNK         0.0798 
    104 H104      -53.5144  -31.0384   12.4581 H         1 UNK         0.0798 
    105 H105      -53.3847  -29.2833   12.5010 H         1 UNK         0.0798 
    106 H106      -52.9769  -29.8131   15.0256 H         1 UNK         0.3198 
    107 H107      -53.2538  -31.4836   18.0146 H         1 UNK         0.0843 
    108 H108      -51.6217  -32.8793   15.8230 H         1 UNK         0.0831 
    109 H109      -52.7926  -33.6521   16.8814 H         1 UNK         0.0831 
    110 H110      -51.3180  -32.9843   17.5584 H         1 UNK         0.0831 
    111 H111      -50.9842  -30.5728   16.4081 H         1 UNK         0.3133 
    112 H112      -50.5957  -27.7407   18.2668 H         1 UNK         0.0566 
    113 H113      -48.7343  -28.0207   16.6798 H         1 UNK         0.0814 
    114 H114      -49.1509  -29.5789   17.3628 H         1 UNK         0.0814 
    115 H115      -49.6464  -29.1728   15.7188 H         1 UNK         0.0814 
    116 H116      -51.1671  -26.1235   16.8381 H         1 UNK         0.3091 
    117 H117      -52.4728  -26.0356   13.5237 H         1 UNK         0.0702 
    118 H118      -54.2288  -25.8561   15.3088 H         1 UNK         0.0785 
    119 H119      -53.2019  -24.7806   16.2237 H         1 UNK         0.0785 
    120 H120      -53.7799  -24.2991   14.6295 H         1 UNK         0.0785 
    121 H121      -50.6706  -24.8132   13.4925 H         1 UNK         0.2998 
    122 H122      -49.0909  -22.5562   15.7139 H         1 UNK         0.0697 
    123 H123      -47.9191  -25.0575   14.3892 H         1 UNK         0.0825 
    124 H124      -47.7939  -24.6519   16.0951 H         1 UNK         0.0825 
    125 H125      -47.0122  -23.6336   14.8969 H         1 UNK         0.0825 
    126 H126      -48.6028  -23.1106   12.9663 H         1 UNK         0.3029 
    127 H127      -50.9178  -20.6247   11.7298 H         1 UNK         0.0897 
    128 H128      -48.7826  -19.9142   10.6974 H         1 UNK         0.0792 
    129 H129      -47.8671  -20.9269   11.8097 H         1 UNK         0.0792 
    130 H130      -48.7716  -19.5456   12.4153 H         1 UNK         0.0792 
    131 H131      -49.1877  -22.4483   10.3622 H         1 UNK         0.3086 
    132 H132      -51.6802  -24.9335    9.6902 H         1 UNK         0.0583 
    133 H133      -51.9954  -23.1644    8.0050 H         1 UNK         0.1020 
    134 H134      -50.3076  -22.7638    8.0212 H         1 UNK         0.1020 
    135 H135      -53.0276  -24.4162    6.3192 H         1 UNK         0.0694 
    136 H136      -52.3011  -25.5377    5.1994 H         1 UNK         0.0694 
    137 H137      -48.9300  -24.9031    9.0617 H         1 UNK         0.2989 
    138 H138      -47.6750  -26.1119   12.1987 H         1 UNK         0.1055 
    139 H139      -48.4414  -28.1636   10.9968 H         1 UNK         0.0806 
    140 H140      -46.7213  -27.8821   10.7732 H         1 UNK         0.0806 
    141 H141      -47.8535  -27.4996    9.4811 H         1 UNK         0.0806 
    142 H142      -46.5809  -25.3989    9.5882 H         1 UNK         0.3061 
    143 H143      -45.6929  -22.0804   10.5284 H         1 UNK         0.0734 
    144 H144      -43.4154  -22.8841    9.9570 H         1 UNK         0.0832 
    145 H145      -43.8881  -23.4827   11.5379 H         1 UNK         0.0832 
    146 H146      -43.9266  -24.5618   10.1509 H         1 UNK         0.0832 
    147 H147      -45.1688  -23.6424    8.1848 H         1 UNK         0.3156 
    148 H148      -48.2064  -22.9281    6.4786 H         1 UNK         0.0589 
    149 H149      -45.3697  -21.8813    5.9914 H         1 UNK         0.0808 
    150 H150      -46.6786  -21.9532    4.8105 H         1 UNK         0.0808 
    151 H151      -46.7987  -20.8766    6.1903 H         1 UNK         0.0808 
    152 H152      -46.1012  -24.2846    5.3825 H         1 UNK         0.3098 
    153 H153      -46.6449  -26.5734    4.9318 H         1 UNK         0.0720 
    154 H154      -44.7825  -27.9936    5.8820 H         1 UNK         0.0791 
    155 H155      -45.0127  -27.2538    7.4638 H         1 UNK         0.0791 
    156 H156      -44.4275  -26.2903    6.1121 H         1 UNK         0.0791 
    157 H157      -48.0061  -27.5785    7.2361 H         1 UNK         0.3028 
@<TRIPOS>BOND
     1    1    2 1    
     2    1   82 1    
     3    1   83 1    
     4    1   84 1    
     5    2    3 2    
     6    2    4 am   BACKBONE|DICT|INTERRES
     7    4    5 1    
     8    4   85 1    
     9    5    6 1    
    10    5   80 1    
    11    5   86 1    
    12    6    7 1    
    13    6   87 1    
    14    6   88 1    
    15    7    8 1    
    16    8    9 1    
    17    8   89 1    
    18    8   90 1    
    19    9   10 ar   
    20    9   14 ar   
    21   10   11 ar   
    22   10   91 1    
    23   11   12 ar   
    24   11   58 1    
    25   12   13 ar   
    26   12   92 1    
    27   13   14 ar   
    28   13   15 1    
    29   14   93 1    
    30   15   16 1    
    31   15   94 1    
    32   15   95 1    
    33   16   17 1    
    34   17   18 1    
    35   17   96 1    
    36   17   97 1    
    37   18   19 1    
    38   18   22 1    
    39   18   98 1    
    40   19   20 am   BACKBONE|DICT|INTERRES
    41   19   21 2    
    42   20   99 1    
    43   20  100 1    
    44   22   23 am   BACKBONE|DICT|INTERRES
    45   22  101 1    
    46   23   24 2    
    47   23   25 1    
    48   25   26 1    
    49   25   27 1    
    50   25  102 1    
    51   26  103 1    
    52   26  104 1    
    53   26  105 1    
    54   27   28 am   BACKBONE|DICT|INTERRES
    55   27  106 1    
    56   28   29 2    
    57   28   30 1    
    58   30   31 1    
    59   30   32 1    
    60   30  107 1    
    61   31  108 1    
    62   31  109 1    
    63   31  110 1    
    64   32   33 am   BACKBONE|DICT|INTERRES
    65   32  111 1    
    66   33   34 2    
    67   33   35 1    
    68   35   36 1    
    69   35   37 1    
    70   35  112 1    
    71   36  113 1    
    72   36  114 1    
    73   36  115 1    
    74   37   38 am   BACKBONE|DICT|INTERRES
    75   37  116 1    
    76   38   39 2    
    77   38   40 1    
    78   40   41 1    
    79   40   42 1    
    80   40  117 1    
    81   41  118 1    
    82   41  119 1    
    83   41  120 1    
    84   42   43 am   BACKBONE|DICT|INTERRES
    85   42  121 1    
    86   43   44 2    
    87   43   45 1    
    88   45   46 1    
    89   45   47 1    
    90   45  122 1    
    91   46  123 1    
    92   46  124 1    
    93   46  125 1    
    94   47   48 am   BACKBONE|DICT|INTERRES
    95   47  126 1    
    96   48   49 2    
    97   48   50 1    
    98   50   51 1    
    99   50   52 1    
   100   50  127 1    
   101   51  128 1    
   102   51  129 1    
   103   51  130 1    
   104   52   53 am   BACKBONE|DICT|INTERRES
   105   52  131 1    
   106   53   54 2    
   107   53   55 1    
   108   55   56 1    
   109   55   59 1    
   110   55  132 1    
   111   56   57 1    
   112   56  133 1    
   113   56  134 1    
   114   57   58 1    
   115   58  135 1    
   116   58  136 1    
   117   59   60 am   BACKBONE|DICT|INTERRES
   118   59  137 1    
   119   60   61 2    
   120   60   62 1    
   121   62   63 1    
   122   62   64 1    
   123   62  138 1    
   124   63  139 1    
   125   63  140 1    
   126   63  141 1    
   127   64   65 am   BACKBONE|DICT|INTERRES
   128   64  142 1    
   129   65   66 2    
   130   65   67 1    
   131   67   68 1    
   132   67   69 1    
   133   67  143 1    
   134   68  144 1    
   135   68  145 1    
   136   68  146 1    
   137   69   70 am   BACKBONE|DICT|INTERRES
   138   69  147 1    
   139   70   71 2    
   140   70   72 1    
   141   72   73 1    
   142   72   74 1    
   143   72  148 1    
   144   73  149 1    
   145   73  150 1    
   146   73  151 1    
   147   74   75 am   BACKBONE|DICT|INTERRES
   148   74  152 1    
   149   75   76 2    
   150   75   77 1    
   151   77   78 1    
   152   77   79 1    
   153   77  153 1    
   154   78  154 1    
   155   78  155 1    
   156   78  156 1    
   157   79   80 am   BACKBONE|DICT|INTERRES
   158   79  157 1    
   159   80   81 2    
@<TRIPOS>SUBSTRUCTURE
     1 UNK         1 GROUP             0       ****    0 ROOT    
