@<TRIPOS>MOLECULE
3R207
157   159    1
SMALL
USER_CHARGES


@<TRIPOS>ATOM
      1 CA        -46.0457  -28.8974   10.4978 C.3       0 UNK        -0.1975 
      2 C         -46.0840  -29.3772    9.0535 C.2       0 UNK         0.4852 
      3 O         -45.6596  -30.4958    8.7638 O.2       0 UNK        -0.5216 
      4 N         -46.5766  -28.5268    8.1475 N.am      1 UNK        -0.4461 
      5 CA        -46.7518  -28.7884    6.7126 C.3       1 UNK         0.0864 
      6 C6        -48.1482  -28.3125    6.2171 C.3       14 UNK        -0.0898 
      7 S7        -49.5311  -28.9118    7.2406 S.3       14 UNK        -0.2598 
      8 C8        -50.9623  -28.2551    6.3298 C.3       14 UNK         0.0286 
      9 C9        -52.1774  -28.0759    7.2327 C.ar      14 UNK        -0.0844 
     10 C10       -52.7708  -26.8160    7.3750 C.ar      14 UNK        -0.0881 
     11 C11       -53.9154  -26.6527    8.1618 C.ar      14 UNK        -0.0643 
     12 C12       -54.4730  -27.7655    8.7940 C.ar      14 UNK        -0.0930 
     13 C13       -53.8740  -29.0217    8.6917 C.ar      14 UNK        -0.0827 
     14 C14       -52.7309  -29.1737    7.9017 C.ar      14 UNK        -0.1249 
     15 C15       -54.4874  -30.2108    9.4152 C.3       14 UNK         0.0141 
     16 S16       -54.5093  -29.9593   11.2236 S.3       14 UNK        -0.2313 
     17 C17       -56.2551  -30.3123   11.6288 C.3       14 UNK        -0.0915 
     18 CA        -57.0924  -29.0258   11.8619 C.3       13 UNK         0.0968 
     19 C         -58.6131  -29.3542   11.9132 C.2       13 UNK         0.5732 
     20 N         -59.2974  -29.1867   13.0391 N.am      13 UNK        -0.7310 
     21 O         -59.1851  -29.7619   10.9051 O.2       13 UNK        -0.5035 
     22 N         -56.5964  -28.2726   13.0229 N.am      13 UNK        -0.4233 
     23 C         -56.8233  -26.9813   13.2818 C.2       13 UNK         0.4989 
     24 O         -57.4487  -26.2368   12.5274 O.2       13 UNK        -0.4996 
     25 CA        -56.2435  -26.4018   14.5897 C.3       12 UNK         0.0216 
     26 CB        -57.2546  -26.5332   15.7448 C.3       12 UNK        -0.1964 
     27 N         -54.9197  -26.9202   14.9748 N.am      12 UNK        -0.4276 
     28 C         -54.5659  -28.1716   15.3089 C.2       12 UNK         0.5020 
     29 O         -55.3620  -29.1084   15.3847 O.2       12 UNK        -0.5489 
     30 CA        -53.0727  -28.4571   15.5365 C.3       11 UNK         0.0294 
     31 CB        -52.5067  -29.2879   14.3729 C.3       11 UNK        -0.2019 
     32 N         -52.2522  -27.2563   15.7062 N.am      11 UNK        -0.4493 
     33 C         -52.2056  -26.5292   16.8327 C.2       11 UNK         0.4932 
     34 O         -52.9353  -26.7378   17.8034 O.2       11 UNK        -0.5029 
     35 CA        -51.1588  -25.3965   16.8891 C.3       10 UNK         0.0280 
     36 CB        -50.8027  -24.9812   18.3317 C.3       10 UNK        -0.1976 
     37 N         -49.9423  -25.6947   16.1240 N.am      10 UNK        -0.4242 
     38 C         -49.1178  -26.7485   16.2597 C.2       10 UNK         0.5072 
     39 O         -49.2266  -27.5964   17.1464 O.2       10 UNK        -0.5224 
     40 CA        -47.9967  -26.9055   15.2151 C.3       9 UNK         0.0343 
     41 CB        -48.0586  -28.2869   14.5370 C.3       9 UNK        -0.2003 
     42 N         -48.0796  -25.8697   14.1825 N.am      9 UNK        -0.4272 
     43 C         -47.2343  -24.8378   14.0712 C.2       9 UNK         0.4988 
     44 O         -46.2329  -24.6873   14.7719 O.2       9 UNK        -0.5108 
     45 CA        -47.5654  -23.7788   13.0089 C.3       8 UNK         0.0248 
     46 CB        -46.9262  -24.1540   11.6631 C.3       8 UNK        -0.2001 
     47 N         -48.9995  -23.5300   12.8200 N.am      8 UNK        -0.4140 
     48 C         -49.8176  -23.0014   13.7430 C.2       8 UNK         0.5028 
     49 O         -49.4928  -22.8166   14.9152 O.2       8 UNK        -0.5428 
     50 CA        -51.2343  -22.6175   13.2939 C.3       7 UNK         0.0264 
     51 CB        -51.1998  -21.3480   12.4269 C.3       7 UNK        -0.1988 
     52 N         -51.8598  -23.6973   12.5374 N.am      7 UNK        -0.4454 
     53 C         -52.8042  -24.5209   13.0122 C.2       7 UNK         0.5027 
     54 O         -53.2918  -24.4498   14.1417 O.2       7 UNK        -0.5083 
     55 CA        -53.2510  -25.6686   12.0825 C.3       6 UNK         0.0844 
     56 C56       -54.4093  -25.2170   11.1557 C.3       14 UNK        -0.0967 
     57 S57       -53.8648  -24.3039    9.6661 S.3       14 UNK        -0.2604 
     58 C58       -54.5749  -25.2874    8.3046 C.3       14 UNK         0.0134 
     59 N         -52.1395  -26.2892   11.3581 N.am      6 UNK        -0.4116 
     60 C         -50.9951  -26.7234   11.9037 C.2       5 UNK         0.5034 
     61 O         -50.7649  -26.7394   13.1151 O.2       5 UNK        -0.5045 
     62 CA        -49.8877  -27.1566   10.9359 C.3       5 UNK         0.0224 
     63 CB        -49.9465  -28.6775   10.7330 C.3       5 UNK        -0.1978 
     64 N         -49.8908  -26.4735    9.6331 N.am      5 UNK        -0.4737 
     65 C         -49.8422  -25.1457    9.4337 C.2       4 UNK         0.5027 
     66 O         -49.9296  -24.3077   10.3336 O.2       4 UNK        -0.5211 
     67 CA        -49.6482  -24.6699    7.9820 C.3       4 UNK         0.0297 
     68 CB        -50.6793  -23.5897    7.6150 C.3       4 UNK        -0.1993 
     69 N         -48.3059  -24.1393    7.7113 N.am      4 UNK        -0.4486 
     70 C         -47.1445  -24.7559    7.9605 C.2       3 UNK         0.4961 
     71 O         -47.0455  -25.8384    8.5462 O.2       3 UNK        -0.5105 
     72 CA        -45.8697  -24.0741    7.4412 C.3       3 UNK         0.0299 
     73 CB        -45.3226  -23.0547    8.4523 C.3       3 UNK        -0.1972 
     74 N         -44.8993  -25.1424    7.2486 N.am      3 UNK        -0.4305 
     75 C         -44.1232  -25.3550    6.1807 C.2       2 UNK         0.5006 
     76 O         -43.9122  -24.5242    5.2970 O.2       2 UNK        -0.5106 
     77 CA        -43.5363  -26.7767    6.0624 C.3       2 UNK         0.0296 
     78 CB        -42.2241  -26.8956    6.8544 C.3       2 UNK        -0.2002 
     79 N         -44.4971  -27.7803    6.5412 N.am      2 UNK        -0.4032 
     80 C         -45.6299  -28.1040    5.8950 C.2       1 UNK         0.5000 
     81 O         -45.8284  -27.8164    4.7125 O.2       1 UNK        -0.5238 
     82 H82       -46.4517  -27.8907   10.6024 H         1 UNK         0.0889 
     83 H83       -45.0202  -28.8898   10.8655 H         1 UNK         0.0889 
     84 H84       -46.6304  -29.5648   11.1303 H         1 UNK         0.0889 
     85 H85       -46.8755  -27.5967    8.4421 H         1 UNK         0.3028 
     86 H86       -46.6745  -29.8605    6.5208 H         1 UNK         0.0864 
     87 H87       -48.1962  -27.2218    6.2026 H         1 UNK         0.0720 
     88 H88       -48.3195  -28.6429    5.1908 H         1 UNK         0.0720 
     89 H89       -51.2131  -28.9396    5.5184 H         1 UNK         0.0814 
     90 H90       -50.6929  -27.3084    5.8594 H         1 UNK         0.0814 
     91 H91       -52.3573  -25.9642    6.8545 H         1 UNK         0.1469 
     92 H92       -55.3767  -27.6601    9.3756 H         1 UNK         0.1381 
     93 H93       -52.2718  -30.1476    7.7990 H         1 UNK         0.1206 
     94 H94       -55.4956  -30.3610    9.0281 H         1 UNK         0.0813 
     95 H95       -53.9360  -31.1266    9.1975 H         1 UNK         0.0813 
     96 H96       -56.2712  -30.9344   12.5255 H         1 UNK         0.0638 
     97 H97       -56.6882  -30.9282   10.8389 H         1 UNK         0.0638 
     98 H98       -56.9667  -28.3877   10.9860 H         1 UNK         0.0568 
     99 H99       -58.8379  -28.8599   13.8731 H         1 UNK         0.3450 
    100 H100      -60.2822  -29.3997   13.0537 H         1 UNK         0.3450 
    101 H101      -56.1099  -28.8100   13.7367 H         1 UNK         0.2987 
    102 H102      -56.0926  -25.3360   14.4098 H         1 UNK         0.0766 
    103 H103      -56.8864  -26.0478   16.6487 H         1 UNK         0.0798 
    104 H104      -57.4671  -27.5746   15.9881 H         1 UNK         0.0798 
    105 H105      -58.2036  -26.0608   15.4873 H         1 UNK         0.0798 
    106 H106      -54.1758  -26.2309   14.9397 H         1 UNK         0.3198 
    107 H107      -52.9940  -29.0551   16.4472 H         1 UNK         0.0843 
    108 H108      -53.0349  -30.2378   14.2784 H         1 UNK         0.0831 
    109 H109      -51.4515  -29.5179   14.5212 H         1 UNK         0.0831 
    110 H110      -52.6077  -28.7697   13.4194 H         1 UNK         0.0831 
    111 H111      -51.6299  -27.0166   14.9399 H         1 UNK         0.3133 
    112 H112      -51.6181  -24.5353   16.4018 H         1 UNK         0.0566 
    113 H113      -50.0770  -24.1679   18.3414 H         1 UNK         0.0814 
    114 H114      -51.6853  -24.6316   18.8688 H         1 UNK         0.0814 
    115 H115      -50.3839  -25.8125   18.8997 H         1 UNK         0.0814 
    116 H116      -49.7182  -25.0205   15.4040 H         1 UNK         0.3091 
    117 H117      -47.0496  -26.8375   15.7539 H         1 UNK         0.0702 
    118 H118      -47.2795  -28.3937   13.7820 H         1 UNK         0.0785 
    119 H119      -49.0198  -28.4618   14.0541 H         1 UNK         0.0785 
    120 H120      -47.9135  -29.0857   15.2653 H         1 UNK         0.0785 
    121 H121      -48.8945  -25.9132   13.5817 H         1 UNK         0.2998 
    122 H122      -47.1193  -22.8387   13.3402 H         1 UNK         0.0697 
    123 H123      -47.3142  -25.0964   11.2766 H         1 UNK         0.0825 
    124 H124      -45.8454  -24.2639   11.7605 H         1 UNK         0.0825 
    125 H125      -47.1095  -23.3858   10.9122 H         1 UNK         0.0825 
    126 H126      -49.3597  -23.6961   11.8801 H         1 UNK         0.3029 
    127 H127      -51.8187  -22.3967   14.1902 H         1 UNK         0.0897 
    128 H128      -52.2069  -21.0256   12.1617 H         1 UNK         0.0792 
    129 H129      -50.7252  -20.5229   12.9600 H         1 UNK         0.0792 
    130 H130      -50.6453  -21.5023   11.5000 H         1 UNK         0.0792 
    131 H131      -51.4864  -23.8774   11.6105 H         1 UNK         0.3086 
    132 H132      -53.6425  -26.4564   12.7241 H         1 UNK         0.0583 
    133 H133      -55.1249  -24.5941   11.6971 H         1 UNK         0.1020 
    134 H134      -54.9882  -26.0890   10.8620 H         1 UNK         0.1020 
    135 H135      -55.6495  -25.3962    8.4600 H         1 UNK         0.0694 
    136 H136      -54.4607  -24.7279    7.3750 H         1 UNK         0.0694 
    137 H137      -52.2227  -26.3044   10.3512 H         1 UNK         0.2989 
    138 H138      -48.9372  -26.9191   11.4160 H         1 UNK         0.1055 
    139 H139      -49.9524  -29.2031   11.6892 H         1 UNK         0.0806 
    140 H140      -49.0825  -29.0390   10.1770 H         1 UNK         0.0806 
    141 H141      -50.8454  -28.9771   10.1925 H         1 UNK         0.0806 
    142 H142      -49.8126  -27.0802    8.8267 H         1 UNK         0.3061 
    143 H143      -49.7999  -25.5219    7.3179 H         1 UNK         0.0734 
    144 H144      -51.6952  -23.9349    7.7971 H         1 UNK         0.0832 
    145 H145      -50.5396  -22.6822    8.2042 H         1 UNK         0.0832 
    146 H146      -50.6175  -23.3194    6.5608 H         1 UNK         0.0832 
    147 H147      -48.2741  -23.2400    7.2530 H         1 UNK         0.3156 
    148 H148      -46.0888  -23.5816    6.4914 H         1 UNK         0.0589 
    149 H149      -45.0681  -23.5257    9.4022 H         1 UNK         0.0808 
    150 H150      -44.4234  -22.5698    8.0720 H         1 UNK         0.0808 
    151 H151      -46.0530  -22.2711    8.6572 H         1 UNK         0.0808 
    152 H152      -45.0422  -25.9086    7.8928 H         1 UNK         0.3098 
    153 H153      -43.3222  -26.9694    5.0089 H         1 UNK         0.0720 
    154 H154      -41.7803  -27.8846    6.7387 H         1 UNK         0.0791 
    155 H155      -42.3729  -26.7165    7.9200 H         1 UNK         0.0791 
    156 H156      -41.4906  -26.1693    6.5013 H         1 UNK         0.0791 
    157 H157      -44.3913  -28.1031    7.4919 H         1 UNK         0.3028 
@<TRIPOS>BOND
     1    1    2 1    
     2    1   82 1    
     3    1   83 1    
     4    1   84 1    
     5    2    3 2    
     6    2    4 am   BACKBONE|DICT|INTERRES
     7    4    5 1    
     8    4   85 1    
     9    5    6 1    
    10    5   80 1    
    11    5   86 1    
    12    6    7 1    
    13    6   87 1    
    14    6   88 1    
    15    7    8 1    
    16    8    9 1    
    17    8   89 1    
    18    8   90 1    
    19    9   10 ar   
    20    9   14 ar   
    21   10   11 ar   
    22   10   91 1    
    23   11   12 ar   
    24   11   58 1    
    25   12   13 ar   
    26   12   92 1    
    27   13   14 ar   
    28   13   15 1    
    29   14   93 1    
    30   15   16 1    
    31   15   94 1    
    32   15   95 1    
    33   16   17 1    
    34   17   18 1    
    35   17   96 1    
    36   17   97 1    
    37   18   19 1    
    38   18   22 1    
    39   18   98 1    
    40   19   20 am   BACKBONE|DICT|INTERRES
    41   19   21 2    
    42   20   99 1    
    43   20  100 1    
    44   22   23 am   BACKBONE|DICT|INTERRES
    45   22  101 1    
    46   23   24 2    
    47   23   25 1    
    48   25   26 1    
    49   25   27 1    
    50   25  102 1    
    51   26  103 1    
    52   26  104 1    
    53   26  105 1    
    54   27   28 am   BACKBONE|DICT|INTERRES
    55   27  106 1    
    56   28   29 2    
    57   28   30 1    
    58   30   31 1    
    59   30   32 1    
    60   30  107 1    
    61   31  108 1    
    62   31  109 1    
    63   31  110 1    
    64   32   33 am   BACKBONE|DICT|INTERRES
    65   32  111 1    
    66   33   34 2    
    67   33   35 1    
    68   35   36 1    
    69   35   37 1    
    70   35  112 1    
    71   36  113 1    
    72   36  114 1    
    73   36  115 1    
    74   37   38 am   BACKBONE|DICT|INTERRES
    75   37  116 1    
    76   38   39 2    
    77   38   40 1    
    78   40   41 1    
    79   40   42 1    
    80   40  117 1    
    81   41  118 1    
    82   41  119 1    
    83   41  120 1    
    84   42   43 am   BACKBONE|DICT|INTERRES
    85   42  121 1    
    86   43   44 2    
    87   43   45 1    
    88   45   46 1    
    89   45   47 1    
    90   45  122 1    
    91   46  123 1    
    92   46  124 1    
    93   46  125 1    
    94   47   48 am   BACKBONE|DICT|INTERRES
    95   47  126 1    
    96   48   49 2    
    97   48   50 1    
    98   50   51 1    
    99   50   52 1    
   100   50  127 1    
   101   51  128 1    
   102   51  129 1    
   103   51  130 1    
   104   52   53 am   BACKBONE|DICT|INTERRES
   105   52  131 1    
   106   53   54 2    
   107   53   55 1    
   108   55   56 1    
   109   55   59 1    
   110   55  132 1    
   111   56   57 1    
   112   56  133 1    
   113   56  134 1    
   114   57   58 1    
   115   58  135 1    
   116   58  136 1    
   117   59   60 am   BACKBONE|DICT|INTERRES
   118   59  137 1    
   119   60   61 2    
   120   60   62 1    
   121   62   63 1    
   122   62   64 1    
   123   62  138 1    
   124   63  139 1    
   125   63  140 1    
   126   63  141 1    
   127   64   65 am   BACKBONE|DICT|INTERRES
   128   64  142 1    
   129   65   66 2    
   130   65   67 1    
   131   67   68 1    
   132   67   69 1    
   133   67  143 1    
   134   68  144 1    
   135   68  145 1    
   136   68  146 1    
   137   69   70 am   BACKBONE|DICT|INTERRES
   138   69  147 1    
   139   70   71 2    
   140   70   72 1    
   141   72   73 1    
   142   72   74 1    
   143   72  148 1    
   144   73  149 1    
   145   73  150 1    
   146   73  151 1    
   147   74   75 am   BACKBONE|DICT|INTERRES
   148   74  152 1    
   149   75   76 2    
   150   75   77 1    
   151   77   78 1    
   152   77   79 1    
   153   77  153 1    
   154   78  154 1    
   155   78  155 1    
   156   78  156 1    
   157   79   80 am   BACKBONE|DICT|INTERRES
   158   79  157 1    
   159   80   81 2    
@<TRIPOS>SUBSTRUCTURE
     1 UNK         1 GROUP             0       ****    0 ROOT    
