@<TRIPOS>MOLECULE
3R207
157   159    1
SMALL
USER_CHARGES


@<TRIPOS>ATOM
      1 CA        -47.5331  -27.8406   11.7055 C.3       0 UNK        -0.1975 
      2 C         -47.4789  -28.6226   10.4040 C.2       0 UNK         0.4852 
      3 O         -47.2003  -29.8222   10.4276 O.2       0 UNK        -0.5216 
      4 N         -47.7473  -27.9573    9.2767 N.am      1 UNK        -0.4461 
      5 CA        -47.7955  -28.5566    7.9434 C.3       1 UNK         0.0864 
      6 C6        -49.2397  -28.8970    7.4826 C.3       14 UNK        -0.0898 
      7 S7        -50.5038  -27.6237    7.8343 S.3       14 UNK        -0.2598 
      8 C8        -51.9959  -28.5152    7.2981 C.3       14 UNK         0.0286 
      9 C9        -53.2545  -27.8019    7.7621 C.ar      14 UNK        -0.0844 
     10 C10       -53.6633  -26.6225    7.1347 C.ar      14 UNK        -0.0881 
     11 C11       -54.7919  -25.9306    7.5868 C.ar      14 UNK        -0.0643 
     12 C12       -55.5401  -26.4559    8.6448 C.ar      14 UNK        -0.0930 
     13 C13       -55.1581  -27.6526    9.2586 C.ar      14 UNK        -0.0827 
     14 C14       -54.0090  -28.3160    8.8207 C.ar      14 UNK        -0.1249 
     15 C15       -56.0007  -28.2376   10.3799 C.3       14 UNK         0.0141 
     16 S16       -55.5781  -27.5074   11.9878 S.3       14 UNK        -0.2313 
     17 C17       -56.9210  -28.2172   12.9962 C.3       14 UNK        -0.0915 
     18 CA        -56.6284  -28.1650   14.5226 C.3       13 UNK         0.0968 
     19 C         -57.8708  -28.5292   15.3931 C.2       13 UNK         0.5732 
     20 N         -57.7002  -29.0939   16.5828 N.am      13 UNK        -0.7310 
     21 O         -59.0076  -28.2662   15.0069 O.2       13 UNK        -0.5035 
     22 N         -55.3878  -28.8653   14.9003 N.am      13 UNK        -0.4233 
     23 C         -55.1525  -30.1800   14.8025 C.2       13 UNK         0.4989 
     24 O         -55.9574  -31.0017   14.3592 O.2       13 UNK        -0.4996 
     25 CA        -53.7735  -30.6352   15.3093 C.3       12 UNK         0.0216 
     26 CB        -53.5741  -32.1661   15.2674 C.3       12 UNK        -0.1964 
     27 N         -52.6841  -29.9303   14.6251 N.am      12 UNK        -0.4276 
     28 C         -52.3289  -30.0092   13.3331 C.2       12 UNK         0.5020 
     29 O         -52.8832  -30.7353   12.5071 O.2       12 UNK        -0.5489 
     30 CA        -51.1422  -29.1379   12.8731 C.3       11 UNK         0.0294 
     31 CB        -51.6021  -28.0737   11.8607 C.3       11 UNK        -0.2019 
     32 N         -50.4291  -28.4719   13.9680 N.am      11 UNK        -0.4493 
     33 C         -49.5868  -29.0642   14.8271 C.2       11 UNK         0.4932 
     34 O         -49.3254  -30.2664   14.8090 O.2       11 UNK        -0.5029 
     35 CA        -48.9332  -28.1675   15.8894 C.3       10 UNK         0.0280 
     36 CB        -47.7000  -27.4552   15.3090 C.3       10 UNK        -0.1976 
     37 N         -49.8745  -27.1631   16.3866 N.am      10 UNK        -0.4242 
     38 C         -50.4920  -27.2038   17.5746 C.2       10 UNK         0.5072 
     39 O         -50.3101  -28.0868   18.4140 O.2       10 UNK        -0.5224 
     40 CA        -51.4833  -26.0669   17.8931 C.3       9 UNK         0.0343 
     41 CB        -50.7802  -24.9490   18.6798 C.3       9 UNK        -0.2003 
     42 N         -52.1263  -25.4895   16.7093 N.am      9 UNK        -0.4272 
     43 C         -52.9849  -26.1441   15.9166 C.2       9 UNK         0.4988 
     44 O         -53.3613  -27.2994   16.1180 O.2       9 UNK        -0.5108 
     45 CA        -53.5021  -25.4059   14.6703 C.3       8 UNK         0.0248 
     46 CB        -54.7702  -24.6088   15.0167 C.3       8 UNK        -0.2001 
     47 N         -52.5564  -24.5173   13.9814 N.am      8 UNK        -0.4140 
     48 C         -51.2743  -24.7566   13.6752 C.2       8 UNK         0.5028 
     49 O         -50.6409  -25.7383   14.0639 O.2       8 UNK        -0.5428 
     50 CA        -50.6043  -23.7470   12.7307 C.3       7 UNK         0.0264 
     51 CB        -49.0690  -23.8132   12.8061 C.3       7 UNK        -0.1988 
     52 N         -51.0234  -23.9935   11.3503 N.am      7 UNK        -0.4454 
     53 C         -52.2160  -23.6526   10.8360 C.2       7 UNK         0.5027 
     54 O         -53.0788  -23.0589   11.4876 O.2       7 UNK        -0.5083 
     55 CA        -52.4998  -24.0382    9.3648 C.3       6 UNK         0.0844 
     56 C56       -53.5525  -23.0959    8.7049 C.3       14 UNK        -0.0967 
     57 S57       -53.8348  -23.3995    6.9230 S.3       14 UNK        -0.2604 
     58 C58       -55.1967  -24.6115    6.9421 C.3       14 UNK         0.0134 
     59 N         -51.2753  -24.2162    8.5752 N.am      6 UNK        -0.4116 
     60 C         -50.3904  -23.2633    8.2586 C.2       5 UNK         0.5034 
     61 O         -50.4674  -22.0868    8.6204 O.2       5 UNK        -0.5045 
     62 CA        -49.2069  -23.7081    7.3915 C.3       5 UNK         0.0224 
     63 CB        -49.1849  -22.9570    6.0505 C.3       5 UNK        -0.1978 
     64 N         -47.9395  -23.4988    8.0866 N.am      5 UNK        -0.4737 
     65 C         -47.5290  -24.1842    9.1597 C.2       4 UNK         0.5027 
     66 O         -48.1939  -25.0747    9.6951 O.2       4 UNK        -0.5211 
     67 CA        -46.1216  -23.8371    9.6851 C.3       4 UNK         0.0297 
     68 CB        -45.7165  -24.6836   10.9051 C.3       4 UNK        -0.1993 
     69 N         -45.1156  -24.0265    8.6395 N.am      4 UNK        -0.4486 
     70 C         -44.8336  -23.1828    7.6409 C.2       3 UNK         0.4961 
     71 O         -45.3491  -22.0703    7.5261 O.2       3 UNK        -0.5105 
     72 CA        -43.8587  -23.6827    6.5575 C.3       3 UNK         0.0299 
     73 CB        -42.4042  -23.7025    7.0684 C.3       3 UNK        -0.1972 
     74 N         -44.2553  -24.9699    5.9625 N.am      3 UNK        -0.4305 
     75 C         -44.3190  -26.1740    6.5488 C.2       2 UNK         0.5006 
     76 O         -43.9509  -26.4043    7.7041 O.2       2 UNK        -0.5106 
     77 CA        -44.9183  -27.3158    5.7123 C.3       2 UNK         0.0296 
     78 CB        -43.8093  -28.2324    5.1712 C.3       2 UNK        -0.2002 
     79 N         -45.8547  -28.1041    6.5174 N.am      2 UNK        -0.4032 
     80 C         -47.0313  -27.6458    6.9699 C.2       1 UNK         0.5000 
     81 O         -47.4959  -26.5489    6.6585 O.2       1 UNK        -0.5238 
     82 H82       -47.9963  -28.4507   12.4773 H         1 UNK         0.0889 
     83 H83       -48.1171  -26.9272   11.6043 H         1 UNK         0.0889 
     84 H84       -46.5285  -27.5802   12.0361 H         1 UNK         0.0889 
     85 H85       -47.9577  -26.9608    9.3090 H         1 UNK         0.3028 
     86 H86       -47.2515  -29.5037    7.9606 H         1 UNK         0.0864 
     87 H87       -49.5539  -29.8092    7.9923 H         1 UNK         0.0720 
     88 H88       -49.2611  -29.1340    6.4172 H         1 UNK         0.0720 
     89 H89       -51.9737  -29.5332    7.6903 H         1 UNK         0.0814 
     90 H90       -51.9971  -28.6016    6.2105 H         1 UNK         0.0814 
     91 H91       -53.0807  -26.2219    6.3163 H         1 UNK         0.1469 
     92 H92       -56.4206  -25.9345    8.9950 H         1 UNK         0.1381 
     93 H93       -53.7049  -29.2346    9.3042 H         1 UNK         0.1206 
     94 H94       -57.0579  -28.0677   10.1701 H         1 UNK         0.0813 
     95 H95       -55.8665  -29.3194   10.4318 H         1 UNK         0.0813 
     96 H96       -57.1078  -29.2444   12.6795 H         1 UNK         0.0638 
     97 H97       -57.8257  -27.6554   12.7577 H         1 UNK         0.0638 
     98 H98       -56.4448  -27.1200   14.7653 H         1 UNK         0.0568 
     99 H99       -58.5080  -29.3151   17.1432 H         1 UNK         0.3450 
    100 H100      -56.7759  -29.3005   16.9245 H         1 UNK         0.3450 
    101 H101      -54.6622  -28.2824   15.3119 H         1 UNK         0.2987 
    102 H102      -53.7177  -30.3322   16.3561 H         1 UNK         0.0766 
    103 H103      -53.6628  -32.5635   14.2560 H         1 UNK         0.0798 
    104 H104      -54.3229  -32.6713   15.8785 H         1 UNK         0.0798 
    105 H105      -52.5949  -32.4487   15.6540 H         1 UNK         0.0798 
    106 H106      -52.1875  -29.2542   15.1898 H         1 UNK         0.3198 
    107 H107      -50.4369  -29.8009   12.3673 H         1 UNK         0.0843 
    108 H108      -52.3426  -27.3995   12.2913 H         1 UNK         0.0831 
    109 H109      -52.0580  -28.5398   10.9872 H         1 UNK         0.0831 
    110 H110      -50.7663  -27.4725   11.5022 H         1 UNK         0.0831 
    111 H111      -50.5488  -27.4595   14.0278 H         1 UNK         0.3133 
    112 H112      -48.5964  -28.8099   16.7057 H         1 UNK         0.0566 
    113 H113      -47.9684  -26.7711   14.5027 H         1 UNK         0.0814 
    114 H114      -46.9845  -28.1742   14.9077 H         1 UNK         0.0814 
    115 H115      -47.1828  -26.8777   16.0752 H         1 UNK         0.0814 
    116 H116      -50.1274  -26.4268   15.7316 H         1 UNK         0.3091 
    117 H117      -52.2680  -26.4875   18.5257 H         1 UNK         0.0702 
    118 H118      -51.4852  -24.1777   18.9904 H         1 UNK         0.0785 
    119 H119      -49.9961  -24.4719   18.0903 H         1 UNK         0.0785 
    120 H120      -50.3141  -25.3423   19.5844 H         1 UNK         0.0785 
    121 H121      -51.8683  -24.5457   16.4606 H         1 UNK         0.2998 
    122 H122      -53.7759  -26.1776   13.9501 H         1 UNK         0.0697 
    123 H123      -54.5373  -23.7187   15.6024 H         1 UNK         0.0825 
    124 H124      -55.4704  -25.2028   15.6045 H         1 UNK         0.0825 
    125 H125      -55.2944  -24.2900   14.1154 H         1 UNK         0.0825 
    126 H126      -52.9728  -23.7125   13.5269 H         1 UNK         0.3029 
    127 H127      -50.9126  -22.7419   13.0271 H         1 UNK         0.0897 
    128 H128      -48.7188  -23.6268   13.8221 H         1 UNK         0.0792 
    129 H129      -48.6072  -23.0670   12.1593 H         1 UNK         0.0792 
    130 H130      -48.6946  -24.7923   12.5078 H         1 UNK         0.0792 
    131 H131      -50.3633  -24.4836   10.7599 H         1 UNK         0.3086 
    132 H132      -52.9424  -25.0319    9.4275 H         1 UNK         0.0583 
    133 H133      -54.5074  -23.1704    9.2286 H         1 UNK         0.1020 
    134 H134      -53.2387  -22.0556    8.8091 H         1 UNK         0.1020 
    135 H135      -56.0561  -24.1718    7.4508 H         1 UNK         0.0694 
    136 H136      -55.5104  -24.8044    5.9154 H         1 UNK         0.0694 
    137 H137      -51.1054  -25.1598    8.2520 H         1 UNK         0.2989 
    138 H138      -49.3040  -24.7747    7.1792 H         1 UNK         0.1055 
    139 H139      -49.0481  -21.8838    6.1893 H         1 UNK         0.0806 
    140 H140      -50.1216  -23.1001    5.5098 H         1 UNK         0.0806 
    141 H141      -48.3813  -23.3193    5.4087 H         1 UNK         0.0806 
    142 H142      -47.3215  -22.7844    7.7193 H         1 UNK         0.3061 
    143 H143      -46.1333  -22.7882    9.9885 H         1 UNK         0.0734 
    144 H144      -45.6595  -25.7429   10.6541 H         1 UNK         0.0832 
    145 H145      -44.7434  -24.3799   11.2911 H         1 UNK         0.0832 
    146 H146      -46.4328  -24.5743   11.7188 H         1 UNK         0.0832 
    147 H147      -44.6824  -24.9463    8.5851 H         1 UNK         0.3156 
    148 H148      -43.9020  -22.9594    5.7415 H         1 UNK         0.0589 
    149 H149      -41.7124  -24.0004    6.2805 H         1 UNK         0.0808 
    150 H150      -42.1006  -22.7114    7.4080 H         1 UNK         0.0808 
    151 H151      -42.2683  -24.3846    7.9079 H         1 UNK         0.0808 
    152 H152      -44.6051  -24.9010    5.0162 H         1 UNK         0.3098 
    153 H153      -45.4663  -26.8948    4.8665 H         1 UNK         0.0720 
    154 H154      -43.2323  -28.6883    5.9772 H         1 UNK         0.0791 
    155 H155      -43.1108  -27.6729    4.5475 H         1 UNK         0.0791 
    156 H156      -44.2203  -29.0338    4.5568 H         1 UNK         0.0791 
    157 H157      -45.5184  -28.9964    6.8490 H         1 UNK         0.3028 
@<TRIPOS>BOND
     1    1    2 1    
     2    1   82 1    
     3    1   83 1    
     4    1   84 1    
     5    2    3 2    
     6    2    4 am   BACKBONE|DICT|INTERRES
     7    4    5 1    
     8    4   85 1    
     9    5    6 1    
    10    5   80 1    
    11    5   86 1    
    12    6    7 1    
    13    6   87 1    
    14    6   88 1    
    15    7    8 1    
    16    8    9 1    
    17    8   89 1    
    18    8   90 1    
    19    9   10 ar   
    20    9   14 ar   
    21   10   11 ar   
    22   10   91 1    
    23   11   12 ar   
    24   11   58 1    
    25   12   13 ar   
    26   12   92 1    
    27   13   14 ar   
    28   13   15 1    
    29   14   93 1    
    30   15   16 1    
    31   15   94 1    
    32   15   95 1    
    33   16   17 1    
    34   17   18 1    
    35   17   96 1    
    36   17   97 1    
    37   18   19 1    
    38   18   22 1    
    39   18   98 1    
    40   19   20 am   BACKBONE|DICT|INTERRES
    41   19   21 2    
    42   20   99 1    
    43   20  100 1    
    44   22   23 am   BACKBONE|DICT|INTERRES
    45   22  101 1    
    46   23   24 2    
    47   23   25 1    
    48   25   26 1    
    49   25   27 1    
    50   25  102 1    
    51   26  103 1    
    52   26  104 1    
    53   26  105 1    
    54   27   28 am   BACKBONE|DICT|INTERRES
    55   27  106 1    
    56   28   29 2    
    57   28   30 1    
    58   30   31 1    
    59   30   32 1    
    60   30  107 1    
    61   31  108 1    
    62   31  109 1    
    63   31  110 1    
    64   32   33 am   BACKBONE|DICT|INTERRES
    65   32  111 1    
    66   33   34 2    
    67   33   35 1    
    68   35   36 1    
    69   35   37 1    
    70   35  112 1    
    71   36  113 1    
    72   36  114 1    
    73   36  115 1    
    74   37   38 am   BACKBONE|DICT|INTERRES
    75   37  116 1    
    76   38   39 2    
    77   38   40 1    
    78   40   41 1    
    79   40   42 1    
    80   40  117 1    
    81   41  118 1    
    82   41  119 1    
    83   41  120 1    
    84   42   43 am   BACKBONE|DICT|INTERRES
    85   42  121 1    
    86   43   44 2    
    87   43   45 1    
    88   45   46 1    
    89   45   47 1    
    90   45  122 1    
    91   46  123 1    
    92   46  124 1    
    93   46  125 1    
    94   47   48 am   BACKBONE|DICT|INTERRES
    95   47  126 1    
    96   48   49 2    
    97   48   50 1    
    98   50   51 1    
    99   50   52 1    
   100   50  127 1    
   101   51  128 1    
   102   51  129 1    
   103   51  130 1    
   104   52   53 am   BACKBONE|DICT|INTERRES
   105   52  131 1    
   106   53   54 2    
   107   53   55 1    
   108   55   56 1    
   109   55   59 1    
   110   55  132 1    
   111   56   57 1    
   112   56  133 1    
   113   56  134 1    
   114   57   58 1    
   115   58  135 1    
   116   58  136 1    
   117   59   60 am   BACKBONE|DICT|INTERRES
   118   59  137 1    
   119   60   61 2    
   120   60   62 1    
   121   62   63 1    
   122   62   64 1    
   123   62  138 1    
   124   63  139 1    
   125   63  140 1    
   126   63  141 1    
   127   64   65 am   BACKBONE|DICT|INTERRES
   128   64  142 1    
   129   65   66 2    
   130   65   67 1    
   131   67   68 1    
   132   67   69 1    
   133   67  143 1    
   134   68  144 1    
   135   68  145 1    
   136   68  146 1    
   137   69   70 am   BACKBONE|DICT|INTERRES
   138   69  147 1    
   139   70   71 2    
   140   70   72 1    
   141   72   73 1    
   142   72   74 1    
   143   72  148 1    
   144   73  149 1    
   145   73  150 1    
   146   73  151 1    
   147   74   75 am   BACKBONE|DICT|INTERRES
   148   74  152 1    
   149   75   76 2    
   150   75   77 1    
   151   77   78 1    
   152   77   79 1    
   153   77  153 1    
   154   78  154 1    
   155   78  155 1    
   156   78  156 1    
   157   79   80 am   BACKBONE|DICT|INTERRES
   158   79  157 1    
   159   80   81 2    
@<TRIPOS>SUBSTRUCTURE
     1 UNK         1 GROUP             0       ****    0 ROOT    
