@<TRIPOS>MOLECULE
3R207
157   159    1
SMALL
USER_CHARGES


@<TRIPOS>ATOM
      1 CA        -49.1670  -28.3752    3.8660 C.3       0 UNK        -0.1975 
      2 C         -49.1115  -28.6691    5.3628 C.2       0 UNK         0.4852 
      3 O         -48.4692  -29.6376    5.7635 O.2       0 UNK        -0.5216 
      4 N         -49.7657  -27.8789    6.2242 N.am      1 UNK        -0.4461 
      5 CA        -50.4927  -26.6420    5.9210 C.3       1 UNK         0.0864 
      6 C6        -51.5543  -26.3319    7.0016 C.3       14 UNK        -0.0898 
      7 S7        -52.9314  -27.5291    7.0103 S.3       14 UNK        -0.2598 
      8 C8        -52.4525  -28.6759    8.3525 C.3       14 UNK         0.0286 
      9 C9        -52.3121  -28.0683    9.7512 C.ar      14 UNK        -0.0844 
     10 C10       -52.8283  -26.8108   10.0938 C.ar      14 UNK        -0.0881 
     11 C11       -52.6526  -26.2930   11.3795 C.ar      14 UNK        -0.0643 
     12 C12       -52.0011  -27.0608   12.3478 C.ar      14 UNK        -0.0930 
     13 C13       -51.4786  -28.3153   12.0250 C.ar      14 UNK        -0.0827 
     14 C14       -51.6360  -28.8079   10.7263 C.ar      14 UNK        -0.1249 
     15 C15       -50.6731  -29.0973   13.0540 C.3       14 UNK         0.0141 
     16 S16       -51.2719  -30.7966   13.3145 S.3       14 UNK        -0.2313 
     17 C17       -52.6353  -30.5670   14.5028 C.3       14 UNK        -0.0915 
     18 CA        -54.0064  -30.9537   13.8900 C.3       13 UNK         0.0968 
     19 C         -55.0792  -31.2238   14.9872 C.2       13 UNK         0.5732 
     20 N         -56.2353  -30.5700   14.9913 N.am      13 UNK        -0.7310 
     21 O         -54.8656  -32.0703   15.8519 O.2       13 UNK        -0.5035 
     22 N         -54.4217  -29.9870   12.8656 N.am      13 UNK        -0.4233 
     23 C         -55.2458  -30.2614   11.8466 C.2       13 UNK         0.4989 
     24 O         -55.6522  -31.3952   11.5845 O.2       13 UNK        -0.4996 
     25 CA        -55.7091  -29.0636   10.9890 C.3       12 UNK         0.0216 
     26 CB        -57.0255  -29.3441   10.2332 C.3       12 UNK        -0.1964 
     27 N         -55.8063  -27.8055   11.7445 N.am      12 UNK        -0.4276 
     28 C         -56.5488  -27.5834   12.8386 C.2       12 UNK         0.5020 
     29 O         -57.2978  -28.4180   13.3515 O.2       12 UNK        -0.5489 
     30 CA        -56.4096  -26.2006   13.4931 C.3       11 UNK         0.0294 
     31 CB        -57.6874  -25.3708   13.2912 C.3       11 UNK        -0.2019 
     32 N         -56.1192  -26.3132   14.9242 N.am      11 UNK        -0.4493 
     33 C         -55.0054  -26.8555   15.4331 C.2       11 UNK         0.4932 
     34 O         -54.0903  -27.3176   14.7499 O.2       11 UNK        -0.5029 
     35 CA        -54.8974  -26.8995   16.9651 C.3       10 UNK         0.0280 
     36 CB        -54.9340  -28.3480   17.4773 C.3       10 UNK        -0.1976 
     37 N         -53.6599  -26.2628   17.4126 N.am      10 UNK        -0.4242 
     38 C         -53.4325  -24.9422   17.3965 C.2       10 UNK         0.5072 
     39 O         -54.2760  -24.1072   17.0654 O.2       10 UNK        -0.5224 
     40 CA        -52.0395  -24.4589   17.8446 C.3       9 UNK         0.0343 
     41 CB        -52.0842  -23.9746   19.3034 C.3       9 UNK        -0.2003 
     42 N         -50.9778  -25.4623   17.7045 N.am      9 UNK        -0.4272 
     43 C         -50.4987  -25.8952   16.5317 C.2       9 UNK         0.4988 
     44 O         -50.9231  -25.5239   15.4350 O.2       9 UNK        -0.5108 
     45 CA        -49.3621  -26.9218   16.5954 C.3       8 UNK         0.0248 
     46 CB        -49.8901  -28.3209   16.9632 C.3       8 UNK        -0.2001 
     47 N         -48.7253  -26.9562   15.2833 N.am      8 UNK        -0.4140 
     48 C         -47.4199  -27.1066   15.0383 C.2       8 UNK         0.5028 
     49 O         -46.5891  -27.3625   15.9113 O.2       8 UNK        -0.5428 
     50 CA        -46.9454  -26.9447   13.5777 C.3       7 UNK         0.0264 
     51 CB        -46.4632  -28.2925   13.0137 C.3       7 UNK        -0.1988 
     52 N         -47.9419  -26.3700   12.6619 N.am      7 UNK        -0.4454 
     53 C         -48.3783  -25.1018   12.6983 C.2       7 UNK         0.5027 
     54 O         -47.9958  -24.2752   13.5278 O.2       7 UNK        -0.5083 
     55 CA        -49.4223  -24.7130   11.6317 C.3       6 UNK         0.0844 
     56 C56       -50.5537  -23.8256   12.2188 C.3       14 UNK        -0.0967 
     57 S57       -51.9611  -23.6306   11.0731 S.3       14 UNK        -0.2604 
     58 C58       -53.1267  -24.8841   11.7035 C.3       14 UNK         0.0134 
     59 N         -48.7676  -24.1603   10.4418 N.am      6 UNK        -0.4116 
     60 C         -48.0735  -23.0166   10.3345 C.2       5 UNK         0.5034 
     61 O         -47.9550  -22.1802   11.2311 O.2       5 UNK        -0.5045 
     62 CA        -47.3967  -22.7785    8.9701 C.3       5 UNK         0.0224 
     63 CB        -46.3433  -21.6504    8.9938 C.3       5 UNK        -0.1978 
     64 N         -46.8373  -24.0115    8.4027 N.am      5 UNK        -0.4737 
     65 C         -45.8556  -24.7802    8.8998 C.2       4 UNK         0.5027 
     66 O         -45.2224  -24.5229    9.9230 O.2       4 UNK        -0.5211 
     67 CA        -45.5410  -26.0727    8.1293 C.3       4 UNK         0.0297 
     68 CB        -46.3887  -27.2339    8.6762 C.3       4 UNK        -0.1993 
     69 N         -45.8003  -25.9239    6.6954 N.am      4 UNK        -0.4486 
     70 C         -44.8897  -25.5422    5.7893 C.2       3 UNK         0.4961 
     71 O         -43.7030  -25.3432    6.0511 O.2       3 UNK        -0.5105 
     72 CA        -45.3780  -25.3509    4.3396 C.3       3 UNK         0.0299 
     73 CB        -45.2225  -26.6594    3.5473 C.3       3 UNK        -0.1972 
     74 N         -46.7676  -24.8950    4.2469 N.am      3 UNK        -0.4305 
     75 C         -47.2085  -23.6898    4.6358 C.2       2 UNK         0.5006 
     76 O         -46.4735  -22.7881    5.0378 O.2       2 UNK        -0.5106 
     77 CA        -48.7325  -23.4554    4.6023 C.3       2 UNK         0.0296 
     78 CB        -49.1379  -22.7714    3.2866 C.3       2 UNK        -0.2002 
     79 N         -49.5591  -24.6570    4.7990 N.am      2 UNK        -0.4032 
     80 C         -49.4845  -25.4839    5.8522 C.2       1 UNK         0.5000 
     81 O         -48.6564  -25.3631    6.7573 O.2       1 UNK        -0.5238 
     82 H82       -50.1908  -28.4392    3.4984 H         1 UNK         0.0889 
     83 H83       -48.5729  -29.1031    3.3135 H         1 UNK         0.0889 
     84 H84       -48.7704  -27.3877    3.6388 H         1 UNK         0.0889 
     85 H85       -49.6840  -28.0850    7.2083 H         1 UNK         0.3028 
     86 H86       -51.0011  -26.7355    4.9598 H         1 UNK         0.0864 
     87 H87       -51.0934  -26.2801    7.9896 H         1 UNK         0.0720 
     88 H88       -51.9978  -25.3490    6.8294 H         1 UNK         0.0720 
     89 H89       -51.5168  -29.1605    8.0716 H         1 UNK         0.0814 
     90 H90       -53.1997  -29.4689    8.4001 H         1 UNK         0.0814 
     91 H91       -53.3423  -26.2092    9.3579 H         1 UNK         0.1469 
     92 H92       -51.8727  -26.6630   13.3447 H         1 UNK         0.1381 
     93 H93       -51.2215  -29.7745   10.4733 H         1 UNK         0.1206 
     94 H94       -50.6465  -28.5737   14.0081 H         1 UNK         0.0813 
     95 H95       -49.6417  -29.1519   12.7071 H         1 UNK         0.0813 
     96 H96       -52.6514  -29.5411   14.8722 H         1 UNK         0.0638 
     97 H97       -52.4008  -31.1932   15.3653 H         1 UNK         0.0638 
     98 H98       -53.8748  -31.9188   13.3971 H         1 UNK         0.0568 
     99 H99       -56.9110  -30.7876   15.7049 H         1 UNK         0.3450 
    100 H100      -56.4583  -29.8678   14.2919 H         1 UNK         0.3450 
    101 H101      -54.1430  -29.0290   13.0316 H         1 UNK         0.2987 
    102 H102      -54.9320  -28.9148   10.2403 H         1 UNK         0.0766 
    103 H103      -56.9200  -30.1997    9.5650 H         1 UNK         0.0798 
    104 H104      -57.3201  -28.4923    9.6203 H         1 UNK         0.0798 
    105 H105      -57.8453  -29.5650   10.9176 H         1 UNK         0.0798 
    106 H106      -55.1944  -27.0678   11.4253 H         1 UNK         0.3198 
    107 H107      -55.5790  -25.6667   13.0302 H         1 UNK         0.0843 
    108 H108      -58.5535  -25.8439   13.7563 H         1 UNK         0.0831 
    109 H109      -57.9123  -25.2538   12.2301 H         1 UNK         0.0831 
    110 H110      -57.5836  -24.3702   13.7114 H         1 UNK         0.0831 
    111 H111      -56.8330  -25.9842   15.5578 H         1 UNK         0.3133 
    112 H112      -55.7405  -26.3615   17.4040 H         1 UNK         0.0566 
    113 H113      -54.8564  -28.3890   18.5638 H         1 UNK         0.0814 
    114 H114      -54.1242  -28.9474   17.0590 H         1 UNK         0.0814 
    115 H115      -55.8725  -28.8307   17.2037 H         1 UNK         0.0814 
    116 H116      -52.8983  -26.8740   17.6638 H         1 UNK         0.3091 
    117 H117      -51.7780  -23.6069   17.2130 H         1 UNK         0.0702 
    118 H118      -51.1311  -23.5418   19.6081 H         1 UNK         0.0785 
    119 H119      -52.3218  -24.7866   19.9919 H         1 UNK         0.0785 
    120 H120      -52.8442  -23.2030   19.4355 H         1 UNK         0.0785 
    121 H121      -50.5740  -25.8175   18.5598 H         1 UNK         0.2998 
    122 H122      -48.6401  -26.5905   17.3450 H         1 UNK         0.0697 
    123 H123      -49.1032  -29.0725   16.8963 H         1 UNK         0.0825 
    124 H124      -50.7077  -28.6341   16.3142 H         1 UNK         0.0825 
    125 H125      -50.2658  -28.3401   17.9867 H         1 UNK         0.0825 
    126 H126      -49.3276  -26.6453   14.5327 H         1 UNK         0.3029 
    127 H127      -46.0904  -26.2652   13.6015 H         1 UNK         0.0897 
    128 H128      -47.2716  -29.0206   12.9488 H         1 UNK         0.0792 
    129 H129      -45.6893  -28.7262   13.6489 H         1 UNK         0.0792 
    130 H130      -46.0301  -28.1775   12.0206 H         1 UNK         0.0792 
    131 H131      -48.2999  -26.9860   11.9462 H         1 UNK         0.3086 
    132 H132      -49.8827  -25.6403   11.2910 H         1 UNK         0.0583 
    133 H133      -50.9247  -24.2456   13.1545 H         1 UNK         0.1020 
    134 H134      -50.1765  -22.8353   12.4775 H         1 UNK         0.1020 
    135 H135      -53.2625  -24.7562   12.7791 H         1 UNK         0.0694 
    136 H136      -54.1022  -24.7120   11.2468 H         1 UNK         0.0694 
    137 H137      -48.7913  -24.7539    9.6254 H         1 UNK         0.2989 
    138 H138      -48.1931  -22.4662    8.2923 H         1 UNK         0.1055 
    139 H139      -45.5403  -21.8585    9.7014 H         1 UNK         0.0806 
    140 H140      -46.7942  -20.7010    9.2850 H         1 UNK         0.0806 
    141 H141      -45.8962  -21.5078    8.0097 H         1 UNK         0.0806 
    142 H142      -47.3462  -24.3823    7.6036 H         1 UNK         0.3061 
    143 H143      -44.4883  -26.3141    8.2922 H         1 UNK         0.0734 
    144 H144      -46.1501  -28.1703    8.1716 H         1 UNK         0.0832 
    145 H145      -46.2017  -27.3823    9.7399 H         1 UNK         0.0832 
    146 H146      -47.4571  -27.0525    8.5549 H         1 UNK         0.0832 
    147 H147      -46.7687  -26.0067    6.4089 H         1 UNK         0.3156 
    148 H148      -44.7440  -24.5929    3.8745 H         1 UNK         0.0589 
    149 H149      -45.8443  -27.4575    3.9553 H         1 UNK         0.0808 
    150 H150      -44.1891  -27.0083    3.5719 H         1 UNK         0.0808 
    151 H151      -45.4909  -26.5247    2.4993 H         1 UNK         0.0808 
    152 H152      -47.4412  -25.5561    3.8929 H         1 UNK         0.3098 
    153 H153      -48.9637  -22.7731    5.4231 H         1 UNK         0.0720 
    154 H154      -50.1896  -22.4842    3.2945 H         1 UNK         0.0791 
    155 H155      -48.9719  -23.4202    2.4256 H         1 UNK         0.0791 
    156 H156      -48.5587  -21.8609    3.1244 H         1 UNK         0.0791 
    157 H157      -50.2737  -24.8198    4.1035 H         1 UNK         0.3028 
@<TRIPOS>BOND
     1    1    2 1    
     2    1   82 1    
     3    1   83 1    
     4    1   84 1    
     5    2    3 2    
     6    2    4 am   BACKBONE|DICT|INTERRES
     7    4    5 1    
     8    4   85 1    
     9    5    6 1    
    10    5   80 1    
    11    5   86 1    
    12    6    7 1    
    13    6   87 1    
    14    6   88 1    
    15    7    8 1    
    16    8    9 1    
    17    8   89 1    
    18    8   90 1    
    19    9   10 ar   
    20    9   14 ar   
    21   10   11 ar   
    22   10   91 1    
    23   11   12 ar   
    24   11   58 1    
    25   12   13 ar   
    26   12   92 1    
    27   13   14 ar   
    28   13   15 1    
    29   14   93 1    
    30   15   16 1    
    31   15   94 1    
    32   15   95 1    
    33   16   17 1    
    34   17   18 1    
    35   17   96 1    
    36   17   97 1    
    37   18   19 1    
    38   18   22 1    
    39   18   98 1    
    40   19   20 am   BACKBONE|DICT|INTERRES
    41   19   21 2    
    42   20   99 1    
    43   20  100 1    
    44   22   23 am   BACKBONE|DICT|INTERRES
    45   22  101 1    
    46   23   24 2    
    47   23   25 1    
    48   25   26 1    
    49   25   27 1    
    50   25  102 1    
    51   26  103 1    
    52   26  104 1    
    53   26  105 1    
    54   27   28 am   BACKBONE|DICT|INTERRES
    55   27  106 1    
    56   28   29 2    
    57   28   30 1    
    58   30   31 1    
    59   30   32 1    
    60   30  107 1    
    61   31  108 1    
    62   31  109 1    
    63   31  110 1    
    64   32   33 am   BACKBONE|DICT|INTERRES
    65   32  111 1    
    66   33   34 2    
    67   33   35 1    
    68   35   36 1    
    69   35   37 1    
    70   35  112 1    
    71   36  113 1    
    72   36  114 1    
    73   36  115 1    
    74   37   38 am   BACKBONE|DICT|INTERRES
    75   37  116 1    
    76   38   39 2    
    77   38   40 1    
    78   40   41 1    
    79   40   42 1    
    80   40  117 1    
    81   41  118 1    
    82   41  119 1    
    83   41  120 1    
    84   42   43 am   BACKBONE|DICT|INTERRES
    85   42  121 1    
    86   43   44 2    
    87   43   45 1    
    88   45   46 1    
    89   45   47 1    
    90   45  122 1    
    91   46  123 1    
    92   46  124 1    
    93   46  125 1    
    94   47   48 am   BACKBONE|DICT|INTERRES
    95   47  126 1    
    96   48   49 2    
    97   48   50 1    
    98   50   51 1    
    99   50   52 1    
   100   50  127 1    
   101   51  128 1    
   102   51  129 1    
   103   51  130 1    
   104   52   53 am   BACKBONE|DICT|INTERRES
   105   52  131 1    
   106   53   54 2    
   107   53   55 1    
   108   55   56 1    
   109   55   59 1    
   110   55  132 1    
   111   56   57 1    
   112   56  133 1    
   113   56  134 1    
   114   57   58 1    
   115   58  135 1    
   116   58  136 1    
   117   59   60 am   BACKBONE|DICT|INTERRES
   118   59  137 1    
   119   60   61 2    
   120   60   62 1    
   121   62   63 1    
   122   62   64 1    
   123   62  138 1    
   124   63  139 1    
   125   63  140 1    
   126   63  141 1    
   127   64   65 am   BACKBONE|DICT|INTERRES
   128   64  142 1    
   129   65   66 2    
   130   65   67 1    
   131   67   68 1    
   132   67   69 1    
   133   67  143 1    
   134   68  144 1    
   135   68  145 1    
   136   68  146 1    
   137   69   70 am   BACKBONE|DICT|INTERRES
   138   69  147 1    
   139   70   71 2    
   140   70   72 1    
   141   72   73 1    
   142   72   74 1    
   143   72  148 1    
   144   73  149 1    
   145   73  150 1    
   146   73  151 1    
   147   74   75 am   BACKBONE|DICT|INTERRES
   148   74  152 1    
   149   75   76 2    
   150   75   77 1    
   151   77   78 1    
   152   77   79 1    
   153   77  153 1    
   154   78  154 1    
   155   78  155 1    
   156   78  156 1    
   157   79   80 am   BACKBONE|DICT|INTERRES
   158   79  157 1    
   159   80   81 2    
@<TRIPOS>SUBSTRUCTURE
     1 UNK         1 GROUP             0       ****    0 ROOT    
