@<TRIPOS>MOLECULE
3R207
157   159    1
SMALL
USER_CHARGES


@<TRIPOS>ATOM
      1 CA        -45.7795  -32.2846    3.7806 C.3       0 UNK        -0.1975 
      2 C         -46.5916  -31.0162    3.5643 C.2       0 UNK         0.4852 
      3 O         -46.1312  -30.1068    2.8732 O.2       0 UNK        -0.5216 
      4 N         -47.7966  -30.9504    4.1488 N.am      1 UNK        -0.4461 
      5 CA        -48.7113  -29.8028    4.0685 C.3       1 UNK         0.0864 
      6 C6        -50.1372  -30.1945    4.5402 C.3       14 UNK        -0.0898 
      7 S7        -51.4728  -29.3038    3.6694 S.3       14 UNK        -0.2598 
      8 C8        -51.8213  -27.8876    4.7623 C.3       14 UNK         0.0286 
      9 C9        -52.4015  -28.3038    6.1062 C.ar      14 UNK        -0.0844 
     10 C10       -51.5664  -28.4350    7.2185 C.ar      14 UNK        -0.0881 
     11 C11       -52.0865  -28.8073    8.4585 C.ar      14 UNK        -0.0643 
     12 C12       -53.4569  -29.0480    8.5858 C.ar      14 UNK        -0.0930 
     13 C13       -54.3095  -28.9000    7.4871 C.ar      14 UNK        -0.0827 
     14 C14       -53.7742  -28.5308    6.2478 C.ar      14 UNK        -0.1249 
     15 C15       -55.8059  -29.1434    7.6329 C.3       14 UNK         0.0141 
     16 S16       -56.6651  -27.6822    8.3028 S.3       14 UNK        -0.2313 
     17 C17       -56.4868  -27.9317   10.1041 C.3       14 UNK        -0.0915 
     18 CA        -57.8519  -28.0037   10.8530 C.3       13 UNK         0.0968 
     19 C         -58.5610  -29.3931   10.7524 C.2       13 UNK         0.5732 
     20 N         -59.3643  -29.7902   11.7327 N.am      13 UNK        -0.7310 
     21 O         -58.4094  -30.1156    9.7705 O.2       13 UNK        -0.5035 
     22 N         -57.7591  -27.4671   12.2241 N.am      13 UNK        -0.4233 
     23 C         -57.0127  -27.9816   13.2106 C.2       13 UNK         0.4989 
     24 O         -56.2901  -28.9741   13.0869 O.2       13 UNK        -0.4996 
     25 CA        -57.1329  -27.2968   14.5821 C.3       12 UNK         0.0216 
     26 CB        -58.3395  -27.8535   15.3569 C.3       12 UNK        -0.1964 
     27 N         -55.9193  -27.5208   15.3689 N.am      12 UNK        -0.4276 
     28 C         -54.8171  -26.7683   15.2859 C.2       12 UNK         0.5020 
     29 O         -54.7426  -25.7262   14.6283 O.2       12 UNK        -0.5489 
     30 CA        -53.5782  -27.3050   16.0224 C.3       11 UNK         0.0294 
     31 CB        -52.8046  -28.2673   15.1092 C.3       11 UNK        -0.2019 
     32 N         -52.6882  -26.2169   16.4284 N.am      11 UNK        -0.4493 
     33 C         -52.9074  -25.4223   17.4845 C.2       11 UNK         0.4932 
     34 O         -53.8444  -25.5821   18.2700 O.2       11 UNK        -0.5029 
     35 CA        -51.9248  -24.2530   17.6913 C.3       10 UNK         0.0280 
     36 CB        -52.0154  -23.6218   19.0975 C.3       10 UNK        -0.1976 
     37 N         -50.5375  -24.5906   17.3541 N.am      10 UNK        -0.4242 
     38 C         -49.7446  -25.5022   17.9409 C.2       10 UNK         0.5072 
     39 O         -50.0903  -26.1912   18.9020 O.2       10 UNK        -0.5224 
     40 CA        -48.3237  -25.6997   17.3679 C.3       9 UNK         0.0343 
     41 CB        -48.1701  -27.1151   16.7863 C.3       9 UNK        -0.2003 
     42 N         -47.9538  -24.7209   16.3410 N.am      9 UNK        -0.4272 
     43 C         -47.6293  -23.4420   16.5785 C.2       9 UNK         0.4988 
     44 O         -47.5074  -22.9647   17.7069 O.2       9 UNK        -0.5108 
     45 CA        -47.4621  -22.5277   15.3507 C.3       8 UNK         0.0248 
     46 CB        -46.0105  -22.5533   14.8466 C.3       8 UNK        -0.2001 
     47 N         -48.3825  -22.8575   14.2540 N.am      8 UNK        -0.4140 
     48 C         -49.7203  -22.7807   14.3431 C.2       8 UNK         0.5028 
     49 O         -50.3120  -22.3732   15.3420 O.2       8 UNK        -0.5428 
     50 CA        -50.5450  -23.2961   13.1528 C.3       7 UNK         0.0264 
     51 CB        -50.5895  -22.2491   12.0296 C.3       7 UNK        -0.1988 
     52 N         -50.0514  -24.5792   12.6436 N.am      7 UNK        -0.4454 
     53 C         -50.0672  -25.7235   13.3479 C.2       7 UNK         0.5027 
     54 O         -50.5996  -25.8264   14.4544 O.2       7 UNK        -0.5083 
     55 CA        -49.2938  -26.9355   12.7799 C.3       6 UNK         0.0844 
     56 C56       -50.1765  -27.9884   12.0724 C.3       14 UNK        -0.0967 
     57 S57       -51.0778  -27.4019   10.6043 S.3       14 UNK        -0.2604 
     58 C58       -51.1684  -28.9513    9.6595 C.3       14 UNK         0.0134 
     59 N         -48.1201  -26.5370   11.9985 N.am      6 UNK        -0.4116 
     60 C         -47.0145  -26.0342   12.5682 C.2       5 UNK         0.5034 
     61 O         -46.8866  -25.8670   13.7817 O.2       5 UNK        -0.5045 
     62 CA        -45.8732  -25.6139   11.6347 C.3       5 UNK         0.0224 
     63 CB        -45.1056  -26.8401   11.1158 C.3       5 UNK        -0.1978 
     64 N         -46.3504  -24.8040   10.5144 N.am      5 UNK        -0.4737 
     65 C         -46.8187  -23.5543   10.6393 C.2       4 UNK         0.5027 
     66 O         -46.9060  -22.9603   11.7131 O.2       4 UNK        -0.5211 
     67 CA        -47.2951  -22.8588    9.3539 C.3       4 UNK         0.0297 
     68 CB        -46.1154  -22.1822    8.6384 C.3       4 UNK        -0.1993 
     69 N         -47.9762  -23.7671    8.4287 N.am      4 UNK        -0.4486 
     70 C         -49.1265  -24.3978    8.7025 C.2       3 UNK         0.4961 
     71 O         -49.7368  -24.2798    9.7628 O.2       3 UNK        -0.5105 
     72 CA        -49.6660  -25.3459    7.6219 C.3       3 UNK         0.0299 
     73 CB        -50.4166  -24.5492    6.5425 C.3       3 UNK        -0.1972 
     74 N         -48.6321  -26.1820    7.0002 N.am      3 UNK        -0.4305 
     75 C         -47.8043  -27.0135    7.6493 C.2       2 UNK         0.5006 
     76 O         -47.8113  -27.1741    8.8721 O.2       2 UNK        -0.5106 
     77 CA        -46.8054  -27.7934    6.7731 C.3       2 UNK         0.0296 
     78 CB        -45.7004  -28.4738    7.6023 C.3       2 UNK        -0.2002 
     79 N         -47.4671  -28.8073    5.9484 N.am      2 UNK        -0.4032 
     80 C         -48.1675  -28.5699    4.8286 C.2       1 UNK         0.5000 
     81 O         -48.3650  -27.4371    4.3835 O.2       1 UNK        -0.5238 
     82 H82       -46.3058  -33.0055    4.4059 H         1 UNK         0.0889 
     83 H83       -44.8321  -32.0453    4.2629 H         1 UNK         0.0889 
     84 H84       -45.5645  -32.7596    2.8238 H         1 UNK         0.0889 
     85 H85       -48.1236  -31.7390    4.6896 H         1 UNK         0.3028 
     86 H86       -48.7642  -29.5247    3.0133 H         1 UNK         0.0864 
     87 H87       -50.3168  -31.2479    4.3187 H         1 UNK         0.0720 
     88 H88       -50.2457  -30.1197    5.6214 H         1 UNK         0.0720 
     89 H89       -52.5213  -27.2210    4.2566 H         1 UNK         0.0814 
     90 H90       -50.9102  -27.3091    4.9033 H         1 UNK         0.0814 
     91 H91       -50.5069  -28.2497    7.1212 H         1 UNK         0.1469 
     92 H92       -53.8555  -29.3393    9.5466 H         1 UNK         0.1381 
     93 H93       -54.4255  -28.4182    5.3916 H         1 UNK         0.1206 
     94 H94       -55.9913  -30.0142    8.2636 H         1 UNK         0.0813 
     95 H95       -56.2395  -29.3825    6.6608 H         1 UNK         0.0813 
     96 H96       -55.8991  -27.0886   10.4708 H         1 UNK         0.0638 
     97 H97       -55.8922  -28.8193   10.3190 H         1 UNK         0.0638 
     98 H98       -58.5337  -27.3181   10.3491 H         1 UNK         0.0568 
     99 H99       -59.8246  -30.6835   11.6579 H         1 UNK         0.3450 
    100 H100      -59.5146  -29.2106   12.5419 H         1 UNK         0.3450 
    101 H101      -58.3432  -26.6664   12.4187 H         1 UNK         0.2987 
    102 H102      -57.2775  -26.2243   14.4326 H         1 UNK         0.0766 
    103 H103      -58.4314  -27.3841   16.3367 H         1 UNK         0.0798 
    104 H104      -58.2626  -28.9313   15.5079 H         1 UNK         0.0798 
    105 H105      -59.2714  -27.6647   14.8226 H         1 UNK         0.0798 
    106 H106      -55.8729  -28.3932   15.8760 H         1 UNK         0.3198 
    107 H107      -53.8964  -27.8480   16.9153 H         1 UNK         0.0843 
    108 H108      -52.5579  -27.7874   14.1626 H         1 UNK         0.0831 
    109 H109      -53.3988  -29.1523   14.8776 H         1 UNK         0.0831 
    110 H110      -51.8772  -28.6056   15.5718 H         1 UNK         0.0831 
    111 H111      -51.9218  -25.9983   15.7945 H         1 UNK         0.3133 
    112 H112      -52.2255  -23.4880   16.9746 H         1 UNK         0.0566 
    113 H113      -51.3234  -22.7861   19.2015 H         1 UNK         0.0814 
    114 H114      -53.0176  -23.2365   19.2889 H         1 UNK         0.0814 
    115 H115      -51.7908  -24.3445   19.8824 H         1 UNK         0.0814 
    116 H116      -50.1638  -24.0763   16.5644 H         1 UNK         0.3091 
    117 H117      -47.6232  -25.5988   18.1994 H         1 UNK         0.0702 
    118 H118      -48.9062  -27.3104   16.0072 H         1 UNK         0.0785 
    119 H119      -48.3112  -27.8712   17.5596 H         1 UNK         0.0785 
    120 H120      -47.1782  -27.2680   16.3604 H         1 UNK         0.0785 
    121 H121      -47.9495  -25.0474   15.3806 H         1 UNK         0.2998 
    122 H122      -47.6887  -21.5087   15.6709 H         1 UNK         0.0697 
    123 H123      -45.7285  -23.5376   14.4724 H         1 UNK         0.0825 
    124 H124      -45.3143  -22.2958   15.6458 H         1 UNK         0.0825 
    125 H125      -45.8586  -21.8343   14.0415 H         1 UNK         0.0825 
    126 H126      -47.9589  -23.1452   13.3757 H         1 UNK         0.3029 
    127 H127      -51.5670  -23.4538   13.5051 H         1 UNK         0.0897 
    128 H128      -51.2577  -22.5600   11.2263 H         1 UNK         0.0792 
    129 H129      -50.9562  -21.2915   12.4018 H         1 UNK         0.0792 
    130 H130      -49.6035  -22.0764   11.5979 H         1 UNK         0.0792 
    131 H131      -49.6794  -24.5822   11.6970 H         1 UNK         0.3086 
    132 H132      -48.9036  -27.4562   13.6567 H         1 UNK         0.0583 
    133 H133      -49.5469  -28.8319   11.7844 H         1 UNK         0.1020 
    134 H134      -50.9008  -28.4034   12.7724 H         1 UNK         0.1020 
    135 H135      -50.1648  -29.2362    9.3389 H         1 UNK         0.0694 
    136 H136      -51.5293  -29.7530   10.3060 H         1 UNK         0.0694 
    137 H137      -48.1699  -26.6396   10.9904 H         1 UNK         0.2989 
    138 H138      -45.1793  -25.0038   12.2179 H         1 UNK         0.1055 
    139 H139      -44.6825  -27.4100   11.9441 H         1 UNK         0.0806 
    140 H140      -44.2782  -26.5480   10.4690 H         1 UNK         0.0806 
    141 H141      -45.7501  -27.5174   10.5553 H         1 UNK         0.0806 
    142 H142      -46.3805  -25.2457    9.6066 H         1 UNK         0.3061 
    143 H143      -48.0075  -22.0835    9.6435 H         1 UNK         0.0734 
    144 H144      -46.4501  -21.6110    7.7723 H         1 UNK         0.0832 
    145 H145      -45.6049  -21.4856    9.3052 H         1 UNK         0.0832 
    146 H146      -45.3757  -22.9082    8.2987 H         1 UNK         0.0832 
    147 H147      -47.5428  -23.9248    7.5306 H         1 UNK         0.3156 
    148 H148      -50.3808  -26.0112    8.1063 H         1 UNK         0.0589 
    149 H149      -49.7448  -23.9118    5.9665 H         1 UNK         0.0808 
    150 H150      -50.9349  -25.2060    5.8464 H         1 UNK         0.0808 
    151 H151      -51.1732  -23.9039    6.9914 H         1 UNK         0.0808 
    152 H152      -48.5775  -26.1741    5.9864 H         1 UNK         0.3098 
    153 H153      -46.3200  -27.0726    6.1114 H         1 UNK         0.0720 
    154 H154      -44.9839  -28.9890    6.9621 H         1 UNK         0.0791 
    155 H155      -46.1081  -29.2024    8.3045 H         1 UNK         0.0791 
    156 H156      -45.1406  -27.7380    8.1803 H         1 UNK         0.0791 
    157 H157      -47.3632  -29.7656    6.2483 H         1 UNK         0.3028 
@<TRIPOS>BOND
     1    1    2 1    
     2    1   82 1    
     3    1   83 1    
     4    1   84 1    
     5    2    3 2    
     6    2    4 am   BACKBONE|DICT|INTERRES
     7    4    5 1    
     8    4   85 1    
     9    5    6 1    
    10    5   80 1    
    11    5   86 1    
    12    6    7 1    
    13    6   87 1    
    14    6   88 1    
    15    7    8 1    
    16    8    9 1    
    17    8   89 1    
    18    8   90 1    
    19    9   10 ar   
    20    9   14 ar   
    21   10   11 ar   
    22   10   91 1    
    23   11   12 ar   
    24   11   58 1    
    25   12   13 ar   
    26   12   92 1    
    27   13   14 ar   
    28   13   15 1    
    29   14   93 1    
    30   15   16 1    
    31   15   94 1    
    32   15   95 1    
    33   16   17 1    
    34   17   18 1    
    35   17   96 1    
    36   17   97 1    
    37   18   19 1    
    38   18   22 1    
    39   18   98 1    
    40   19   20 am   BACKBONE|DICT|INTERRES
    41   19   21 2    
    42   20   99 1    
    43   20  100 1    
    44   22   23 am   BACKBONE|DICT|INTERRES
    45   22  101 1    
    46   23   24 2    
    47   23   25 1    
    48   25   26 1    
    49   25   27 1    
    50   25  102 1    
    51   26  103 1    
    52   26  104 1    
    53   26  105 1    
    54   27   28 am   BACKBONE|DICT|INTERRES
    55   27  106 1    
    56   28   29 2    
    57   28   30 1    
    58   30   31 1    
    59   30   32 1    
    60   30  107 1    
    61   31  108 1    
    62   31  109 1    
    63   31  110 1    
    64   32   33 am   BACKBONE|DICT|INTERRES
    65   32  111 1    
    66   33   34 2    
    67   33   35 1    
    68   35   36 1    
    69   35   37 1    
    70   35  112 1    
    71   36  113 1    
    72   36  114 1    
    73   36  115 1    
    74   37   38 am   BACKBONE|DICT|INTERRES
    75   37  116 1    
    76   38   39 2    
    77   38   40 1    
    78   40   41 1    
    79   40   42 1    
    80   40  117 1    
    81   41  118 1    
    82   41  119 1    
    83   41  120 1    
    84   42   43 am   BACKBONE|DICT|INTERRES
    85   42  121 1    
    86   43   44 2    
    87   43   45 1    
    88   45   46 1    
    89   45   47 1    
    90   45  122 1    
    91   46  123 1    
    92   46  124 1    
    93   46  125 1    
    94   47   48 am   BACKBONE|DICT|INTERRES
    95   47  126 1    
    96   48   49 2    
    97   48   50 1    
    98   50   51 1    
    99   50   52 1    
   100   50  127 1    
   101   51  128 1    
   102   51  129 1    
   103   51  130 1    
   104   52   53 am   BACKBONE|DICT|INTERRES
   105   52  131 1    
   106   53   54 2    
   107   53   55 1    
   108   55   56 1    
   109   55   59 1    
   110   55  132 1    
   111   56   57 1    
   112   56  133 1    
   113   56  134 1    
   114   57   58 1    
   115   58  135 1    
   116   58  136 1    
   117   59   60 am   BACKBONE|DICT|INTERRES
   118   59  137 1    
   119   60   61 2    
   120   60   62 1    
   121   62   63 1    
   122   62   64 1    
   123   62  138 1    
   124   63  139 1    
   125   63  140 1    
   126   63  141 1    
   127   64   65 am   BACKBONE|DICT|INTERRES
   128   64  142 1    
   129   65   66 2    
   130   65   67 1    
   131   67   68 1    
   132   67   69 1    
   133   67  143 1    
   134   68  144 1    
   135   68  145 1    
   136   68  146 1    
   137   69   70 am   BACKBONE|DICT|INTERRES
   138   69  147 1    
   139   70   71 2    
   140   70   72 1    
   141   72   73 1    
   142   72   74 1    
   143   72  148 1    
   144   73  149 1    
   145   73  150 1    
   146   73  151 1    
   147   74   75 am   BACKBONE|DICT|INTERRES
   148   74  152 1    
   149   75   76 2    
   150   75   77 1    
   151   77   78 1    
   152   77   79 1    
   153   77  153 1    
   154   78  154 1    
   155   78  155 1    
   156   78  156 1    
   157   79   80 am   BACKBONE|DICT|INTERRES
   158   79  157 1    
   159   80   81 2    
@<TRIPOS>SUBSTRUCTURE
     1 UNK         1 GROUP             0       ****    0 ROOT    
