@<TRIPOS>MOLECULE
3R207
157   159    1
SMALL
USER_CHARGES


@<TRIPOS>ATOM
      1 CA        -50.9734  -23.5818    3.1750 C.3       0 UNK        -0.1975 
      2 C         -50.9813  -24.6921    4.2151 C.2       0 UNK         0.4852 
      3 O         -50.7650  -24.4224    5.3969 O.2       0 UNK        -0.5216 
      4 N         -51.2350  -25.9351    3.7856 N.am      1 UNK        -0.4461 
      5 CA        -51.2237  -27.1304    4.6365 C.3       1 UNK         0.0864 
      6 C6        -51.9760  -28.3163    3.9848 C.3       14 UNK        -0.0898 
      7 S7        -53.7360  -27.9189    3.7049 S.3       14 UNK        -0.2598 
      8 C8        -54.5919  -29.1441    4.7582 C.3       14 UNK         0.0286 
      9 C9        -54.3290  -29.0348    6.2624 C.ar      14 UNK        -0.0844 
     10 C10       -53.9547  -27.8325    6.8791 C.ar      14 UNK        -0.0881 
     11 C11       -53.7136  -27.7840    8.2551 C.ar      14 UNK        -0.0643 
     12 C12       -53.9227  -28.9248    9.0290 C.ar      14 UNK        -0.0930 
     13 C13       -54.3099  -30.1295    8.4372 C.ar      14 UNK        -0.0827 
     14 C14       -54.5004  -30.1772    7.0530 C.ar      14 UNK        -0.1249 
     15 C15       -54.5725  -31.3633    9.2924 C.3       14 UNK         0.0141 
     16 S16       -53.0771  -32.3487    9.6656 S.3       14 UNK        -0.2313 
     17 C17       -51.9599  -31.2381   10.5982 C.3       14 UNK        -0.0915 
     18 CA        -52.3153  -31.0692   12.1023 C.3       13 UNK         0.0968 
     19 C         -51.1823  -30.2978   12.8336 C.2       13 UNK         0.5732 
     20 N         -50.3296  -30.9927   13.5743 N.am      13 UNK        -0.7310 
     21 O         -51.0480  -29.0861   12.6938 O.2       13 UNK        -0.5035 
     22 N         -53.6234  -30.4217   12.2512 N.am      13 UNK        -0.4233 
     23 C         -54.2479  -30.0910   13.3853 C.2       13 UNK         0.4989 
     24 O         -53.8459  -30.3664   14.5178 O.2       13 UNK        -0.4996 
     25 CA        -55.5960  -29.3692   13.2012 C.3       12 UNK         0.0216 
     26 CB        -56.7602  -30.3686   13.3022 C.3       12 UNK        -0.1964 
     27 N         -55.7918  -28.2957   14.1771 N.am      12 UNK        -0.4276 
     28 C         -55.0495  -27.1831   14.2408 C.2       12 UNK         0.5020 
     29 O         -54.1506  -26.9133   13.4380 O.2       12 UNK        -0.5489 
     30 CA        -55.3627  -26.2056   15.3856 C.3       11 UNK         0.0294 
     31 CB        -55.4448  -26.9218   16.7526 C.3       11 UNK        -0.2019 
     32 N         -54.3016  -25.2059   15.4075 N.am      11 UNK        -0.4493 
     33 C         -54.2736  -24.0555   16.0888 C.2       11 UNK         0.4932 
     34 O         -55.2311  -23.6089   16.7231 O.2       11 UNK        -0.5029 
     35 CA        -52.9227  -23.3077   16.0769 C.3       10 UNK         0.0280 
     36 CB        -52.8150  -22.2229   17.1691 C.3       10 UNK        -0.1976 
     37 N         -51.7843  -24.2365   16.1393 N.am      10 UNK        -0.4242 
     38 C         -51.5339  -25.1380   17.1049 C.2       10 UNK         0.5072 
     39 O         -52.1573  -25.2154   18.1646 O.2       10 UNK        -0.5224 
     40 CA        -50.4237  -26.1608   16.8250 C.3       9 UNK         0.0343 
     41 CB        -50.9700  -27.3139   15.9644 C.3       9 UNK        -0.2003 
     42 N         -49.2539  -25.5718   16.1744 N.am      9 UNK        -0.4272 
     43 C         -48.3799  -24.7575   16.7818 C.2       9 UNK         0.4988 
     44 O         -48.4588  -24.4238   17.9649 O.2       9 UNK        -0.5108 
     45 CA        -47.2131  -24.2311   15.9302 C.3       8 UNK         0.0248 
     46 CB        -46.1180  -25.3007   15.7894 C.3       8 UNK        -0.2001 
     47 N         -47.6366  -23.7705   14.6054 N.am      8 UNK        -0.4140 
     48 C         -48.3986  -22.6863   14.3961 C.2       8 UNK         0.5028 
     49 O         -48.7909  -21.9397   15.2936 O.2       8 UNK        -0.5428 
     50 CA        -48.7976  -22.3757   12.9440 C.3       7 UNK         0.0264 
     51 CB        -47.6628  -21.6335   12.2202 C.3       7 UNK        -0.1988 
     52 N         -49.1760  -23.5638   12.1764 N.am      7 UNK        -0.4454 
     53 C         -50.2361  -24.3426   12.4445 C.2       7 UNK         0.5027 
     54 O         -51.0269  -24.1312   13.3650 O.2       7 UNK        -0.5083 
     55 CA        -50.4169  -25.5946   11.5619 C.3       6 UNK         0.0844 
     56 C56       -51.0165  -25.2011   10.1855 C.3       14 UNK        -0.0967 
     57 S57       -51.3871  -26.6410    9.1292 S.3       14 UNK        -0.2604 
     58 C58       -53.1903  -26.5205    8.9191 C.3       14 UNK         0.0134 
     59 N         -49.1662  -26.3566   11.4506 N.am      6 UNK        -0.4116 
     60 C         -48.4565  -26.8402   12.4832 C.2       5 UNK         0.5034 
     61 O         -48.7752  -26.7190   13.6644 O.2       5 UNK        -0.5045 
     62 CA        -47.1163  -27.5089   12.1538 C.3       5 UNK         0.0224 
     63 CB        -47.3199  -28.9520   11.6632 C.3       5 UNK        -0.1978 
     64 N         -46.3649  -26.7326   11.1673 N.am      5 UNK        -0.4737 
     65 C         -45.7763  -25.5566   11.4255 C.2       4 UNK         0.5027 
     66 O         -45.7619  -25.0291   12.5372 O.2       4 UNK        -0.5211 
     67 CA        -45.1235  -24.8295   10.2376 C.3       4 UNK         0.0297 
     68 CB        -43.7039  -25.3636    9.9906 C.3       4 UNK        -0.1993 
     69 N         -45.9080  -24.9255    9.0035 N.am      4 UNK        -0.4486 
     70 C         -47.1208  -24.3802    8.8404 C.2       3 UNK         0.4961 
     71 O         -47.7026  -23.7271    9.7066 O.2       3 UNK        -0.5105 
     72 CA        -47.8239  -24.6335    7.4968 C.3       3 UNK         0.0299 
     73 CB        -47.2888  -23.6771    6.4192 C.3       3 UNK        -0.1972 
     74 N         -47.7843  -26.0120    6.9897 N.am      3 UNK        -0.4305 
     75 C         -48.0302  -27.1334    7.6840 C.2       2 UNK         0.5006 
     76 O         -48.0837  -27.1887    8.9108 O.2       2 UNK        -0.5106 
     77 CA        -48.3594  -28.3870    6.8558 C.3       2 UNK         0.0296 
     78 CB        -48.4622  -29.6584    7.7206 C.3       2 UNK        -0.2002 
     79 N         -49.6405  -28.1677    6.1844 N.am      2 UNK        -0.4032 
     80 C         -49.7843  -27.5169    5.0237 C.2       1 UNK         0.5000 
     81 O         -48.8350  -27.1982    4.3004 O.2       1 UNK        -0.5238 
     82 H82       -51.1873  -23.9582    2.1748 H         1 UNK         0.0889 
     83 H83       -49.9981  -23.0962    3.1538 H         1 UNK         0.0889 
     84 H84       -51.7233  -22.8309    3.4227 H         1 UNK         0.0889 
     85 H85       -51.3936  -26.1016    2.8025 H         1 UNK         0.3028 
     86 H86       -51.7286  -26.8675    5.5662 H         1 UNK         0.0864 
     87 H87       -51.5236  -28.5812    3.0273 H         1 UNK         0.0720 
     88 H88       -51.9083  -29.2089    4.6100 H         1 UNK         0.0720 
     89 H89       -54.3194  -30.1405    4.4062 H         1 UNK         0.0814 
     90 H90       -55.6654  -29.0454    4.5929 H         1 UNK         0.0814 
     91 H91       -53.8372  -26.9327    6.2931 H         1 UNK         0.1469 
     92 H92       -53.7555  -28.8612   10.0928 H         1 UNK         0.1381 
     93 H93       -54.8045  -31.1067    6.5905 H         1 UNK         0.1206 
     94 H94       -55.0934  -31.0878   10.2075 H         1 UNK         0.0813 
     95 H95       -55.2699  -32.0183    8.7677 H         1 UNK         0.0813 
     96 H96       -51.8824  -30.2743   10.0953 H         1 UNK         0.0638 
     97 H97       -50.9650  -31.6791   10.5108 H         1 UNK         0.0638 
     98 H98       -52.4000  -32.0607   12.5507 H         1 UNK         0.0568 
     99 H99       -49.5880  -30.5026   14.0472 H         1 UNK         0.3450 
    100 H100      -50.4254  -31.9895   13.6876 H         1 UNK         0.3450 
    101 H101      -54.0557  -30.1578   11.3827 H         1 UNK         0.2987 
    102 H102      -55.6200  -28.9145   12.2081 H         1 UNK         0.0766 
    103 H103      -57.7191  -29.8832   13.1188 H         1 UNK         0.0798 
    104 H104      -56.8036  -30.8394   14.2854 H         1 UNK         0.0798 
    105 H105      -56.6570  -31.1661   12.5649 H         1 UNK         0.0798 
    106 H106      -56.4894  -28.4547   14.8891 H         1 UNK         0.3198 
    107 H107      -56.3108  -25.7109   15.1655 H         1 UNK         0.0843 
    108 H108      -56.2757  -27.6263   16.7899 H         1 UNK         0.0831 
    109 H109      -55.5999  -26.2156   17.5683 H         1 UNK         0.0831 
    110 H110      -54.5308  -27.4773   16.9679 H         1 UNK         0.0831 
    111 H111      -53.5093  -25.4586   14.8270 H         1 UNK         0.3133 
    112 H112      -52.8564  -22.8093   15.1089 H         1 UNK         0.0566 
    113 H113      -51.8502  -21.7171   17.1291 H         1 UNK         0.0814 
    114 H114      -53.5858  -21.4622   17.0403 H         1 UNK         0.0814 
    115 H115      -52.9347  -22.6398   18.1695 H         1 UNK         0.0814 
    116 H116      -51.2319  -24.2802   15.2861 H         1 UNK         0.3091 
    117 H117      -50.1044  -26.5771   17.7828 H         1 UNK         0.0702 
    118 H118      -50.2210  -28.0931   15.8228 H         1 UNK         0.0785 
    119 H119      -51.2796  -26.9723   14.9751 H         1 UNK         0.0785 
    120 H120      -51.8379  -27.7793   16.4337 H         1 UNK         0.0785 
    121 H121      -49.0863  -25.8457   15.2065 H         1 UNK         0.2998 
    122 H122      -46.7802  -23.3774   16.4560 H         1 UNK         0.0697 
    123 H123      -46.4701  -26.1693   15.2323 H         1 UNK         0.0825 
    124 H124      -45.7856  -25.6516   16.7672 H         1 UNK         0.0825 
    125 H125      -45.2430  -24.9054   15.2730 H         1 UNK         0.0825 
    126 H126      -47.3106  -24.3072   13.8086 H         1 UNK         0.3029 
    127 H127      -49.6676  -21.7163   12.9780 H         1 UNK         0.0897 
    128 H128      -47.9699  -21.3168   11.2232 H         1 UNK         0.0792 
    129 H129      -47.3677  -20.7378   12.7684 H         1 UNK         0.0792 
    130 H130      -46.7760  -22.2598   12.1124 H         1 UNK         0.0792 
    131 H131      -48.5930  -23.7855   11.3712 H         1 UNK         0.3086 
    132 H132      -51.1346  -26.2443   12.0682 H         1 UNK         0.0583 
    133 H133      -51.9299  -24.6192   10.3235 H         1 UNK         0.1020 
    134 H134      -50.3302  -24.5532    9.6383 H         1 UNK         0.1020 
    135 H135      -53.6664  -26.3875    9.8923 H         1 UNK         0.0694 
    136 H136      -53.4317  -25.6389    8.3233 H         1 UNK         0.0694 
    137 H137      -48.8291  -26.5426   10.5089 H         1 UNK         0.2989 
    138 H138      -46.5282  -27.5470   13.0735 H         1 UNK         0.1055 
    139 H139      -47.8104  -29.5527   12.4299 H         1 UNK         0.0806 
    140 H140      -46.3693  -29.4325   11.4322 H         1 UNK         0.0806 
    141 H141      -47.9468  -28.9988   10.7729 H         1 UNK         0.0806 
    142 H142      -46.4529  -27.0287   10.2024 H         1 UNK         0.3061 
    143 H143      -45.0475  -23.7725   10.5023 H         1 UNK         0.0734 
    144 H144      -43.0963  -25.2832   10.8933 H         1 UNK         0.0832 
    145 H145      -43.7109  -26.4137    9.6959 H         1 UNK         0.0832 
    146 H146      -43.1962  -24.7974    9.2096 H         1 UNK         0.0832 
    147 H147      -45.5165  -25.4628    8.2436 H         1 UNK         0.3156 
    148 H148      -48.8798  -24.4005    7.6464 H         1 UNK         0.0589 
    149 H149      -46.2548  -23.9017    6.1552 H         1 UNK         0.0808 
    150 H150      -47.8880  -23.7314    5.5098 H         1 UNK         0.0808 
    151 H151      -47.3219  -22.6421    6.7630 H         1 UNK         0.0808 
    152 H152      -47.7883  -26.1026    5.9810 H         1 UNK         0.3098 
    153 H153      -47.5639  -28.5348    6.1223 H         1 UNK         0.0720 
    154 H154      -48.6751  -30.5361    7.1103 H         1 UNK         0.0791 
    155 H155      -49.2486  -29.5757    8.4729 H         1 UNK         0.0791 
    156 H156      -47.5258  -29.8482    8.2469 H         1 UNK         0.0791 
    157 H157      -50.4638  -28.3570    6.7396 H         1 UNK         0.3028 
@<TRIPOS>BOND
     1    1    2 1    
     2    1   82 1    
     3    1   83 1    
     4    1   84 1    
     5    2    3 2    
     6    2    4 am   BACKBONE|DICT|INTERRES
     7    4    5 1    
     8    4   85 1    
     9    5    6 1    
    10    5   80 1    
    11    5   86 1    
    12    6    7 1    
    13    6   87 1    
    14    6   88 1    
    15    7    8 1    
    16    8    9 1    
    17    8   89 1    
    18    8   90 1    
    19    9   10 ar   
    20    9   14 ar   
    21   10   11 ar   
    22   10   91 1    
    23   11   12 ar   
    24   11   58 1    
    25   12   13 ar   
    26   12   92 1    
    27   13   14 ar   
    28   13   15 1    
    29   14   93 1    
    30   15   16 1    
    31   15   94 1    
    32   15   95 1    
    33   16   17 1    
    34   17   18 1    
    35   17   96 1    
    36   17   97 1    
    37   18   19 1    
    38   18   22 1    
    39   18   98 1    
    40   19   20 am   BACKBONE|DICT|INTERRES
    41   19   21 2    
    42   20   99 1    
    43   20  100 1    
    44   22   23 am   BACKBONE|DICT|INTERRES
    45   22  101 1    
    46   23   24 2    
    47   23   25 1    
    48   25   26 1    
    49   25   27 1    
    50   25  102 1    
    51   26  103 1    
    52   26  104 1    
    53   26  105 1    
    54   27   28 am   BACKBONE|DICT|INTERRES
    55   27  106 1    
    56   28   29 2    
    57   28   30 1    
    58   30   31 1    
    59   30   32 1    
    60   30  107 1    
    61   31  108 1    
    62   31  109 1    
    63   31  110 1    
    64   32   33 am   BACKBONE|DICT|INTERRES
    65   32  111 1    
    66   33   34 2    
    67   33   35 1    
    68   35   36 1    
    69   35   37 1    
    70   35  112 1    
    71   36  113 1    
    72   36  114 1    
    73   36  115 1    
    74   37   38 am   BACKBONE|DICT|INTERRES
    75   37  116 1    
    76   38   39 2    
    77   38   40 1    
    78   40   41 1    
    79   40   42 1    
    80   40  117 1    
    81   41  118 1    
    82   41  119 1    
    83   41  120 1    
    84   42   43 am   BACKBONE|DICT|INTERRES
    85   42  121 1    
    86   43   44 2    
    87   43   45 1    
    88   45   46 1    
    89   45   47 1    
    90   45  122 1    
    91   46  123 1    
    92   46  124 1    
    93   46  125 1    
    94   47   48 am   BACKBONE|DICT|INTERRES
    95   47  126 1    
    96   48   49 2    
    97   48   50 1    
    98   50   51 1    
    99   50   52 1    
   100   50  127 1    
   101   51  128 1    
   102   51  129 1    
   103   51  130 1    
   104   52   53 am   BACKBONE|DICT|INTERRES
   105   52  131 1    
   106   53   54 2    
   107   53   55 1    
   108   55   56 1    
   109   55   59 1    
   110   55  132 1    
   111   56   57 1    
   112   56  133 1    
   113   56  134 1    
   114   57   58 1    
   115   58  135 1    
   116   58  136 1    
   117   59   60 am   BACKBONE|DICT|INTERRES
   118   59  137 1    
   119   60   61 2    
   120   60   62 1    
   121   62   63 1    
   122   62   64 1    
   123   62  138 1    
   124   63  139 1    
   125   63  140 1    
   126   63  141 1    
   127   64   65 am   BACKBONE|DICT|INTERRES
   128   64  142 1    
   129   65   66 2    
   130   65   67 1    
   131   67   68 1    
   132   67   69 1    
   133   67  143 1    
   134   68  144 1    
   135   68  145 1    
   136   68  146 1    
   137   69   70 am   BACKBONE|DICT|INTERRES
   138   69  147 1    
   139   70   71 2    
   140   70   72 1    
   141   72   73 1    
   142   72   74 1    
   143   72  148 1    
   144   73  149 1    
   145   73  150 1    
   146   73  151 1    
   147   74   75 am   BACKBONE|DICT|INTERRES
   148   74  152 1    
   149   75   76 2    
   150   75   77 1    
   151   77   78 1    
   152   77   79 1    
   153   77  153 1    
   154   78  154 1    
   155   78  155 1    
   156   78  156 1    
   157   79   80 am   BACKBONE|DICT|INTERRES
   158   79  157 1    
   159   80   81 2    
@<TRIPOS>SUBSTRUCTURE
     1 UNK         1 GROUP             0       ****    0 ROOT    
