@<TRIPOS>MOLECULE
3R207
157   159    1
SMALL
USER_CHARGES


@<TRIPOS>ATOM
      1 CA        -44.3942  -28.0438   10.9819 C.3       0 UNK        -0.1975 
      2 C         -45.6755  -28.0243   10.1610 C.2       0 UNK         0.4852 
      3 O         -46.6804  -27.4969   10.6304 O.2       0 UNK        -0.5216 
      4 N         -45.6292  -28.5935    8.9497 N.am      1 UNK        -0.4461 
      5 CA        -46.7230  -28.7677    7.9838 C.3       1 UNK         0.0864 
      6 C6        -47.8605  -29.7109    8.4964 C.3       14 UNK        -0.0898 
      7 S7        -49.3090  -28.9348    9.3037 S.3       14 UNK        -0.2598 
      8 C8        -50.5896  -29.1684    8.0298 C.3       14 UNK         0.0286 
      9 C9        -51.7022  -28.1483    8.1920 C.ar      14 UNK        -0.0844 
     10 C10       -51.4777  -26.8236    7.8178 C.ar      14 UNK        -0.0881 
     11 C11       -52.4623  -25.8478    7.9933 C.ar      14 UNK        -0.0643 
     12 C12       -53.6994  -26.2234    8.5292 C.ar      14 UNK        -0.0930 
     13 C13       -53.9455  -27.5528    8.8913 C.ar      14 UNK        -0.0827 
     14 C14       -52.9441  -28.5127    8.7154 C.ar      14 UNK        -0.1249 
     15 C15       -55.2951  -27.9586    9.4619 C.3       14 UNK         0.0141 
     16 S16       -55.4292  -27.5478   11.2291 S.3       14 UNK        -0.2313 
     17 C17       -57.0172  -28.3531   11.6398 C.3       14 UNK        -0.0915 
     18 CA        -56.9523  -29.3191   12.8590 C.3       13 UNK         0.0968 
     19 C         -56.0119  -30.5444   12.6894 C.2       13 UNK         0.5732 
     20 N         -56.0379  -31.2026   11.5377 N.am      13 UNK        -0.7310 
     21 O         -55.2863  -30.9367   13.6006 O.2       13 UNK        -0.5035 
     22 N         -56.7100  -28.5989   14.1152 N.am      13 UNK        -0.4233 
     23 C         -57.6664  -28.0199   14.8516 C.2       13 UNK         0.4989 
     24 O         -58.8597  -28.0328   14.5413 O.2       13 UNK        -0.4996 
     25 CA        -57.2325  -27.2782   16.1321 C.3       12 UNK         0.0216 
     26 CB        -58.3683  -27.1508   17.1706 C.3       12 UNK        -0.1964 
     27 N         -56.0165  -27.8160   16.7491 N.am      12 UNK        -0.4276 
     28 C         -55.8219  -29.0359   17.2757 C.2       12 UNK         0.5020 
     29 O         -56.6995  -29.8969   17.3522 O.2       12 UNK        -0.5489 
     30 CA        -54.4081  -29.3610   17.8009 C.3       11 UNK         0.0294 
     31 CB        -53.8527  -30.6319   17.1337 C.3       11 UNK        -0.2019 
     32 N         -53.4690  -28.2607   17.5673 N.am      11 UNK        -0.4493 
     33 C         -53.1722  -27.2948   18.4484 C.2       11 UNK         0.4932 
     34 O         -53.5780  -27.2802   19.6103 O.2       11 UNK        -0.5029 
     35 CA        -52.3036  -26.1268   17.9420 C.3       10 UNK         0.0280 
     36 CB        -50.8326  -26.3438   18.3291 C.3       10 UNK        -0.1976 
     37 N         -52.4103  -25.9185   16.4926 N.am      10 UNK        -0.4242 
     38 C         -53.5148  -25.4595   15.8789 C.2       10 UNK         0.5072 
     39 O         -54.5261  -25.1076   16.4855 O.2       10 UNK        -0.5224 
     40 CA        -53.5418  -25.4559   14.3381 C.3       9 UNK         0.0343 
     41 CB        -53.1782  -24.0669   13.7937 C.3       9 UNK        -0.2003 
     42 N         -52.6695  -26.4683   13.7387 N.am      9 UNK        -0.4272 
     43 C         -52.8166  -27.7912   13.9193 C.2       9 UNK         0.4988 
     44 O         -53.7555  -28.2793   14.5486 O.2       9 UNK        -0.5108 
     45 CA        -51.7178  -28.7268   13.3764 C.3       8 UNK         0.0248 
     46 CB        -52.1688  -29.3634   12.0572 C.3       8 UNK        -0.2001 
     47 N         -50.4210  -28.0783   13.1643 N.am      8 UNK        -0.4140 
     48 C         -49.7036  -27.4339   14.0956 C.2       8 UNK         0.5028 
     49 O         -50.0243  -27.3703   15.2826 O.2       8 UNK        -0.5428 
     50 CA        -48.4623  -26.6672   13.6079 C.3       7 UNK         0.0264 
     51 CB        -47.1946  -27.5109   13.8121 C.3       7 UNK        -0.1988 
     52 N         -48.5445  -26.2267   12.2079 N.am      7 UNK        -0.4454 
     53 C         -49.4766  -25.3960   11.7153 C.2       7 UNK         0.5027 
     54 O         -50.3998  -24.9482   12.3980 O.2       7 UNK        -0.5083 
     55 CA        -49.3622  -25.0131   10.2222 C.3       6 UNK         0.0844 
     56 C56       -50.4584  -23.9995    9.7858 C.3       14 UNK        -0.0967 
     57 S57       -50.5266  -23.7865    7.9740 S.3       14 UNK        -0.2604 
     58 C58       -52.2102  -24.3944    7.5936 C.3       14 UNK         0.0134 
     59 N         -48.0050  -24.5808    9.8634 N.am      6 UNK        -0.4116 
     60 C         -47.3288  -23.5511   10.3947 C.2       5 UNK         0.5034 
     61 O         -47.7598  -22.8234   11.2901 O.2       5 UNK        -0.5045 
     62 CA        -45.9388  -23.2640    9.8105 C.3       5 UNK         0.0224 
     63 CB        -44.9546  -24.4161   10.0604 C.3       5 UNK        -0.1978 
     64 N         -46.0105  -22.9733    8.3786 N.am      5 UNK        -0.4737 
     65 C         -46.2966  -21.7685    7.8685 C.2       4 UNK         0.5027 
     66 O         -46.5316  -20.7827    8.5689 O.2       4 UNK        -0.5211 
     67 CA        -46.3408  -21.6068    6.3338 C.3       4 UNK         0.0297 
     68 CB        -45.4381  -20.4479    5.8614 C.3       4 UNK        -0.1993 
     69 N         -46.0747  -22.8239    5.5546 N.am      4 UNK        -0.4486 
     70 C         -44.9455  -23.5380    5.4483 C.2       3 UNK         0.4961 
     71 O         -43.9049  -23.2716    6.0504 O.2       3 UNK        -0.5105 
     72 CA        -45.0165  -24.7821    4.5342 C.3       3 UNK         0.0299 
     73 CB        -43.6917  -25.5669    4.4978 C.3       3 UNK        -0.1972 
     74 N         -46.0950  -25.6956    4.9272 N.am      3 UNK        -0.4305 
     75 C         -47.4058  -25.4953    4.7321 C.2       2 UNK         0.5006 
     76 O         -47.8484  -24.5250    4.1144 O.2       2 UNK        -0.5106 
     77 CA        -48.4015  -26.4967    5.3483 C.3       2 UNK         0.0296 
     78 CB        -49.3186  -27.1041    4.2731 C.3       2 UNK        -0.2002 
     79 N         -47.8099  -27.5840    6.1389 N.am      2 UNK        -0.4032 
     80 C         -47.2054  -27.4488    7.3283 C.2       1 UNK         0.5000 
     81 O         -47.0117  -26.3522    7.8603 O.2       1 UNK        -0.5238 
     82 H82       -44.0942  -27.0294   11.2401 H         1 UNK         0.0889 
     83 H83       -43.5707  -28.5145   10.4455 H         1 UNK         0.0889 
     84 H84       -44.5552  -28.5952   11.9078 H         1 UNK         0.0889 
     85 H85       -44.7429  -28.9665    8.6400 H         1 UNK         0.3028 
     86 H86       -46.2314  -29.3108    7.1746 H         1 UNK         0.0864 
     87 H87       -47.4486  -30.4399    9.1959 H         1 UNK         0.0720 
     88 H88       -48.2219  -30.3131    7.6616 H         1 UNK         0.0720 
     89 H89       -50.9784  -30.1860    8.0912 H         1 UNK         0.0814 
     90 H90       -50.1569  -29.0608    7.0347 H         1 UNK         0.0814 
     91 H91       -50.5160  -26.5507    7.4159 H         1 UNK         0.1469 
     92 H92       -54.4747  -25.4821    8.6675 H         1 UNK         0.1381 
     93 H93       -53.1259  -29.5393    9.0031 H         1 UNK         0.1206 
     94 H94       -56.0948  -27.4593    8.9128 H         1 UNK         0.0813 
     95 H95       -55.4494  -29.0303    9.3269 H         1 UNK         0.0813 
     96 H96       -57.7456  -27.5647   11.8344 H         1 UNK         0.0638 
     97 H97       -57.4015  -28.8807   10.7661 H         1 UNK         0.0638 
     98 H98       -57.9369  -29.7821   12.9457 H         1 UNK         0.0568 
     99 H99       -55.4444  -32.0091   11.4269 H         1 UNK         0.3450 
    100 H100      -56.6462  -30.9208   10.7866 H         1 UNK         0.3450 
    101 H101      -55.7410  -28.5855   14.4227 H         1 UNK         0.2987 
    102 H102      -56.9766  -26.2683   15.8088 H         1 UNK         0.0766 
    103 H103      -59.2184  -26.6061   16.7580 H         1 UNK         0.0798 
    104 H104      -58.0374  -26.6068   18.0553 H         1 UNK         0.0798 
    105 H105      -58.7339  -28.1262   17.4929 H         1 UNK         0.0798 
    106 H106      -55.2295  -27.1794   16.7493 H         1 UNK         0.3198 
    107 H107      -54.4972  -29.5515   18.8725 H         1 UNK         0.0843 
    108 H108      -53.7924  -30.5268   16.0497 H         1 UNK         0.0831 
    109 H109      -54.4910  -31.4922   17.3389 H         1 UNK         0.0831 
    110 H110      -52.8567  -30.8734   17.5046 H         1 UNK         0.0831 
    111 H111      -53.1219  -28.1795   16.6187 H         1 UNK         0.3133 
    112 H112      -52.6514  -25.2177   18.4371 H         1 UNK         0.0566 
    113 H113      -50.2039  -25.5219   17.9862 H         1 UNK         0.0814 
    114 H114      -50.4358  -27.2685   17.9087 H         1 UNK         0.0814 
    115 H115      -50.7214  -26.4074   19.4124 H         1 UNK         0.0814 
    116 H116      -51.6234  -26.2328   15.9317 H         1 UNK         0.3091 
    117 H117      -54.5640  -25.6843   14.0281 H         1 UNK         0.0702 
    118 H118      -52.1702  -23.7706   14.0866 H         1 UNK         0.0785 
    119 H119      -53.8644  -23.3079   14.1719 H         1 UNK         0.0785 
    120 H120      -53.2325  -24.0406   12.7050 H         1 UNK         0.0785 
    121 H121      -51.8660  -26.1225   13.2236 H         1 UNK         0.2998 
    122 H122      -51.5732  -29.5194   14.1130 H         1 UNK         0.0697 
    123 H123      -51.4402  -30.0835   11.6846 H         1 UNK         0.0825 
    124 H124      -52.3129  -28.6009   11.2937 H         1 UNK         0.0825 
    125 H125      -53.1161  -29.8894   12.1763 H         1 UNK         0.0825 
    126 H126      -50.0698  -28.0695   12.2168 H         1 UNK         0.3029 
    127 H127      -48.3778  -25.7696   14.2239 H         1 UNK         0.0897 
    128 H128      -47.2168  -28.4210   13.2111 H         1 UNK         0.0792 
    129 H129      -47.0876  -27.8100   14.8557 H         1 UNK         0.0792 
    130 H130      -46.2987  -26.9524   13.5406 H         1 UNK         0.0792 
    131 H131      -47.8380  -26.6050   11.5714 H         1 UNK         0.3086 
    132 H132      -49.5287  -25.9404    9.6750 H         1 UNK         0.0583 
    133 H133      -51.4410  -24.3234   10.1343 H         1 UNK         0.1020 
    134 H134      -50.2892  -23.0254   10.2474 H         1 UNK         0.1020 
    135 H135      -52.9305  -23.7358    8.0814 H         1 UNK         0.0694 
    136 H136      -52.3798  -24.2970    6.5207 H         1 UNK         0.0694 
    137 H137      -47.5497  -25.1499    9.1514 H         1 UNK         0.2989 
    138 H138      -45.5462  -22.3874   10.3318 H         1 UNK         0.1055 
    139 H139      -45.1901  -25.2881    9.4530 H         1 UNK         0.0806 
    140 H140      -44.9705  -24.7245   11.1067 H         1 UNK         0.0806 
    141 H141      -43.9332  -24.1174    9.8243 H         1 UNK         0.0806 
    142 H142      -45.8442  -23.7398    7.7422 H         1 UNK         0.3061 
    143 H143      -47.3710  -21.3337    6.0997 H         1 UNK         0.0734 
    144 H144      -45.7280  -19.5077    6.3323 H         1 UNK         0.0832 
    145 H145      -44.3908  -20.6226    6.1095 H         1 UNK         0.0832 
    146 H146      -45.5089  -20.3023    4.7836 H         1 UNK         0.0832 
    147 H147      -46.8696  -23.1828    5.0290 H         1 UNK         0.3156 
    148 H148      -45.2171  -24.4248    3.5220 H         1 UNK         0.0589 
    149 H149      -43.4245  -25.9555    5.4815 H         1 UNK         0.0808 
    150 H150      -43.7471  -26.4086    3.8072 H         1 UNK         0.0808 
    151 H151      -42.8702  -24.9316    4.1640 H         1 UNK         0.0808 
    152 H152      -45.8236  -26.4916    5.4842 H         1 UNK         0.3098 
    153 H153      -49.0188  -25.8971    6.0169 H         1 UNK         0.0720 
    154 H154      -49.8172  -26.3254    3.6940 H         1 UNK         0.0791 
    155 H155      -50.1016  -27.7176    4.7194 H         1 UNK         0.0791 
    156 H156      -48.7607  -27.7250    3.5713 H         1 UNK         0.0791 
    157 H157      -47.8978  -28.5103    5.7459 H         1 UNK         0.3028 
@<TRIPOS>BOND
     1    1    2 1    
     2    1   82 1    
     3    1   83 1    
     4    1   84 1    
     5    2    3 2    
     6    2    4 am   BACKBONE|DICT|INTERRES
     7    4    5 1    
     8    4   85 1    
     9    5    6 1    
    10    5   80 1    
    11    5   86 1    
    12    6    7 1    
    13    6   87 1    
    14    6   88 1    
    15    7    8 1    
    16    8    9 1    
    17    8   89 1    
    18    8   90 1    
    19    9   10 ar   
    20    9   14 ar   
    21   10   11 ar   
    22   10   91 1    
    23   11   12 ar   
    24   11   58 1    
    25   12   13 ar   
    26   12   92 1    
    27   13   14 ar   
    28   13   15 1    
    29   14   93 1    
    30   15   16 1    
    31   15   94 1    
    32   15   95 1    
    33   16   17 1    
    34   17   18 1    
    35   17   96 1    
    36   17   97 1    
    37   18   19 1    
    38   18   22 1    
    39   18   98 1    
    40   19   20 am   BACKBONE|DICT|INTERRES
    41   19   21 2    
    42   20   99 1    
    43   20  100 1    
    44   22   23 am   BACKBONE|DICT|INTERRES
    45   22  101 1    
    46   23   24 2    
    47   23   25 1    
    48   25   26 1    
    49   25   27 1    
    50   25  102 1    
    51   26  103 1    
    52   26  104 1    
    53   26  105 1    
    54   27   28 am   BACKBONE|DICT|INTERRES
    55   27  106 1    
    56   28   29 2    
    57   28   30 1    
    58   30   31 1    
    59   30   32 1    
    60   30  107 1    
    61   31  108 1    
    62   31  109 1    
    63   31  110 1    
    64   32   33 am   BACKBONE|DICT|INTERRES
    65   32  111 1    
    66   33   34 2    
    67   33   35 1    
    68   35   36 1    
    69   35   37 1    
    70   35  112 1    
    71   36  113 1    
    72   36  114 1    
    73   36  115 1    
    74   37   38 am   BACKBONE|DICT|INTERRES
    75   37  116 1    
    76   38   39 2    
    77   38   40 1    
    78   40   41 1    
    79   40   42 1    
    80   40  117 1    
    81   41  118 1    
    82   41  119 1    
    83   41  120 1    
    84   42   43 am   BACKBONE|DICT|INTERRES
    85   42  121 1    
    86   43   44 2    
    87   43   45 1    
    88   45   46 1    
    89   45   47 1    
    90   45  122 1    
    91   46  123 1    
    92   46  124 1    
    93   46  125 1    
    94   47   48 am   BACKBONE|DICT|INTERRES
    95   47  126 1    
    96   48   49 2    
    97   48   50 1    
    98   50   51 1    
    99   50   52 1    
   100   50  127 1    
   101   51  128 1    
   102   51  129 1    
   103   51  130 1    
   104   52   53 am   BACKBONE|DICT|INTERRES
   105   52  131 1    
   106   53   54 2    
   107   53   55 1    
   108   55   56 1    
   109   55   59 1    
   110   55  132 1    
   111   56   57 1    
   112   56  133 1    
   113   56  134 1    
   114   57   58 1    
   115   58  135 1    
   116   58  136 1    
   117   59   60 am   BACKBONE|DICT|INTERRES
   118   59  137 1    
   119   60   61 2    
   120   60   62 1    
   121   62   63 1    
   122   62   64 1    
   123   62  138 1    
   124   63  139 1    
   125   63  140 1    
   126   63  141 1    
   127   64   65 am   BACKBONE|DICT|INTERRES
   128   64  142 1    
   129   65   66 2    
   130   65   67 1    
   131   67   68 1    
   132   67   69 1    
   133   67  143 1    
   134   68  144 1    
   135   68  145 1    
   136   68  146 1    
   137   69   70 am   BACKBONE|DICT|INTERRES
   138   69  147 1    
   139   70   71 2    
   140   70   72 1    
   141   72   73 1    
   142   72   74 1    
   143   72  148 1    
   144   73  149 1    
   145   73  150 1    
   146   73  151 1    
   147   74   75 am   BACKBONE|DICT|INTERRES
   148   74  152 1    
   149   75   76 2    
   150   75   77 1    
   151   77   78 1    
   152   77   79 1    
   153   77  153 1    
   154   78  154 1    
   155   78  155 1    
   156   78  156 1    
   157   79   80 am   BACKBONE|DICT|INTERRES
   158   79  157 1    
   159   80   81 2    
@<TRIPOS>SUBSTRUCTURE
     1 UNK         1 GROUP             0       ****    0 ROOT    
