@<TRIPOS>MOLECULE
3R207
157   159    1
SMALL
USER_CHARGES


@<TRIPOS>ATOM
      1 CA        -47.8964  -30.8501    1.9110 C.3       0 UNK        -0.1975 
      2 C         -48.3157  -29.3946    2.0547 C.2       0 UNK         0.4852 
      3 O         -47.8517  -28.5461    1.2922 O.2       0 UNK        -0.5216 
      4 N         -49.1910  -29.1012    3.0256 N.am      1 UNK        -0.4461 
      5 CA        -49.6904  -27.7558    3.3391 C.3       1 UNK         0.0864 
      6 C6        -50.9611  -27.7979    4.2255 C.3       14 UNK        -0.0898 
      7 S7        -50.8069  -28.8572    5.7076 S.3       14 UNK        -0.2598 
      8 C8        -52.5334  -28.8890    6.2865 C.3       14 UNK         0.0286 
      9 C9        -52.7297  -28.0265    7.5244 C.ar      14 UNK        -0.0844 
     10 C10       -52.6719  -26.6320    7.4368 C.ar      14 UNK        -0.0881 
     11 C11       -52.8566  -25.8376    8.5728 C.ar      14 UNK        -0.0643 
     12 C12       -53.1102  -26.4526    9.8031 C.ar      14 UNK        -0.0930 
     13 C13       -53.1752  -27.8471    9.9053 C.ar      14 UNK        -0.0827 
     14 C14       -52.9891  -28.6263    8.7599 C.ar      14 UNK        -0.1249 
     15 C15       -53.4898  -28.5056   11.2432 C.3       14 UNK         0.0141 
     16 S16       -52.2154  -29.6975   11.7693 S.3       14 UNK        -0.2313 
     17 C17       -51.9372  -29.2333   13.5134 C.3       14 UNK        -0.0915 
     18 CA        -52.7155  -30.1374   14.5040 C.3       13 UNK         0.0968 
     19 C         -52.1686  -29.9969   15.9572 C.2       13 UNK         0.5732 
     20 N         -52.9400  -29.5275   16.9324 N.am      13 UNK        -0.7310 
     21 O         -51.0227  -30.3602   16.2129 O.2       13 UNK        -0.5035 
     22 N         -54.1701  -29.9519   14.3808 N.am      13 UNK        -0.4233 
     23 C         -55.0830  -30.8366   14.8021 C.2       13 UNK         0.4989 
     24 O         -54.7979  -31.9582   15.2266 O.2       13 UNK        -0.4996 
     25 CA        -56.5612  -30.3924   14.7456 C.3       12 UNK         0.0216 
     26 CB        -57.4495  -31.1749   15.7366 C.3       12 UNK        -0.1964 
     27 N         -56.7620  -28.9452   14.9184 N.am      12 UNK        -0.4276 
     28 C         -56.3678  -28.1852   15.9511 C.2       12 UNK         0.5020 
     29 O         -55.7151  -28.6037   16.9093 O.2       12 UNK        -0.5489 
     30 CA        -56.7161  -26.6892   15.8664 C.3       11 UNK         0.0294 
     31 CB        -57.1200  -26.1235   17.2392 C.3       11 UNK        -0.2019 
     32 N         -55.5881  -25.9157   15.3490 N.am      11 UNK        -0.4493 
     33 C         -55.0695  -26.0070   14.1193 C.2       11 UNK         0.4932 
     34 O         -55.5399  -26.7313   13.2430 O.2       11 UNK        -0.5029 
     35 CA        -53.8163  -25.1695   13.8013 C.3       10 UNK         0.0280 
     36 CB        -54.2114  -23.7962   13.2255 C.3       10 UNK        -0.1976 
     37 N         -52.8555  -25.0518   14.9081 N.am      10 UNK        -0.4242 
     38 C         -52.9797  -24.4195   16.0825 C.2       10 UNK         0.5072 
     39 O         -53.9923  -23.8007   16.4130 O.2       10 UNK        -0.5224 
     40 CA        -51.8154  -24.5038   17.0909 C.3       9 UNK         0.0343 
     41 CB        -52.1769  -25.4585   18.2468 C.3       9 UNK        -0.2003 
     42 N         -50.4908  -24.8327   16.5398 N.am      9 UNK        -0.4272 
     43 C         -50.0741  -25.9613   15.9507 C.2       9 UNK         0.4988 
     44 O         -50.8189  -26.9066   15.6978 O.2       9 UNK        -0.5108 
     45 CA        -48.5848  -26.0210   15.5562 C.3       8 UNK         0.0248 
     46 CB        -48.1714  -27.4153   15.0489 C.3       8 UNK        -0.2001 
     47 N         -48.2470  -25.0237   14.5379 N.am      8 UNK        -0.4140 
     48 C         -48.1444  -23.7022   14.7403 C.2       8 UNK         0.5028 
     49 O         -48.2556  -23.1724   15.8477 O.2       8 UNK        -0.5428 
     50 CA        -47.9192  -22.8167   13.5026 C.3       7 UNK         0.0264 
     51 CB        -46.4199  -22.6922   13.1912 C.3       7 UNK        -0.1988 
     52 N         -48.6309  -23.3017   12.3170 N.am      7 UNK        -0.4454 
     53 C         -49.9663  -23.3552   12.1940 C.2       7 UNK         0.5027 
     54 O         -50.7440  -22.9271   13.0461 O.2       7 UNK        -0.5083 
     55 CA        -50.5266  -24.0134   10.9164 C.3       6 UNK         0.0844 
     56 C56       -50.6668  -22.9817    9.7702 C.3       14 UNK        -0.0967 
     57 S57       -51.1276  -23.7028    8.1547 S.3       14 UNK        -0.2604 
     58 C58       -52.8171  -24.3186    8.4520 C.3       14 UNK         0.0134 
     59 N         -49.7374  -25.1824   10.5304 N.am      6 UNK        -0.4116 
     60 C         -49.7245  -26.3457   11.1920 C.2       5 UNK         0.5034 
     61 O         -50.3933  -26.5690   12.1994 O.2       5 UNK        -0.5045 
     62 CA        -48.7577  -27.4163   10.6611 C.3       5 UNK         0.0224 
     63 CB        -49.3853  -28.1905    9.4910 C.3       5 UNK        -0.1978 
     64 N         -47.4840  -26.8330   10.2298 N.am      5 UNK        -0.4737 
     65 C         -46.5840  -26.2978   11.0690 C.2       4 UNK         0.5027 
     66 O         -46.7144  -26.2921   12.2918 O.2       4 UNK        -0.5211 
     67 CA        -45.3534  -25.6134   10.4461 C.3       4 UNK         0.0297 
     68 CB        -44.2141  -26.6275   10.2601 C.3       4 UNK        -0.1993 
     69 N         -45.6358  -24.9592    9.1669 N.am      4 UNK        -0.4486 
     70 C         -46.5318  -23.9795    8.9794 C.2       3 UNK         0.4961 
     71 O         -47.1670  -23.4532    9.8919 O.2       3 UNK        -0.5105 
     72 CA        -46.8043  -23.5416    7.5293 C.3       3 UNK         0.0299 
     73 CB        -46.0492  -22.2412    7.2134 C.3       3 UNK        -0.1972 
     74 N         -46.4768  -24.5549    6.5175 N.am      3 UNK        -0.4305 
     75 C         -47.0365  -25.7703    6.4334 C.2       2 UNK         0.5006 
     76 O         -47.8561  -26.2086    7.2429 O.2       2 UNK        -0.5106 
     77 CA        -46.5384  -26.6734    5.2947 C.3       2 UNK         0.0296 
     78 CB        -45.5118  -27.6867    5.8277 C.3       2 UNK        -0.2002 
     79 N         -47.6376  -27.3951    4.6545 N.am      2 UNK        -0.4032 
     80 C         -48.6106  -26.8233    3.9298 C.2       1 UNK         0.5000 
     81 O         -48.6658  -25.6145    3.6918 O.2       1 UNK        -0.5238 
     82 H82       -48.3872  -31.4904    2.6439 H         1 UNK         0.0889 
     83 H83       -46.8192  -30.9450    2.0451 H         1 UNK         0.0889 
     84 H84       -48.1501  -31.2170    0.9168 H         1 UNK         0.0889 
     85 H85       -49.5447  -29.8369    3.6219 H         1 UNK         0.3028 
     86 H86       -49.9831  -27.3012    2.3897 H         1 UNK         0.0864 
     87 H87       -51.2581  -26.7926    4.5302 H         1 UNK         0.0720 
     88 H88       -51.7889  -28.1803    3.6263 H         1 UNK         0.0720 
     89 H89       -53.2129  -28.5574    5.5004 H         1 UNK         0.0814 
     90 H90       -52.8040  -29.9246    6.4977 H         1 UNK         0.0814 
     91 H91       -52.4779  -26.1608    6.4837 H         1 UNK         0.1469 
     92 H92       -53.2704  -25.8440   10.6806 H         1 UNK         0.1381 
     93 H93       -53.0447  -29.7037    8.8356 H         1 UNK         0.1206 
     94 H94       -54.4521  -29.0149   11.1792 H         1 UNK         0.0813 
     95 H95       -53.5988  -27.7414   12.0063 H         1 UNK         0.0813 
     96 H96       -52.1771  -28.1817   13.6756 H         1 UNK         0.0638 
     97 H97       -50.8621  -29.3141   13.6847 H         1 UNK         0.0638 
     98 H98       -52.5004  -31.1707   14.2247 H         1 UNK         0.0568 
     99 H99       -53.9013  -29.2440   16.7672 H         1 UNK         0.3450 
    100 H100      -52.5563  -29.4588   17.8601 H         1 UNK         0.3450 
    101 H101      -54.4843  -29.0493   14.0578 H         1 UNK         0.2987 
    102 H102      -56.9039  -30.6294   13.7374 H         1 UNK         0.0766 
    103 H103      -57.4170  -32.2463   15.5348 H         1 UNK         0.0798 
    104 H104      -58.4925  -30.8666   15.6640 H         1 UNK         0.0798 
    105 H105      -57.1275  -31.0277   16.7682 H         1 UNK         0.0798 
    106 H106      -57.2135  -28.4754   14.1438 H         1 UNK         0.3198 
    107 H107      -57.5617  -26.5617   15.1870 H         1 UNK         0.0843 
    108 H108      -57.9520  -26.6872   17.6634 H         1 UNK         0.0831 
    109 H109      -57.4384  -25.0838   17.1619 H         1 UNK         0.0831 
    110 H110      -56.2973  -26.1688   17.9543 H         1 UNK         0.0831 
    111 H111      -55.1463  -25.2575   15.9847 H         1 UNK         0.3133 
    112 H112      -53.2701  -25.7010   13.0229 H         1 UNK         0.0566 
    113 H113      -53.3365  -23.2197   12.9298 H         1 UNK         0.0814 
    114 H114      -54.8348  -23.9134   12.3381 H         1 UNK         0.0814 
    115 H115      -54.7782  -23.2001   13.9410 H         1 UNK         0.0814 
    116 H116      -52.0194  -25.6200   14.8086 H         1 UNK         0.3091 
    117 H117      -51.7113  -23.5026   17.5117 H         1 UNK         0.0702 
    118 H118      -52.3246  -26.4815   17.8978 H         1 UNK         0.0785 
    119 H119      -53.1019  -25.1487   18.7350 H         1 UNK         0.0785 
    120 H120      -51.3982  -25.4725   19.0092 H         1 UNK         0.0785 
    121 H121      -49.8000  -24.0881   16.5995 H         1 UNK         0.2998 
    122 H122      -48.0022  -25.8091   16.4551 H         1 UNK         0.0697 
    123 H123      -48.6973  -27.6805   14.1309 H         1 UNK         0.0825 
    124 H124      -48.3986  -28.1852   15.7877 H         1 UNK         0.0825 
    125 H125      -47.1014  -27.4636   14.8466 H         1 UNK         0.0825 
    126 H126      -48.0915  -25.3797   13.6009 H         1 UNK         0.3029 
    127 H127      -48.3038  -21.8212   13.7345 H         1 UNK         0.0897 
    128 H128      -46.2437  -22.0500   12.3279 H         1 UNK         0.0792 
    129 H129      -45.8825  -22.2580   14.0352 H         1 UNK         0.0792 
    130 H130      -45.9703  -23.6633   12.9850 H         1 UNK         0.0792 
    131 H131      -48.0610  -23.5846   11.5221 H         1 UNK         0.3086 
    132 H132      -51.5282  -24.3671   11.1642 H         1 UNK         0.0583 
    133 H133      -51.4027  -22.2200   10.0353 H         1 UNK         0.1020 
    134 H134      -49.7261  -22.4471    9.6228 H         1 UNK         0.1020 
    135 H135      -53.2421  -23.8440    9.3377 H         1 UNK         0.0694 
    136 H136      -53.4486  -24.0146    7.6160 H         1 UNK         0.0694 
    137 H137      -49.1551  -25.0816    9.7116 H         1 UNK         0.2989 
    138 H138      -48.5578  -28.1190   11.4731 H         1 UNK         0.1055 
    139 H139      -50.2774  -28.7240    9.8150 H         1 UNK         0.0806 
    140 H140      -48.6973  -28.9304    9.0826 H         1 UNK         0.0806 
    141 H141      -49.6886  -27.5289    8.6781 H         1 UNK         0.0806 
    142 H142      -47.3413  -26.7468    9.2290 H         1 UNK         0.3061 
    143 H143      -45.0149  -24.8430   11.1412 H         1 UNK         0.0734 
    144 H144      -43.9695  -27.1147   11.2052 H         1 UNK         0.0832 
    145 H145      -44.4812  -27.4112    9.5498 H         1 UNK         0.0832 
    146 H146      -43.3046  -26.1440    9.9031 H         1 UNK         0.0832 
    147 H147      -45.1582  -25.3214    8.3553 H         1 UNK         0.3156 
    148 H148      -47.8752  -23.3411    7.4530 H         1 UNK         0.0589 
    149 H149      -44.9682  -22.3830    7.2445 H         1 UNK         0.0808 
    150 H150      -46.3115  -21.8581    6.2270 H         1 UNK         0.0808 
    151 H151      -46.2961  -21.4618    7.9361 H         1 UNK         0.0808 
    152 H152      -45.7995  -24.2861    5.8176 H         1 UNK         0.3098 
    153 H153      -46.0558  -26.0563    4.5337 H         1 UNK         0.0720 
    154 H154      -45.1237  -28.3171    5.0273 H         1 UNK         0.0791 
    155 H155      -45.9453  -28.3382    6.5881 H         1 UNK         0.0791 
    156 H156      -44.6587  -27.1799    6.2806 H         1 UNK         0.0791 
    157 H157      -47.6983  -28.3867    4.8303 H         1 UNK         0.3028 
@<TRIPOS>BOND
     1    1    2 1    
     2    1   82 1    
     3    1   83 1    
     4    1   84 1    
     5    2    3 2    
     6    2    4 am   BACKBONE|DICT|INTERRES
     7    4    5 1    
     8    4   85 1    
     9    5    6 1    
    10    5   80 1    
    11    5   86 1    
    12    6    7 1    
    13    6   87 1    
    14    6   88 1    
    15    7    8 1    
    16    8    9 1    
    17    8   89 1    
    18    8   90 1    
    19    9   10 ar   
    20    9   14 ar   
    21   10   11 ar   
    22   10   91 1    
    23   11   12 ar   
    24   11   58 1    
    25   12   13 ar   
    26   12   92 1    
    27   13   14 ar   
    28   13   15 1    
    29   14   93 1    
    30   15   16 1    
    31   15   94 1    
    32   15   95 1    
    33   16   17 1    
    34   17   18 1    
    35   17   96 1    
    36   17   97 1    
    37   18   19 1    
    38   18   22 1    
    39   18   98 1    
    40   19   20 am   BACKBONE|DICT|INTERRES
    41   19   21 2    
    42   20   99 1    
    43   20  100 1    
    44   22   23 am   BACKBONE|DICT|INTERRES
    45   22  101 1    
    46   23   24 2    
    47   23   25 1    
    48   25   26 1    
    49   25   27 1    
    50   25  102 1    
    51   26  103 1    
    52   26  104 1    
    53   26  105 1    
    54   27   28 am   BACKBONE|DICT|INTERRES
    55   27  106 1    
    56   28   29 2    
    57   28   30 1    
    58   30   31 1    
    59   30   32 1    
    60   30  107 1    
    61   31  108 1    
    62   31  109 1    
    63   31  110 1    
    64   32   33 am   BACKBONE|DICT|INTERRES
    65   32  111 1    
    66   33   34 2    
    67   33   35 1    
    68   35   36 1    
    69   35   37 1    
    70   35  112 1    
    71   36  113 1    
    72   36  114 1    
    73   36  115 1    
    74   37   38 am   BACKBONE|DICT|INTERRES
    75   37  116 1    
    76   38   39 2    
    77   38   40 1    
    78   40   41 1    
    79   40   42 1    
    80   40  117 1    
    81   41  118 1    
    82   41  119 1    
    83   41  120 1    
    84   42   43 am   BACKBONE|DICT|INTERRES
    85   42  121 1    
    86   43   44 2    
    87   43   45 1    
    88   45   46 1    
    89   45   47 1    
    90   45  122 1    
    91   46  123 1    
    92   46  124 1    
    93   46  125 1    
    94   47   48 am   BACKBONE|DICT|INTERRES
    95   47  126 1    
    96   48   49 2    
    97   48   50 1    
    98   50   51 1    
    99   50   52 1    
   100   50  127 1    
   101   51  128 1    
   102   51  129 1    
   103   51  130 1    
   104   52   53 am   BACKBONE|DICT|INTERRES
   105   52  131 1    
   106   53   54 2    
   107   53   55 1    
   108   55   56 1    
   109   55   59 1    
   110   55  132 1    
   111   56   57 1    
   112   56  133 1    
   113   56  134 1    
   114   57   58 1    
   115   58  135 1    
   116   58  136 1    
   117   59   60 am   BACKBONE|DICT|INTERRES
   118   59  137 1    
   119   60   61 2    
   120   60   62 1    
   121   62   63 1    
   122   62   64 1    
   123   62  138 1    
   124   63  139 1    
   125   63  140 1    
   126   63  141 1    
   127   64   65 am   BACKBONE|DICT|INTERRES
   128   64  142 1    
   129   65   66 2    
   130   65   67 1    
   131   67   68 1    
   132   67   69 1    
   133   67  143 1    
   134   68  144 1    
   135   68  145 1    
   136   68  146 1    
   137   69   70 am   BACKBONE|DICT|INTERRES
   138   69  147 1    
   139   70   71 2    
   140   70   72 1    
   141   72   73 1    
   142   72   74 1    
   143   72  148 1    
   144   73  149 1    
   145   73  150 1    
   146   73  151 1    
   147   74   75 am   BACKBONE|DICT|INTERRES
   148   74  152 1    
   149   75   76 2    
   150   75   77 1    
   151   77   78 1    
   152   77   79 1    
   153   77  153 1    
   154   78  154 1    
   155   78  155 1    
   156   78  156 1    
   157   79   80 am   BACKBONE|DICT|INTERRES
   158   79  157 1    
   159   80   81 2    
@<TRIPOS>SUBSTRUCTURE
     1 UNK         1 GROUP             0       ****    0 ROOT    
