@<TRIPOS>MOLECULE
3R207
157   159    1
SMALL
USER_CHARGES


@<TRIPOS>ATOM
      1 CA        -47.0578  -29.6965    4.7874 C.3       0 UNK        -0.1975 
      2 C         -47.9457  -28.6548    4.1225 C.2       0 UNK         0.4852 
      3 O         -47.4436  -27.7859    3.4095 O.2       0 UNK        -0.5216 
      4 N         -49.2635  -28.7345    4.3555 N.am      1 UNK        -0.4461 
      5 CA        -50.2796  -27.8090    3.8355 C.3       1 UNK         0.0864 
      6 C6        -51.7105  -28.3913    4.0030 C.3       14 UNK        -0.0898 
      7 S7        -52.2681  -28.5524    5.7396 S.3       14 UNK        -0.2598 
      8 C8        -52.0014  -30.3183    6.0977 C.3       14 UNK         0.0286 
      9 C9        -51.4159  -30.4877    7.4911 C.ar      14 UNK        -0.0844 
     10 C10       -50.0496  -30.2854    7.6976 C.ar      14 UNK        -0.0881 
     11 C11       -49.5008  -30.3640    8.9791 C.ar      14 UNK        -0.0643 
     12 C12       -50.3231  -30.7018   10.0571 C.ar      14 UNK        -0.0930 
     13 C13       -51.6916  -30.9167    9.8657 C.ar      14 UNK        -0.0827 
     14 C14       -52.2340  -30.8061    8.5800 C.ar      14 UNK        -0.1249 
     15 C15       -52.5871  -31.2426   11.0517 C.3       14 UNK         0.0141 
     16 S16       -52.9829  -29.7395   11.9989 S.3       14 UNK        -0.2313 
     17 C17       -54.6147  -30.1669   12.6912 C.3       14 UNK        -0.0915 
     18 CA        -55.7844  -29.8138   11.7242 C.3       13 UNK         0.0968 
     19 C         -57.1612  -30.3678   12.2063 C.2       13 UNK         0.5732 
     20 N         -58.2795  -29.7297   11.8818 N.am      13 UNK        -0.7310 
     21 O         -57.2268  -31.4122   12.8509 O.2       13 UNK        -0.5035 
     22 N         -55.7877  -28.3971   11.3084 N.am      13 UNK        -0.4233 
     23 C         -56.0496  -27.3362   12.0841 C.2       13 UNK         0.4989 
     24 O         -56.3774  -27.4048   13.2712 O.2       13 UNK        -0.4996 
     25 CA        -55.9868  -25.9696   11.3740 C.3       12 UNK         0.0216 
     26 CB        -57.2317  -25.7598   10.4939 C.3       12 UNK        -0.1964 
     27 N         -55.8723  -24.8395   12.3004 N.am      12 UNK        -0.4276 
     28 C         -54.8001  -24.5757   13.0558 C.2       12 UNK         0.5020 
     29 O         -53.7665  -25.2496   13.0482 O.2       12 UNK        -0.5489 
     30 CA        -54.8952  -23.3466   13.9701 C.3       11 UNK         0.0294 
     31 CB        -55.8226  -23.6173   15.1706 C.3       11 UNK        -0.2019 
     32 N         -53.5508  -23.0365   14.4408 N.am      11 UNK        -0.4493 
     33 C         -53.1210  -21.8862   14.9724 C.2       11 UNK         0.4932 
     34 O         -53.8345  -20.8900   15.0993 O.2       11 UNK        -0.5029 
     35 CA        -51.6436  -21.8373   15.4294 C.3       10 UNK         0.0280 
     36 CB        -51.4181  -20.8659   16.6078 C.3       10 UNK        -0.1976 
     37 N         -51.0751  -23.1627   15.7190 N.am      10 UNK        -0.4242 
     38 C         -51.4936  -24.0249   16.6619 C.2       10 UNK         0.5072 
     39 O         -52.3756  -23.7745   17.4842 O.2       10 UNK        -0.5224 
     40 CA        -50.8627  -25.4248   16.6701 C.3       9 UNK         0.0343 
     41 CB        -51.8072  -26.4376   15.9996 C.3       9 UNK        -0.2003 
     42 N         -49.5678  -25.4823   15.9975 N.am      9 UNK        -0.4272 
     43 C         -48.3957  -25.1269   16.5406 C.2       9 UNK         0.4988 
     44 O         -48.2872  -24.6268   17.6615 O.2       9 UNK        -0.5108 
     45 CA        -47.1372  -25.3894   15.6856 C.3       8 UNK         0.0248 
     46 CB        -45.8738  -25.6329   16.5372 C.3       8 UNK        -0.2001 
     47 N         -47.3260  -26.4652   14.7016 N.am      8 UNK        -0.4140 
     48 C         -47.6264  -27.7547   14.9341 C.2       8 UNK         0.5028 
     49 O         -47.6745  -28.2613   16.0554 O.2       8 UNK        -0.5428 
     50 CA        -47.9986  -28.6153   13.7132 C.3       7 UNK         0.0264 
     51 CB        -49.5152  -28.8741   13.7073 C.3       7 UNK        -0.1988 
     52 N         -47.5966  -27.9922   12.4454 N.am      7 UNK        -0.4454 
     53 C         -46.3479  -28.0715   11.9579 C.2       7 UNK         0.5027 
     54 O         -45.4692  -28.7703   12.4659 O.2       7 UNK        -0.5083 
     55 CA        -45.9834  -27.2036   10.7359 C.3       6 UNK         0.0844 
     56 C56       -46.0593  -27.9877    9.4018 C.3       14 UNK        -0.0967 
     57 S57       -47.7480  -28.2687    8.7926 S.3       14 UNK        -0.2604 
     58 C58       -48.0356  -30.0194    9.1955 C.3       14 UNK         0.0134 
     59 N         -46.6712  -25.9028   10.7128 N.am      6 UNK        -0.4116 
     60 C         -46.3826  -24.9066   11.5666 C.2       5 UNK         0.5034 
     61 O         -45.5865  -25.0183   12.4983 O.2       5 UNK        -0.5045 
     62 CA        -47.0865  -23.5600   11.3653 C.3       5 UNK         0.0224 
     63 CB        -46.5300  -22.8303   10.1311 C.3       5 UNK        -0.1978 
     64 N         -48.5291  -23.7231   11.2293 N.am      5 UNK        -0.4737 
     65 C         -49.4019  -23.6836   12.2440 C.2       4 UNK         0.5027 
     66 O         -49.0931  -23.5134   13.4249 O.2       4 UNK        -0.5211 
     67 CA        -50.8848  -23.8726   11.8877 C.3       4 UNK         0.0297 
     68 CB        -51.5370  -22.5162   11.5742 C.3       4 UNK        -0.1993 
     69 N         -51.1313  -24.7778   10.7658 N.am      4 UNK        -0.4486 
     70 C         -50.7206  -26.0491   10.6796 C.2       3 UNK         0.4961 
     71 O         -50.0293  -26.6186   11.5243 O.2       3 UNK        -0.5105 
     72 CA        -51.1036  -26.7807    9.3857 C.3       3 UNK         0.0299 
     73 CB        -52.6136  -27.0729    9.3627 C.3       3 UNK        -0.1972 
     74 N         -50.7313  -26.1024    8.1349 N.am      3 UNK        -0.4305 
     75 C         -49.6233  -25.3918    7.8601 C.2       2 UNK         0.5006 
     76 O         -48.7662  -25.0726    8.6869 O.2       2 UNK        -0.5106 
     77 CA        -49.4262  -25.0276    6.3824 C.3       2 UNK         0.0296 
     78 CB        -48.0650  -24.3633    6.0976 C.3       2 UNK        -0.2002 
     79 N         -49.5513  -26.2518    5.5969 N.am      2 UNK        -0.4032 
     80 C         -50.1700  -26.3774    4.4162 C.2       1 UNK         0.5000 
     81 O         -50.6604  -25.4321    3.7954 O.2       1 UNK        -0.5238 
     82 H82       -47.6333  -30.5357    5.1771 H         1 UNK         0.0889 
     83 H83       -46.5069  -29.2466    5.6133 H         1 UNK         0.0889 
     84 H84       -46.3371  -30.0895    4.0707 H         1 UNK         0.0889 
     85 H85       -49.6215  -29.4865    4.9229 H         1 UNK         0.3028 
     86 H86       -50.0951  -27.7118    2.7633 H         1 UNK         0.0864 
     87 H87       -52.4288  -27.7526    3.4854 H         1 UNK         0.0720 
     88 H88       -51.7821  -29.3593    3.5047 H         1 UNK         0.0720 
     89 H89       -51.3319  -30.7681    5.3638 H         1 UNK         0.0814 
     90 H90       -52.9507  -30.8490    6.0101 H         1 UNK         0.0814 
     91 H91       -49.4113  -30.0155    6.8713 H         1 UNK         0.1469 
     92 H92       -49.9054  -30.7707   11.0505 H         1 UNK         0.1381 
     93 H93       -53.2951  -30.9503    8.4293 H         1 UNK         0.1206 
     94 H94       -52.0968  -31.9638   11.7070 H         1 UNK         0.0813 
     95 H95       -53.5054  -31.7177   10.7039 H         1 UNK         0.0813 
     96 H96       -54.7333  -29.6391   13.6386 H         1 UNK         0.0638 
     97 H97       -54.6117  -31.2306   12.9356 H         1 UNK         0.0638 
     98 H98       -55.6016  -30.3672   10.8029 H         1 UNK         0.0568 
     99 H99       -59.1647  -30.1020   12.1872 H         1 UNK         0.3450 
    100 H100      -58.2469  -28.8774   11.3471 H         1 UNK         0.3450 
    101 H101      -55.5625  -28.2395   10.3376 H         1 UNK         0.2987 
    102 H102      -55.1019  -25.9621   10.7350 H         1 UNK         0.0766 
    103 H103      -57.1813  -24.8138    9.9540 H         1 UNK         0.0798 
    104 H104      -58.1484  -25.7598   11.0854 H         1 UNK         0.0798 
    105 H105      -57.3273  -26.5475    9.7455 H         1 UNK         0.0798 
    106 H106      -56.6900  -24.2559   12.4001 H         1 UNK         0.3198 
    107 H107      -55.2724  -22.5042   13.3863 H         1 UNK         0.0843 
    108 H108      -55.4609  -24.4514   15.7737 H         1 UNK         0.0831 
    109 H109      -56.8334  -23.8644   14.8443 H         1 UNK         0.0831 
    110 H110      -55.8995  -22.7456   15.8205 H         1 UNK         0.0831 
    111 H111      -52.9054  -23.8069   14.3162 H         1 UNK         0.3133 
    112 H112      -51.0738  -21.4491   14.5859 H         1 UNK         0.0566 
    113 H113      -50.3727  -20.8515   16.9159 H         1 UNK         0.0814 
    114 H114      -51.6865  -19.8459   16.3304 H         1 UNK         0.0814 
    115 H115      -52.0208  -21.1329   17.4763 H         1 UNK         0.0814 
    116 H116      -50.3267  -23.4573   15.0984 H         1 UNK         0.3091 
    117 H117      -50.7295  -25.7199   17.7133 H         1 UNK         0.0702 
    118 H118      -51.4200  -27.4536   16.0804 H         1 UNK         0.0785 
    119 H119      -51.9537  -26.2189   14.9408 H         1 UNK         0.0785 
    120 H120      -52.7909  -26.4294   16.4715 H         1 UNK         0.0785 
    121 H121      -49.5571  -25.8600   15.0618 H         1 UNK         0.2998 
    122 H122      -46.9735  -24.4793   15.1064 H         1 UNK         0.0697 
    123 H123      -45.9891  -26.4929   17.1974 H         1 UNK         0.0825 
    124 H124      -45.6524  -24.7691   17.1651 H         1 UNK         0.0825 
    125 H125      -45.0008  -25.8062   15.9078 H         1 UNK         0.0825 
    126 H126      -47.2731  -26.1715   13.7360 H         1 UNK         0.3029 
    127 H127      -47.4938  -29.5784   13.8166 H         1 UNK         0.0897 
    128 H128      -49.8288  -29.4126   12.8158 H         1 UNK         0.0792 
    129 H129      -49.8108  -29.4732   14.5694 H         1 UNK         0.0792 
    130 H130      -50.0882  -27.9477   13.7501 H         1 UNK         0.0792 
    131 H131      -48.3014  -27.4364   11.9637 H         1 UNK         0.3086 
    132 H132      -44.9231  -26.9729   10.8653 H         1 UNK         0.0583 
    133 H133      -45.5306  -27.4253    8.6307 H         1 UNK         0.1020 
    134 H134      -45.5279  -28.9387    9.4771 H         1 UNK         0.1020 
    135 H135      -47.4086  -30.6506    8.5643 H         1 UNK         0.0694 
    136 H136      -47.7432  -30.2095   10.2293 H         1 UNK         0.0694 
    137 H137      -47.3645  -25.7568    9.9843 H         1 UNK         0.2989 
    138 H138      -46.8755  -22.9410   12.2409 H         1 UNK         0.1055 
    139 H139      -45.4528  -22.6819   10.2191 H         1 UNK         0.0806 
    140 H140      -46.9835  -21.8456   10.0176 H         1 UNK         0.0806 
    141 H141      -46.7080  -23.3868    9.2103 H         1 UNK         0.0806 
    142 H142      -48.8669  -23.9794   10.3056 H         1 UNK         0.3061 
    143 H143      -51.3668  -24.3021   12.7662 H         1 UNK         0.0734 
    144 H144      -52.6209  -22.6056   11.4994 H         1 UNK         0.0832 
    145 H145      -51.3265  -21.7816   12.3499 H         1 UNK         0.0832 
    146 H146      -51.1679  -22.1003   10.6359 H         1 UNK         0.0832 
    147 H147      -51.6671  -24.4070    9.9956 H         1 UNK         0.3156 
    148 H148      -50.5835  -27.7383    9.3996 H         1 UNK         0.0589 
    149 H149      -53.1958  -26.1855    9.1140 H         1 UNK         0.0808 
    150 H150      -52.8543  -27.8489    8.6367 H         1 UNK         0.0808 
    151 H151      -52.9610  -27.4244   10.3336 H         1 UNK         0.0808 
    152 H152      -51.3401  -26.3022    7.3540 H         1 UNK         0.3098 
    153 H153      -50.2209  -24.3273    6.1169 H         1 UNK         0.0720 
    154 H154      -47.9617  -24.1099    5.0424 H         1 UNK         0.0791 
    155 H155      -47.2351  -25.0176    6.3678 H         1 UNK         0.0791 
    156 H156      -47.9536  -23.4394    6.6665 H         1 UNK         0.0791 
    157 H157      -49.1957  -27.0895    6.0366 H         1 UNK         0.3028 
@<TRIPOS>BOND
     1    1    2 1    
     2    1   82 1    
     3    1   83 1    
     4    1   84 1    
     5    2    3 2    
     6    2    4 am   BACKBONE|DICT|INTERRES
     7    4    5 1    
     8    4   85 1    
     9    5    6 1    
    10    5   80 1    
    11    5   86 1    
    12    6    7 1    
    13    6   87 1    
    14    6   88 1    
    15    7    8 1    
    16    8    9 1    
    17    8   89 1    
    18    8   90 1    
    19    9   10 ar   
    20    9   14 ar   
    21   10   11 ar   
    22   10   91 1    
    23   11   12 ar   
    24   11   58 1    
    25   12   13 ar   
    26   12   92 1    
    27   13   14 ar   
    28   13   15 1    
    29   14   93 1    
    30   15   16 1    
    31   15   94 1    
    32   15   95 1    
    33   16   17 1    
    34   17   18 1    
    35   17   96 1    
    36   17   97 1    
    37   18   19 1    
    38   18   22 1    
    39   18   98 1    
    40   19   20 am   BACKBONE|DICT|INTERRES
    41   19   21 2    
    42   20   99 1    
    43   20  100 1    
    44   22   23 am   BACKBONE|DICT|INTERRES
    45   22  101 1    
    46   23   24 2    
    47   23   25 1    
    48   25   26 1    
    49   25   27 1    
    50   25  102 1    
    51   26  103 1    
    52   26  104 1    
    53   26  105 1    
    54   27   28 am   BACKBONE|DICT|INTERRES
    55   27  106 1    
    56   28   29 2    
    57   28   30 1    
    58   30   31 1    
    59   30   32 1    
    60   30  107 1    
    61   31  108 1    
    62   31  109 1    
    63   31  110 1    
    64   32   33 am   BACKBONE|DICT|INTERRES
    65   32  111 1    
    66   33   34 2    
    67   33   35 1    
    68   35   36 1    
    69   35   37 1    
    70   35  112 1    
    71   36  113 1    
    72   36  114 1    
    73   36  115 1    
    74   37   38 am   BACKBONE|DICT|INTERRES
    75   37  116 1    
    76   38   39 2    
    77   38   40 1    
    78   40   41 1    
    79   40   42 1    
    80   40  117 1    
    81   41  118 1    
    82   41  119 1    
    83   41  120 1    
    84   42   43 am   BACKBONE|DICT|INTERRES
    85   42  121 1    
    86   43   44 2    
    87   43   45 1    
    88   45   46 1    
    89   45   47 1    
    90   45  122 1    
    91   46  123 1    
    92   46  124 1    
    93   46  125 1    
    94   47   48 am   BACKBONE|DICT|INTERRES
    95   47  126 1    
    96   48   49 2    
    97   48   50 1    
    98   50   51 1    
    99   50   52 1    
   100   50  127 1    
   101   51  128 1    
   102   51  129 1    
   103   51  130 1    
   104   52   53 am   BACKBONE|DICT|INTERRES
   105   52  131 1    
   106   53   54 2    
   107   53   55 1    
   108   55   56 1    
   109   55   59 1    
   110   55  132 1    
   111   56   57 1    
   112   56  133 1    
   113   56  134 1    
   114   57   58 1    
   115   58  135 1    
   116   58  136 1    
   117   59   60 am   BACKBONE|DICT|INTERRES
   118   59  137 1    
   119   60   61 2    
   120   60   62 1    
   121   62   63 1    
   122   62   64 1    
   123   62  138 1    
   124   63  139 1    
   125   63  140 1    
   126   63  141 1    
   127   64   65 am   BACKBONE|DICT|INTERRES
   128   64  142 1    
   129   65   66 2    
   130   65   67 1    
   131   67   68 1    
   132   67   69 1    
   133   67  143 1    
   134   68  144 1    
   135   68  145 1    
   136   68  146 1    
   137   69   70 am   BACKBONE|DICT|INTERRES
   138   69  147 1    
   139   70   71 2    
   140   70   72 1    
   141   72   73 1    
   142   72   74 1    
   143   72  148 1    
   144   73  149 1    
   145   73  150 1    
   146   73  151 1    
   147   74   75 am   BACKBONE|DICT|INTERRES
   148   74  152 1    
   149   75   76 2    
   150   75   77 1    
   151   77   78 1    
   152   77   79 1    
   153   77  153 1    
   154   78  154 1    
   155   78  155 1    
   156   78  156 1    
   157   79   80 am   BACKBONE|DICT|INTERRES
   158   79  157 1    
   159   80   81 2    
@<TRIPOS>SUBSTRUCTURE
     1 UNK         1 GROUP             0       ****    0 ROOT    
