@<TRIPOS>MOLECULE
3R207
157   159    1
SMALL
USER_CHARGES


@<TRIPOS>ATOM
      1 CA        -46.3618  -29.8222    6.7282 C.3       0 UNK        -0.1975 
      2 C         -47.1829  -28.5665    6.4804 C.2       0 UNK         0.4852 
      3 O         -46.9792  -27.5614    7.1607 O.2       0 UNK        -0.5216 
      4 N         -48.0993  -28.6111    5.5026 N.am      1 UNK        -0.4461 
      5 CA        -49.0431  -27.5374    5.1488 C.3       1 UNK         0.0864 
      6 C6        -50.1069  -27.2789    6.2531 C.3       14 UNK        -0.0898 
      7 S7        -51.0187  -28.8093    6.6602 S.3       14 UNK        -0.2598 
      8 C8        -52.6889  -28.1952    7.0358 C.3       14 UNK         0.0286 
      9 C9        -52.7818  -27.6043    8.4353 C.ar      14 UNK        -0.0844 
     10 C10       -53.0227  -26.2398    8.6142 C.ar      14 UNK        -0.0881 
     11 C11       -53.1567  -25.7029    9.8989 C.ar      14 UNK        -0.0643 
     12 C12       -53.0472  -26.5442   11.0104 C.ar      14 UNK        -0.0930 
     13 C13       -52.8080  -27.9119   10.8455 C.ar      14 UNK        -0.0827 
     14 C14       -52.6707  -28.4335    9.5556 C.ar      14 UNK        -0.1249 
     15 C15       -52.7091  -28.8277   12.0574 C.3       14 UNK         0.0141 
     16 S16       -54.0811  -30.0252   12.0919 S.3       14 UNK        -0.2313 
     17 C17       -53.8865  -30.7563   13.7523 C.3       14 UNK        -0.0915 
     18 CA        -55.2345  -31.2645   14.3303 C.3       13 UNK         0.0968 
     19 C         -55.0221  -31.9777   15.6924 C.2       13 UNK         0.5732 
     20 N         -54.6502  -33.2505   15.6712 N.am      13 UNK        -0.7310 
     21 O         -55.1538  -31.3859   16.7628 O.2       13 UNK        -0.5035 
     22 N         -56.2263  -30.1848   14.4127 N.am      13 UNK        -0.4233 
     23 C         -57.5493  -30.3568   14.5396 C.2       13 UNK         0.4989 
     24 O         -58.0902  -31.4625   14.5932 O.2       13 UNK        -0.4996 
     25 CA        -58.4359  -29.0939   14.6058 C.3       12 UNK         0.0216 
     26 CB        -58.8893  -28.8327   16.0517 C.3       12 UNK        -0.1964 
     27 N         -57.7776  -27.8910   14.0899 N.am      12 UNK        -0.4276 
     28 C         -57.4486  -27.6799   12.8083 C.2       12 UNK         0.5020 
     29 O         -57.8465  -28.3889   11.8830 O.2       12 UNK        -0.5489 
     30 CA        -56.4964  -26.5038   12.4982 C.3       11 UNK         0.0294 
     31 CB        -57.2102  -25.4271   11.6638 C.3       11 UNK        -0.2019 
     32 N         -55.8559  -25.8602   13.6579 N.am      11 UNK        -0.4493 
     33 C         -55.0553  -26.4586   14.5508 C.2       11 UNK         0.4932 
     34 O         -54.8484  -27.6718   14.5786 O.2       11 UNK        -0.5029 
     35 CA        -54.4391  -25.5575   15.6343 C.3       10 UNK         0.0280 
     36 CB        -55.4511  -25.3184   16.7673 C.3       10 UNK        -0.1976 
     37 N         -53.2221  -26.1458   16.2005 N.am      10 UNK        -0.4242 
     38 C         -52.0846  -26.3306   15.5192 C.2       10 UNK         0.5072 
     39 O         -51.9079  -25.9515   14.3619 O.2       10 UNK        -0.5224 
     40 CA        -50.9755  -27.1011   16.2401 C.3       9 UNK         0.0343 
     41 CB        -51.1765  -28.6198   16.0809 C.3       9 UNK        -0.2003 
     42 N         -49.6806  -26.7142   15.6856 N.am      9 UNK        -0.4272 
     43 C         -48.5209  -26.7432   16.3535 C.2       9 UNK         0.4988 
     44 O         -48.4135  -27.1189   17.5218 O.2       9 UNK        -0.5108 
     45 CA        -47.2647  -26.2745   15.6054 C.3       8 UNK         0.0248 
     46 CB        -46.6890  -27.4127   14.7455 C.3       8 UNK        -0.2001 
     47 N         -47.5359  -25.1093   14.7625 N.am      8 UNK        -0.4140 
     48 C         -47.4114  -23.8358   15.1630 C.2       8 UNK         0.5028 
     49 O         -47.0463  -23.5092   16.2934 O.2       8 UNK        -0.5428 
     50 CA        -47.7206  -22.7289   14.1375 C.3       7 UNK         0.0264 
     51 CB        -46.4181  -22.1851   13.5281 C.3       7 UNK        -0.1988 
     52 N         -48.6022  -23.1745   13.0574 N.am      7 UNK        -0.4454 
     53 C         -49.9325  -23.3120   13.1787 C.2       7 UNK         0.5027 
     54 O         -50.5548  -22.9892   14.1913 O.2       7 UNK        -0.5083 
     55 CA        -50.7018  -23.8884   11.9664 C.3       6 UNK         0.0844 
     56 C56       -51.2778  -22.7183   11.1272 C.3       14 UNK        -0.0967 
     57 S57       -52.0459  -23.1933    9.5410 S.3       14 UNK        -0.2604 
     58 C58       -53.4531  -24.2201   10.0705 C.3       14 UNK         0.0134 
     59 N         -49.9102  -24.8170   11.1529 N.am      6 UNK        -0.4116 
     60 C         -49.2213  -25.8870   11.5762 C.2       5 UNK         0.5034 
     61 O         -49.2352  -26.3022   12.7343 O.2       5 UNK        -0.5045 
     62 CA        -48.2788  -26.5610   10.5589 C.3       5 UNK         0.0224 
     63 CB        -48.9410  -27.8320   10.0048 C.3       5 UNK        -0.1978 
     64 N         -47.8407  -25.7008    9.4450 N.am      5 UNK        -0.4737 
     65 C         -47.3053  -24.4740    9.5587 C.2       4 UNK         0.5027 
     66 O         -47.0556  -23.9348   10.6394 O.2       4 UNK        -0.5211 
     67 CA        -47.0865  -23.7081    8.2446 C.3       4 UNK         0.0297 
     68 CB        -46.6128  -22.2538    8.4578 C.3       4 UNK        -0.1993 
     69 N         -46.2133  -24.4284    7.3179 N.am      4 UNK        -0.4486 
     70 C         -44.9071  -24.7052    7.4612 C.2       3 UNK         0.4961 
     71 O         -44.2360  -24.3710    8.4382 O.2       3 UNK        -0.5105 
     72 CA        -44.2124  -25.4771    6.3197 C.3       3 UNK         0.0299 
     73 CB        -43.5878  -26.7850    6.8367 C.3       3 UNK        -0.1972 
     74 N         -45.1131  -25.7809    5.2040 N.am      3 UNK        -0.4305 
     75 C         -45.4206  -24.9353    4.2094 C.2       2 UNK         0.5006 
     76 O         -44.9034  -23.8264    4.0719 O.2       2 UNK        -0.5106 
     77 CA        -46.5011  -25.3859    3.2067 C.3       2 UNK         0.0296 
     78 CB        -45.8506  -25.8800    1.9040 C.3       2 UNK        -0.2002 
     79 N         -47.3968  -26.4277    3.7225 N.am      2 UNK        -0.4032 
     80 C         -48.2866  -26.2625    4.7136 C.2       1 UNK         0.5000 
     81 O         -48.4544  -25.1942    5.3064 O.2       1 UNK        -0.5238 
     82 H82       -46.4235  -30.1054    7.7785 H         1 UNK         0.0889 
     83 H83       -45.3155  -29.6424    6.4841 H         1 UNK         0.0889 
     84 H84       -46.7124  -30.6630    6.1301 H         1 UNK         0.0889 
     85 H85       -48.2151  -29.4699    4.9824 H         1 UNK         0.3028 
     86 H86       -49.5783  -27.8794    4.2612 H         1 UNK         0.0864 
     87 H87       -50.8154  -26.5175    5.9228 H         1 UNK         0.0720 
     88 H88       -49.6451  -26.8923    7.1620 H         1 UNK         0.0720 
     89 H89       -52.9982  -27.4744    6.2776 H         1 UNK         0.0814 
     90 H90       -53.3890  -29.0286    6.9624 H         1 UNK         0.0814 
     91 H91       -53.1165  -25.5909    7.7542 H         1 UNK         0.1469 
     92 H92       -53.1589  -26.1390   12.0065 H         1 UNK         0.1381 
     93 H93       -52.4918  -29.4918    9.4227 H         1 UNK         0.1206 
     94 H94       -52.7154  -28.2417   12.9773 H         1 UNK         0.0813 
     95 H95       -51.7583  -29.3617   12.0354 H         1 UNK         0.0813 
     96 H96       -53.1662  -31.5725   13.6743 H         1 UNK         0.0638 
     97 H97       -53.4446  -30.0174   14.4228 H         1 UNK         0.0638 
     98 H98       -55.6314  -32.0080   13.6361 H         1 UNK         0.0568 
     99 H99       -54.5280  -33.7445   14.8009 H         1 UNK         0.3450 
    100 H100      -54.4938  -33.7288   16.5445 H         1 UNK         0.3450 
    101 H101      -55.8398  -29.2444   14.4103 H         1 UNK         0.2987 
    102 H102      -59.3213  -29.2838   13.9954 H         1 UNK         0.0766 
    103 H103      -59.4170  -29.6973   16.4571 H         1 UNK         0.0798 
    104 H104      -59.5713  -27.9841   16.1082 H         1 UNK         0.0798 
    105 H105      -58.0430  -28.6306   16.7098 H         1 UNK         0.0798 
    106 H106      -57.3980  -27.2542   14.7745 H         1 UNK         0.3198 
    107 H107      -55.6965  -26.9265   11.8875 H         1 UNK         0.0843 
    108 H108      -57.6636  -25.8599   10.7709 H         1 UNK         0.0831 
    109 H109      -56.5143  -24.6587   11.3264 H         1 UNK         0.0831 
    110 H110      -58.0055  -24.9403   12.2295 H         1 UNK         0.0831 
    111 H111      -55.9993  -24.8638   13.7430 H         1 UNK         0.3133 
    112 H112      -54.1759  -24.5984   15.1830 H         1 UNK         0.0566 
    113 H113      -55.0394  -24.6629   17.5351 H         1 UNK         0.0814 
    114 H114      -55.7482  -26.2520   17.2476 H         1 UNK         0.0814 
    115 H115      -56.3581  -24.8417   16.3932 H         1 UNK         0.0814 
    116 H116      -53.2978  -26.5297   17.1308 H         1 UNK         0.3091 
    117 H117      -51.0104  -26.8363   17.2991 H         1 UNK         0.0702 
    118 H118      -50.4203  -29.1808   16.6301 H         1 UNK         0.0785 
    119 H119      -51.1227  -28.9212   15.0339 H         1 UNK         0.0785 
    120 H120      -52.1508  -28.9307   16.4606 H         1 UNK         0.0785 
    121 H121      -49.7083  -26.3944   14.7197 H         1 UNK         0.2998 
    122 H122      -46.5107  -26.0125   16.3511 H         1 UNK         0.0697 
    123 H123      -47.3986  -27.7567   13.9924 H         1 UNK         0.0825 
    124 H124      -46.4320  -28.2735   15.3643 H         1 UNK         0.0825 
    125 H125      -45.7798  -27.1005   14.2316 H         1 UNK         0.0825 
    126 H126      -47.9230  -25.3008   13.8451 H         1 UNK         0.3029 
    127 H127      -48.2095  -21.9126   14.6742 H         1 UNK         0.0897 
    128 H128      -45.8744  -22.9581   12.9831 H         1 UNK         0.0792 
    129 H129      -45.7530  -21.8033   14.3038 H         1 UNK         0.0792 
    130 H130      -46.6149  -21.3651   12.8372 H         1 UNK         0.0792 
    131 H131      -48.1508  -23.4439   12.1855 H         1 UNK         0.3086 
    132 H132      -51.5399  -24.4592   12.3610 H         1 UNK         0.0583 
    133 H133      -52.0152  -22.1641   11.7117 H         1 UNK         0.1020 
    134 H134      -50.4902  -22.0002   10.8880 H         1 UNK         0.1020 
    135 H135      -53.7250  -23.9880   11.1015 H         1 UNK         0.0694 
    136 H136      -54.3217  -23.9626    9.4628 H         1 UNK         0.0694 
    137 H137      -49.8493  -24.5829   10.1736 H         1 UNK         0.2989 
    138 H138      -47.3804  -26.8528   11.1065 H         1 UNK         0.1055 
    139 H139      -49.8299  -27.5985    9.4184 H         1 UNK         0.0806 
    140 H140      -48.2577  -28.3997    9.3747 H         1 UNK         0.0806 
    141 H141      -49.2555  -28.4937   10.8132 H         1 UNK         0.0806 
    142 H142      -47.9013  -26.1089    8.5183 H         1 UNK         0.3061 
    143 H143      -48.0616  -23.6580    7.7571 H         1 UNK         0.0734 
    144 H144      -45.6610  -22.2063    8.9876 H         1 UNK         0.0832 
    145 H145      -46.4963  -21.7308    7.5088 H         1 UNK         0.0832 
    146 H146      -47.3375  -21.6940    9.0502 H         1 UNK         0.0832 
    147 H147      -46.6827  -24.7933    6.4969 H         1 UNK         0.3156 
    148 H148      -43.4013  -24.8450    5.9522 H         1 UNK         0.0589 
    149 H149      -43.1075  -27.3440    6.0335 H         1 UNK         0.0808 
    150 H150      -42.8235  -26.5796    7.5873 H         1 UNK         0.0808 
    151 H151      -44.3293  -27.4322    7.3042 H         1 UNK         0.0808 
    152 H152      -45.6119  -26.6569    5.2627 H         1 UNK         0.3098 
    153 H153      -47.1096  -24.5095    2.9733 H         1 UNK         0.0720 
    154 H154      -45.2017  -25.1140    1.4765 H         1 UNK         0.0791 
    155 H155      -46.6013  -26.1211    1.1511 H         1 UNK         0.0791 
    156 H156      -45.2400  -26.7689    2.0684 H         1 UNK         0.0791 
    157 H157      -47.3086  -27.3444    3.3071 H         1 UNK         0.3028 
@<TRIPOS>BOND
     1    1    2 1    
     2    1   82 1    
     3    1   83 1    
     4    1   84 1    
     5    2    3 2    
     6    2    4 am   BACKBONE|DICT|INTERRES
     7    4    5 1    
     8    4   85 1    
     9    5    6 1    
    10    5   80 1    
    11    5   86 1    
    12    6    7 1    
    13    6   87 1    
    14    6   88 1    
    15    7    8 1    
    16    8    9 1    
    17    8   89 1    
    18    8   90 1    
    19    9   10 ar   
    20    9   14 ar   
    21   10   11 ar   
    22   10   91 1    
    23   11   12 ar   
    24   11   58 1    
    25   12   13 ar   
    26   12   92 1    
    27   13   14 ar   
    28   13   15 1    
    29   14   93 1    
    30   15   16 1    
    31   15   94 1    
    32   15   95 1    
    33   16   17 1    
    34   17   18 1    
    35   17   96 1    
    36   17   97 1    
    37   18   19 1    
    38   18   22 1    
    39   18   98 1    
    40   19   20 am   BACKBONE|DICT|INTERRES
    41   19   21 2    
    42   20   99 1    
    43   20  100 1    
    44   22   23 am   BACKBONE|DICT|INTERRES
    45   22  101 1    
    46   23   24 2    
    47   23   25 1    
    48   25   26 1    
    49   25   27 1    
    50   25  102 1    
    51   26  103 1    
    52   26  104 1    
    53   26  105 1    
    54   27   28 am   BACKBONE|DICT|INTERRES
    55   27  106 1    
    56   28   29 2    
    57   28   30 1    
    58   30   31 1    
    59   30   32 1    
    60   30  107 1    
    61   31  108 1    
    62   31  109 1    
    63   31  110 1    
    64   32   33 am   BACKBONE|DICT|INTERRES
    65   32  111 1    
    66   33   34 2    
    67   33   35 1    
    68   35   36 1    
    69   35   37 1    
    70   35  112 1    
    71   36  113 1    
    72   36  114 1    
    73   36  115 1    
    74   37   38 am   BACKBONE|DICT|INTERRES
    75   37  116 1    
    76   38   39 2    
    77   38   40 1    
    78   40   41 1    
    79   40   42 1    
    80   40  117 1    
    81   41  118 1    
    82   41  119 1    
    83   41  120 1    
    84   42   43 am   BACKBONE|DICT|INTERRES
    85   42  121 1    
    86   43   44 2    
    87   43   45 1    
    88   45   46 1    
    89   45   47 1    
    90   45  122 1    
    91   46  123 1    
    92   46  124 1    
    93   46  125 1    
    94   47   48 am   BACKBONE|DICT|INTERRES
    95   47  126 1    
    96   48   49 2    
    97   48   50 1    
    98   50   51 1    
    99   50   52 1    
   100   50  127 1    
   101   51  128 1    
   102   51  129 1    
   103   51  130 1    
   104   52   53 am   BACKBONE|DICT|INTERRES
   105   52  131 1    
   106   53   54 2    
   107   53   55 1    
   108   55   56 1    
   109   55   59 1    
   110   55  132 1    
   111   56   57 1    
   112   56  133 1    
   113   56  134 1    
   114   57   58 1    
   115   58  135 1    
   116   58  136 1    
   117   59   60 am   BACKBONE|DICT|INTERRES
   118   59  137 1    
   119   60   61 2    
   120   60   62 1    
   121   62   63 1    
   122   62   64 1    
   123   62  138 1    
   124   63  139 1    
   125   63  140 1    
   126   63  141 1    
   127   64   65 am   BACKBONE|DICT|INTERRES
   128   64  142 1    
   129   65   66 2    
   130   65   67 1    
   131   67   68 1    
   132   67   69 1    
   133   67  143 1    
   134   68  144 1    
   135   68  145 1    
   136   68  146 1    
   137   69   70 am   BACKBONE|DICT|INTERRES
   138   69  147 1    
   139   70   71 2    
   140   70   72 1    
   141   72   73 1    
   142   72   74 1    
   143   72  148 1    
   144   73  149 1    
   145   73  150 1    
   146   73  151 1    
   147   74   75 am   BACKBONE|DICT|INTERRES
   148   74  152 1    
   149   75   76 2    
   150   75   77 1    
   151   77   78 1    
   152   77   79 1    
   153   77  153 1    
   154   78  154 1    
   155   78  155 1    
   156   78  156 1    
   157   79   80 am   BACKBONE|DICT|INTERRES
   158   79  157 1    
   159   80   81 2    
@<TRIPOS>SUBSTRUCTURE
     1 UNK         1 GROUP             0       ****    0 ROOT    
