@<TRIPOS>MOLECULE
3R207
157   159    1
SMALL
USER_CHARGES


@<TRIPOS>ATOM
      1 CA        -46.4153  -28.6002    3.6555 C.3       0 UNK        -0.1975 
      2 C         -47.7891  -28.5828    4.3093 C.2       0 UNK         0.4852 
      3 O         -47.8746  -28.3709    5.5196 O.2       0 UNK        -0.5216 
      4 N         -48.8458  -28.8033    3.5085 N.am      1 UNK        -0.4461 
      5 CA        -50.2759  -28.8242    3.8607 C.3       1 UNK         0.0864 
      6 C6        -50.8244  -30.2147    4.3057 C.3       14 UNK        -0.0898 
      7 S7        -49.8466  -31.1214    5.5535 S.3       14 UNK        -0.2598 
      8 C8        -51.1337  -31.8093    6.6413 C.3       14 UNK         0.0286 
      9 C9        -51.4945  -30.8563    7.7705 C.ar      14 UNK        -0.0844 
     10 C10       -50.5518  -30.5699    8.7617 C.ar      14 UNK        -0.0881 
     11 C11       -50.8711  -29.7256    9.8280 C.ar      14 UNK        -0.0643 
     12 C12       -52.1538  -29.1750    9.9075 C.ar      14 UNK        -0.0930 
     13 C13       -53.1094  -29.4627    8.9273 C.ar      14 UNK        -0.0827 
     14 C14       -52.7729  -30.2970    7.8558 C.ar      14 UNK        -0.1249 
     15 C15       -54.5071  -28.8750    9.0351 C.3       14 UNK         0.0141 
     16 S16       -55.5348  -29.8458   10.1786 S.3       14 UNK        -0.2313 
     17 C17       -57.0693  -28.8570   10.1988 C.3       14 UNK        -0.0915 
     18 CA        -57.3514  -28.0303   11.4911 C.3       13 UNK         0.0968 
     19 C         -57.4640  -28.8589   12.8096 C.2       13 UNK         0.5732 
     20 N         -57.1977  -28.2830   13.9766 N.am      13 UNK        -0.7310 
     21 O         -57.8532  -30.0245   12.7849 O.2       13 UNK        -0.5035 
     22 N         -56.5812  -26.7775   11.5771 N.am      13 UNK        -0.4233 
     23 C         -55.3092  -26.6190   11.9671 C.2       13 UNK         0.4989 
     24 O         -54.5327  -27.5362   12.2307 O.2       13 UNK        -0.4996 
     25 CA        -54.8102  -25.1726   12.1374 C.3       12 UNK         0.0216 
     26 CB        -55.7830  -24.0832   11.6303 C.3       12 UNK        -0.1964 
     27 N         -54.4323  -24.9206   13.5310 N.am      12 UNK        -0.4276 
     28 C         -55.1967  -25.0690   14.6235 C.2       12 UNK         0.5020 
     29 O         -56.3928  -25.3718   14.6019 O.2       12 UNK        -0.5489 
     30 CA        -54.4557  -24.8951   15.9603 C.3       11 UNK         0.0294 
     31 CB        -55.3773  -24.9720   17.1968 C.3       11 UNK        -0.2019 
     32 N         -53.3385  -25.8435   16.0444 N.am      11 UNK        -0.4493 
     33 C         -53.4044  -27.1833   16.1065 C.2       11 UNK         0.4932 
     34 O         -54.4460  -27.8210   16.2612 O.2       11 UNK        -0.5029 
     35 CA        -52.0846  -27.9612   15.9500 C.3       10 UNK         0.0280 
     36 CB        -51.9940  -28.5684   14.5395 C.3       10 UNK        -0.1976 
     37 N         -50.8827  -27.1610   16.1993 N.am      10 UNK        -0.4242 
     38 C         -50.4743  -26.7345   17.4029 C.2       10 UNK         0.5072 
     39 O         -51.0777  -26.9574   18.4530 O.2       10 UNK        -0.5224 
     40 CA        -49.1739  -25.9169   17.4384 C.3       9 UNK         0.0343 
     41 CB        -47.9458  -26.8398   17.3663 C.3       9 UNK        -0.2003 
     42 N         -49.1206  -24.9446   16.3456 N.am      9 UNK        -0.4272 
     43 C         -49.6575  -23.7172   16.3971 C.2       9 UNK         0.4988 
     44 O         -50.2146  -23.2546   17.3929 O.2       9 UNK        -0.5108 
     45 CA        -49.5659  -22.8546   15.1240 C.3       8 UNK         0.0248 
     46 CB        -48.2946  -21.9920   15.1526 C.3       8 UNK        -0.2001 
     47 N         -49.6029  -23.6391   13.8855 N.am      8 UNK        -0.4140 
     48 C         -50.6779  -24.3297   13.4770 C.2       8 UNK         0.5028 
     49 O         -51.7582  -24.3209   14.0670 O.2       8 UNK        -0.5428 
     50 CA        -50.5306  -25.2236   12.2372 C.3       7 UNK         0.0264 
     51 CB        -50.9364  -24.4695   10.9637 C.3       7 UNK        -0.1988 
     52 N         -49.1971  -25.8061   12.0704 N.am      7 UNK        -0.4454 
     53 C         -48.6122  -26.6411   12.9437 C.2       7 UNK         0.5027 
     54 O         -49.1083  -26.9343   14.0317 O.2       7 UNK        -0.5083 
     55 CA        -47.2418  -27.2323   12.5677 C.3       6 UNK         0.0844 
     56 C56       -47.3373  -28.5609   11.7723 C.3       14 UNK        -0.0967 
     57 S57       -48.3925  -28.5478   10.2774 S.3       14 UNK        -0.2604 
     58 C58       -49.8417  -29.4525   10.9126 C.3       14 UNK         0.0134 
     59 N         -46.4058  -26.2257   11.9100 N.am      6 UNK        -0.4116 
     60 C         -45.3544  -25.6308   12.4947 C.2       5 UNK         0.5034 
     61 O         -44.9207  -25.9364   13.6064 O.2       5 UNK        -0.5045 
     62 CA        -44.6575  -24.4889   11.7324 C.3       5 UNK         0.0224 
     63 CB        -43.4621  -25.0315   10.9325 C.3       5 UNK        -0.1978 
     64 N         -45.5313  -23.7334   10.8335 N.am      5 UNK        -0.4737 
     65 C         -46.6360  -23.0655   11.1929 C.2       4 UNK         0.5027 
     66 O         -47.0634  -22.9998   12.3451 O.2       4 UNK        -0.5211 
     67 CA        -47.4324  -22.4080   10.0539 C.3       4 UNK         0.0297 
     68 CB        -46.9059  -20.9888    9.7886 C.3       4 UNK        -0.1993 
     69 N         -47.4483  -23.1682    8.7947 N.am      4 UNK        -0.4486 
     70 C         -47.7701  -24.4631    8.6571 C.2       3 UNK         0.4961 
     71 O         -47.9906  -25.2248    9.6018 O.2       3 UNK        -0.5105 
     72 CA        -47.8098  -25.0080    7.2201 C.3       3 UNK         0.0299 
     73 CB        -46.4655  -25.6635    6.8678 C.3       3 UNK        -0.1972 
     74 N         -48.8891  -25.9821    7.0373 N.am      3 UNK        -0.4305 
     75 C         -50.1942  -25.7070    7.1856 C.2       2 UNK         0.5006 
     76 O         -50.6306  -24.5706    7.3835 O.2       2 UNK        -0.5106 
     77 CA        -51.1733  -26.8954    7.1011 C.3       2 UNK         0.0296 
     78 CB        -52.6448  -26.4493    6.9583 C.3       2 UNK        -0.2002 
     79 N         -50.8259  -27.8703    6.0620 N.am      2 UNK        -0.4032 
     80 C         -50.7026  -27.6363    4.7478 C.2       1 UNK         0.5000 
     81 O         -50.8977  -26.5407    4.2161 O.2       1 UNK        -0.5238 
     82 H82       -46.4711  -28.8181    2.5892 H         1 UNK         0.0889 
     83 H83       -45.7891  -29.3588    4.1241 H         1 UNK         0.0889 
     84 H84       -45.9292  -27.6330    3.7797 H         1 UNK         0.0889 
     85 H85       -48.6645  -28.9497    2.5255 H         1 UNK         0.3028 
     86 H86       -50.7764  -28.6201    2.9122 H         1 UNK         0.0864 
     87 H87       -50.8708  -30.8635    3.4298 H         1 UNK         0.0720 
     88 H88       -51.8593  -30.1242    4.6416 H         1 UNK         0.0720 
     89 H89       -50.7598  -32.7376    7.0756 H         1 UNK         0.0814 
     90 H90       -52.0121  -32.0848    6.0555 H         1 UNK         0.0814 
     91 H91       -49.5640  -31.0074    8.7047 H         1 UNK         0.1469 
     92 H92       -52.4188  -28.5357   10.7392 H         1 UNK         0.1381 
     93 H93       -53.5124  -30.5244    7.1001 H         1 UNK         0.1206 
     94 H94       -54.9861  -28.8467    8.0553 H         1 UNK         0.0813 
     95 H95       -54.4455  -27.8423    9.3798 H         1 UNK         0.0813 
     96 H96       -57.8929  -29.5538   10.0347 H         1 UNK         0.0638 
     97 H97       -57.0832  -28.1959    9.3312 H         1 UNK         0.0638 
     98 H98       -58.3725  -27.6687   11.3658 H         1 UNK         0.0568 
     99 H99       -57.2777  -28.8248   14.8216 H         1 UNK         0.3450 
    100 H100      -56.8897  -27.3185   14.0283 H         1 UNK         0.3450 
    101 H101      -57.1227  -25.9388   11.4301 H         1 UNK         0.2987 
    102 H102      -53.8968  -25.1019   11.5476 H         1 UNK         0.0766 
    103 H103      -55.3336  -23.0939   11.7175 H         1 UNK         0.0798 
    104 H104      -56.7176  -24.0653   12.1922 H         1 UNK         0.0798 
    105 H105      -56.0254  -24.2273   10.5764 H         1 UNK         0.0798 
    106 H106      -53.4468  -24.7036   13.6878 H         1 UNK         0.3198 
    107 H107      -54.0124  -23.8979   15.9448 H         1 UNK         0.0843 
    108 H108      -55.9169  -25.9176   17.2512 H         1 UNK         0.0831 
    109 H109      -56.1252  -24.1789   17.1682 H         1 UNK         0.0831 
    110 H110      -54.8117  -24.8538   18.1208 H         1 UNK         0.0831 
    111 H111      -52.4302  -25.4412   15.8463 H         1 UNK         0.3133 
    112 H112      -52.0995  -28.7800   16.6722 H         1 UNK         0.0566 
    113 H113      -51.9879  -27.7965   13.7700 H         1 UNK         0.0814 
    114 H114      -51.0933  -29.1706   14.4195 H         1 UNK         0.0814 
    115 H115      -52.8485  -29.2156   14.3359 H         1 UNK         0.0814 
    116 H116      -50.2839  -26.9821   15.3944 H         1 UNK         0.3091 
    117 H117      -49.1365  -25.3870   18.3929 H         1 UNK         0.0702 
    118 H118      -47.0190  -26.2709   17.4432 H         1 UNK         0.0785 
    119 H119      -47.9133  -27.4065   16.4351 H         1 UNK         0.0785 
    120 H120      -47.9524  -27.5601   18.1855 H         1 UNK         0.0785 
    121 H121      -48.7273  -25.2669   15.4714 H         1 UNK         0.2998 
    122 H122      -50.4287  -22.1851   15.1198 H         1 UNK         0.0697 
    123 H123      -47.3914  -22.6034   15.1322 H         1 UNK         0.0825 
    124 H124      -48.2559  -21.3807   16.0553 H         1 UNK         0.0825 
    125 H125      -48.2571  -21.3132   14.3004 H         1 UNK         0.0825 
    126 H126      -48.7532  -23.6599   13.3291 H         1 UNK         0.3029 
    127 H127      -51.2286  -26.0533   12.3624 H         1 UNK         0.0897 
    128 H128      -50.2149  -23.6978   10.7042 H         1 UNK         0.0792 
    129 H129      -51.9027  -23.9786   11.0800 H         1 UNK         0.0792 
    130 H130      -51.0168  -25.1491   10.1155 H         1 UNK         0.0792 
    131 H131      -48.7390  -25.6308   11.1764 H         1 UNK         0.3086 
    132 H132      -46.7834  -27.5030   13.5211 H         1 UNK         0.0583 
    133 H133      -46.3362  -28.8711   11.4689 H         1 UNK         0.1020 
    134 H134      -47.6809  -29.3516   12.4416 H         1 UNK         0.1020 
    135 H135      -49.5198  -30.4062   11.3332 H         1 UNK         0.0694 
    136 H136      -50.2866  -28.8852   11.7317 H         1 UNK         0.0694 
    137 H137      -46.7222  -25.8976   11.0030 H         1 UNK         0.2989 
    138 H138      -44.2815  -23.7890   12.4821 H         1 UNK         0.1055 
    139 H139      -42.7755  -25.5799   11.5794 H         1 UNK         0.0806 
    140 H140      -42.8923  -24.2245   10.4713 H         1 UNK         0.0806 
    141 H141      -43.7806  -25.7137   10.1431 H         1 UNK         0.0806 
    142 H142      -45.2865  -23.7377    9.8540 H         1 UNK         0.3061 
    143 H143      -48.4648  -22.3191   10.3923 H         1 UNK         0.0734 
    144 H144      -47.5326  -20.4585    9.0714 H         1 UNK         0.0832 
    145 H145      -46.8985  -20.3978   10.7058 H         1 UNK         0.0832 
    146 H146      -45.8862  -21.0008    9.4014 H         1 UNK         0.0832 
    147 H147      -47.2661  -22.6358    7.9557 H         1 UNK         0.3156 
    148 H148      -47.9881  -24.1799    6.5313 H         1 UNK         0.0589 
    149 H149      -46.2696  -26.5368    7.4922 H         1 UNK         0.0808 
    150 H150      -46.4434  -25.9851    5.8268 H         1 UNK         0.0808 
    151 H151      -45.6372  -24.9677    7.0075 H         1 UNK         0.0808 
    152 H152      -48.6094  -26.9342    6.8222 H         1 UNK         0.3098 
    153 H153      -51.0752  -27.4207    8.0501 H         1 UNK         0.0720 
    154 H154      -53.3122  -27.3045    6.8626 H         1 UNK         0.0791 
    155 H155      -52.7909  -25.8151    6.0833 H         1 UNK         0.0791 
    156 H156      -52.9657  -25.8804    7.8316 H         1 UNK         0.0791 
    157 H157      -50.5934  -28.8000    6.3904 H         1 UNK         0.3028 
@<TRIPOS>BOND
     1    1    2 1    
     2    1   82 1    
     3    1   83 1    
     4    1   84 1    
     5    2    3 2    
     6    2    4 am   BACKBONE|DICT|INTERRES
     7    4    5 1    
     8    4   85 1    
     9    5    6 1    
    10    5   80 1    
    11    5   86 1    
    12    6    7 1    
    13    6   87 1    
    14    6   88 1    
    15    7    8 1    
    16    8    9 1    
    17    8   89 1    
    18    8   90 1    
    19    9   10 ar   
    20    9   14 ar   
    21   10   11 ar   
    22   10   91 1    
    23   11   12 ar   
    24   11   58 1    
    25   12   13 ar   
    26   12   92 1    
    27   13   14 ar   
    28   13   15 1    
    29   14   93 1    
    30   15   16 1    
    31   15   94 1    
    32   15   95 1    
    33   16   17 1    
    34   17   18 1    
    35   17   96 1    
    36   17   97 1    
    37   18   19 1    
    38   18   22 1    
    39   18   98 1    
    40   19   20 am   BACKBONE|DICT|INTERRES
    41   19   21 2    
    42   20   99 1    
    43   20  100 1    
    44   22   23 am   BACKBONE|DICT|INTERRES
    45   22  101 1    
    46   23   24 2    
    47   23   25 1    
    48   25   26 1    
    49   25   27 1    
    50   25  102 1    
    51   26  103 1    
    52   26  104 1    
    53   26  105 1    
    54   27   28 am   BACKBONE|DICT|INTERRES
    55   27  106 1    
    56   28   29 2    
    57   28   30 1    
    58   30   31 1    
    59   30   32 1    
    60   30  107 1    
    61   31  108 1    
    62   31  109 1    
    63   31  110 1    
    64   32   33 am   BACKBONE|DICT|INTERRES
    65   32  111 1    
    66   33   34 2    
    67   33   35 1    
    68   35   36 1    
    69   35   37 1    
    70   35  112 1    
    71   36  113 1    
    72   36  114 1    
    73   36  115 1    
    74   37   38 am   BACKBONE|DICT|INTERRES
    75   37  116 1    
    76   38   39 2    
    77   38   40 1    
    78   40   41 1    
    79   40   42 1    
    80   40  117 1    
    81   41  118 1    
    82   41  119 1    
    83   41  120 1    
    84   42   43 am   BACKBONE|DICT|INTERRES
    85   42  121 1    
    86   43   44 2    
    87   43   45 1    
    88   45   46 1    
    89   45   47 1    
    90   45  122 1    
    91   46  123 1    
    92   46  124 1    
    93   46  125 1    
    94   47   48 am   BACKBONE|DICT|INTERRES
    95   47  126 1    
    96   48   49 2    
    97   48   50 1    
    98   50   51 1    
    99   50   52 1    
   100   50  127 1    
   101   51  128 1    
   102   51  129 1    
   103   51  130 1    
   104   52   53 am   BACKBONE|DICT|INTERRES
   105   52  131 1    
   106   53   54 2    
   107   53   55 1    
   108   55   56 1    
   109   55   59 1    
   110   55  132 1    
   111   56   57 1    
   112   56  133 1    
   113   56  134 1    
   114   57   58 1    
   115   58  135 1    
   116   58  136 1    
   117   59   60 am   BACKBONE|DICT|INTERRES
   118   59  137 1    
   119   60   61 2    
   120   60   62 1    
   121   62   63 1    
   122   62   64 1    
   123   62  138 1    
   124   63  139 1    
   125   63  140 1    
   126   63  141 1    
   127   64   65 am   BACKBONE|DICT|INTERRES
   128   64  142 1    
   129   65   66 2    
   130   65   67 1    
   131   67   68 1    
   132   67   69 1    
   133   67  143 1    
   134   68  144 1    
   135   68  145 1    
   136   68  146 1    
   137   69   70 am   BACKBONE|DICT|INTERRES
   138   69  147 1    
   139   70   71 2    
   140   70   72 1    
   141   72   73 1    
   142   72   74 1    
   143   72  148 1    
   144   73  149 1    
   145   73  150 1    
   146   73  151 1    
   147   74   75 am   BACKBONE|DICT|INTERRES
   148   74  152 1    
   149   75   76 2    
   150   75   77 1    
   151   77   78 1    
   152   77   79 1    
   153   77  153 1    
   154   78  154 1    
   155   78  155 1    
   156   78  156 1    
   157   79   80 am   BACKBONE|DICT|INTERRES
   158   79  157 1    
   159   80   81 2    
@<TRIPOS>SUBSTRUCTURE
     1 UNK         1 GROUP             0       ****    0 ROOT    
