@<TRIPOS>MOLECULE
3R207
157   159    1
SMALL
USER_CHARGES


@<TRIPOS>ATOM
      1 CA        -44.3004  -27.1356   10.2177 C.3       0 UNK        -0.1975 
      2 C         -45.1469  -27.5433    9.0218 C.2       0 UNK         0.4852 
      3 O         -45.7215  -26.6774    8.3623 O.2       0 UNK        -0.5216 
      4 N         -45.2010  -28.8527    8.7334 N.am      1 UNK        -0.4461 
      5 CA        -45.9601  -29.5148    7.6589 C.3       1 UNK         0.0864 
      6 C6        -47.4179  -29.8825    8.0538 C.3       14 UNK        -0.0898 
      7 S7        -48.5222  -28.5017    8.5153 S.3       14 UNK        -0.2598 
      8 C8        -50.0212  -28.9492    7.5870 C.3       14 UNK         0.0286 
      9 C9        -51.2644  -28.3358    8.2097 C.ar      14 UNK        -0.0844 
     10 C10       -51.9311  -27.2776    7.5869 C.ar      14 UNK        -0.0881 
     11 C11       -53.0935  -26.7457    8.1538 C.ar      14 UNK        -0.0643 
     12 C12       -53.5918  -27.2863    9.3417 C.ar      14 UNK        -0.0930 
     13 C13       -52.9076  -28.3142   10.0022 C.ar      14 UNK        -0.0827 
     14 C14       -51.7568  -28.8455    9.4142 C.ar      14 UNK        -0.1249 
     15 C15       -53.3734  -28.8710   11.3463 C.3       14 UNK         0.0141 
     16 S16       -54.1625  -27.6348   12.4317 S.3       14 UNK        -0.2313 
     17 C17       -55.9204  -27.9521   12.0613 C.3       14 UNK        -0.0915 
     18 CA        -56.8754  -26.7954   12.4852 C.3       13 UNK         0.0968 
     19 C         -58.3525  -27.0747   12.0699 C.2       13 UNK         0.5732 
     20 N         -59.3485  -26.7162   12.8718 N.am      13 UNK        -0.7310 
     21 O         -58.6069  -27.5935   10.9854 O.2       13 UNK        -0.5035 
     22 N         -56.7093  -26.3584   13.8858 N.am      13 UNK        -0.4233 
     23 C         -56.7889  -27.1388   14.9706 C.2       13 UNK         0.4989 
     24 O         -57.0006  -28.3534   14.9501 O.2       13 UNK        -0.4996 
     25 CA        -56.6068  -26.4469   16.3224 C.3       12 UNK         0.0216 
     26 CB        -57.9567  -26.2538   17.0382 C.3       12 UNK        -0.1964 
     27 N         -55.7157  -27.2842   17.1145 N.am      12 UNK        -0.4276 
     28 C         -54.9752  -26.8777   18.1496 C.2       12 UNK         0.5020 
     29 O         -55.0554  -25.7569   18.6546 O.2       12 UNK        -0.5489 
     30 CA        -53.9520  -27.8854   18.7084 C.3       11 UNK         0.0294 
     31 CB        -54.5755  -28.7038   19.8511 C.3       11 UNK        -0.2019 
     32 N         -53.3755  -28.8007   17.7115 N.am      11 UNK        -0.4493 
     33 C         -52.6972  -28.4229   16.6187 C.2       11 UNK         0.4932 
     34 O         -52.5485  -27.2487   16.2717 O.2       11 UNK        -0.5029 
     35 CA        -52.0794  -29.5426   15.7701 C.3       10 UNK         0.0280 
     36 CB        -53.1512  -30.3288   14.9950 C.3       10 UNK        -0.1976 
     37 N         -51.1469  -28.9124   14.8424 N.am      10 UNK        -0.4242 
     38 C         -49.9637  -29.3932   14.4482 C.2       10 UNK         0.5072 
     39 O         -49.5773  -30.5398   14.6797 O.2       10 UNK        -0.5224 
     40 CA        -49.0381  -28.4229   13.6849 C.3       9 UNK         0.0343 
     41 CB        -49.1391  -28.6642   12.1707 C.3       9 UNK        -0.2003 
     42 N         -49.3074  -27.0058   13.9614 N.am      9 UNK        -0.4272 
     43 C         -49.1274  -26.4009   15.1472 C.2       9 UNK         0.4988 
     44 O         -48.6170  -26.9541   16.1217 O.2       9 UNK        -0.5108 
     45 CA        -49.6457  -24.9619   15.2959 C.3       8 UNK         0.0248 
     46 CB        -48.6197  -23.9281   14.8068 C.3       8 UNK        -0.2001 
     47 N         -50.9118  -24.7894   14.5823 N.am      8 UNK        -0.4140 
     48 C         -52.0204  -24.2358   15.0916 C.2       8 UNK         0.5028 
     49 O         -52.0623  -23.6787   16.1905 O.2       8 UNK        -0.5428 
     50 CA        -53.3090  -24.3462   14.2462 C.3       7 UNK         0.0264 
     51 CB        -54.2858  -23.1739   14.4803 C.3       7 UNK        -0.1988 
     52 N         -53.0683  -24.5608   12.8120 N.am      7 UNK        -0.4454 
     53 C         -52.4648  -23.7240   11.9549 C.2       7 UNK         0.5027 
     54 O         -52.0809  -22.5885   12.2436 O.2       7 UNK        -0.5083 
     55 CA        -52.2281  -24.2649   10.5312 C.3       6 UNK         0.0844 
     56 C56       -53.2263  -23.6325    9.5235 C.3       14 UNK        -0.0967 
     57 S57       -52.8919  -24.0163    7.7661 S.3       14 UNK        -0.2604 
     58 C58       -53.7992  -25.5709    7.4959 C.3       14 UNK         0.0134 
     59 N         -50.8272  -24.1140   10.1350 N.am      6 UNK        -0.4116 
     60 C         -49.7800  -24.6766   10.7512 C.2       5 UNK         0.5034 
     61 O         -49.8850  -25.3873   11.7553 O.2       5 UNK        -0.5045 
     62 CA        -48.3920  -24.4061   10.1317 C.3       5 UNK         0.0224 
     63 CB        -47.2397  -24.9820   10.9735 C.3       5 UNK        -0.1978 
     64 N         -48.2714  -24.9373    8.7722 N.am      5 UNK        -0.4737 
     65 C         -48.8512  -24.4282    7.6786 C.2       4 UNK         0.5027 
     66 O         -49.5361  -23.4037    7.6856 O.2       4 UNK        -0.5211 
     67 CA        -48.5725  -25.1783    6.3657 C.3       4 UNK         0.0297 
     68 CB        -49.3865  -24.6445    5.1684 C.3       4 UNK        -0.1993 
     69 N         -47.1353  -25.2017    6.0800 N.am      4 UNK        -0.4486 
     70 C         -46.3252  -24.1514    5.8668 C.2       3 UNK         0.4961 
     71 O         -46.7141  -22.9899    5.7398 O.2       3 UNK        -0.5105 
     72 CA        -44.8122  -24.4277    5.8026 C.3       3 UNK         0.0299 
     73 CB        -44.1123  -23.8724    7.0553 C.3       3 UNK        -0.1972 
     74 N         -44.5047  -25.8537    5.6810 N.am      3 UNK        -0.4305 
     75 C         -44.4380  -26.5209    4.5207 C.2       2 UNK         0.5006 
     76 O         -44.5809  -25.9912    3.4180 O.2       2 UNK        -0.5106 
     77 CA        -44.1608  -28.0336    4.5905 C.3       2 UNK         0.0296 
     78 CB        -42.6742  -28.3181    4.3189 C.3       2 UNK        -0.2002 
     79 N         -44.5419  -28.6475    5.8660 N.am      2 UNK        -0.4032 
     80 C         -45.8045  -28.8495    6.2714 C.2       1 UNK         0.5000 
     81 O         -46.7915  -28.5176    5.6115 O.2       1 UNK        -0.5238 
     82 H82       -43.7440  -26.2261    9.9924 H         1 UNK         0.0889 
     83 H83       -43.5838  -27.9102   10.4893 H         1 UNK         0.0889 
     84 H84       -44.9370  -26.9417   11.0799 H         1 UNK         0.0889 
     85 H85       -44.6839  -29.4865    9.3269 H         1 UNK         0.3028 
     86 H86       -45.4550  -30.4744    7.5341 H         1 UNK         0.0864 
     87 H87       -47.8729  -30.4613    7.2483 H         1 UNK         0.0720 
     88 H88       -47.3914  -30.5597    8.9086 H         1 UNK         0.0720 
     89 H89       -50.1419  -30.0334    7.5773 H         1 UNK         0.0814 
     90 H90       -49.9045  -28.6410    6.5468 H         1 UNK         0.0814 
     91 H91       -51.5475  -26.8627    6.6650 H         1 UNK         0.1469 
     92 H92       -54.4899  -26.8665    9.7696 H         1 UNK         0.1381 
     93 H93       -51.2278  -29.6538    9.9009 H         1 UNK         0.1206 
     94 H94       -52.5188  -29.2770   11.8899 H         1 UNK         0.0813 
     95 H95       -54.0495  -29.7096   11.1757 H         1 UNK         0.0813 
     96 H96       -56.2057  -28.8878   12.5437 H         1 UNK         0.0638 
     97 H97       -56.0128  -28.1354   10.9898 H         1 UNK         0.0638 
     98 H98       -56.5924  -25.9265   11.8902 H         1 UNK         0.0568 
     99 H99       -59.1625  -26.2790   13.7590 H         1 UNK         0.3450 
    100 H100      -60.2982  -26.8919   12.5840 H         1 UNK         0.3450 
    101 H101      -56.5638  -25.3677   14.0097 H         1 UNK         0.2987 
    102 H102      -56.1332  -25.4744   16.1692 H         1 UNK         0.0766 
    103 H103      -58.6322  -25.6400   16.4411 H         1 UNK         0.0798 
    104 H104      -57.8307  -25.7533   17.9984 H         1 UNK         0.0798 
    105 H105      -58.4547  -27.2069   17.2216 H         1 UNK         0.0798 
    106 H106      -55.5865  -28.2207   16.7520 H         1 UNK         0.3198 
    107 H107      -53.1262  -27.3014   19.1209 H         1 UNK         0.0843 
    108 H108      -55.3851  -29.3426   19.4959 H         1 UNK         0.0831 
    109 H109      -54.9912  -28.0485   20.6181 H         1 UNK         0.0831 
    110 H110      -53.8342  -29.3375   20.3385 H         1 UNK         0.0831 
    111 H111      -53.4505  -29.7879   17.9128 H         1 UNK         0.3133 
    112 H112      -51.5350  -30.2169   16.4346 H         1 UNK         0.0566 
    113 H113      -52.7002  -31.0370   14.2997 H         1 UNK         0.0814 
    114 H114      -53.8051  -29.6701   14.4251 H         1 UNK         0.0814 
    115 H115      -53.7841  -30.9014   15.6734 H         1 UNK         0.0814 
    116 H116      -51.3508  -27.9352   14.6743 H         1 UNK         0.3091 
    117 H117      -48.0144  -28.6373   13.9983 H         1 UNK         0.0702 
    118 H118      -48.3818  -28.0992   11.6287 H         1 UNK         0.0785 
    119 H119      -50.1132  -28.3677   11.7813 H         1 UNK         0.0785 
    120 H120      -48.9916  -29.7165   11.9240 H         1 UNK         0.0785 
    121 H121      -49.6192  -26.4517   13.1654 H         1 UNK         0.2998 
    122 H122      -49.8015  -24.8029   16.3651 H         1 UNK         0.0697 
    123 H123      -48.5153  -23.9479   13.7239 H         1 UNK         0.0825 
    124 H124      -47.6357  -24.1099   15.2411 H         1 UNK         0.0825 
    125 H125      -48.9190  -22.9188   15.0894 H         1 UNK         0.0825 
    126 H126      -50.9537  -25.1694   13.6456 H         1 UNK         0.3029 
    127 H127      -53.8022  -25.2530   14.6009 H         1 UNK         0.0897 
    128 H128      -53.8277  -22.2131   14.2442 H         1 UNK         0.0792 
    129 H129      -54.6024  -23.1327   15.5233 H         1 UNK         0.0792 
    130 H130      -55.1846  -23.2751   13.8727 H         1 UNK         0.0792 
    131 H131      -53.3343  -25.4784   12.4727 H         1 UNK         0.3086 
    132 H132      -52.4055  -25.3377   10.5593 H         1 UNK         0.0583 
    133 H133      -54.2479  -23.9324    9.7641 H         1 UNK         0.1020 
    134 H134      -53.2084  -22.5444    9.6139 H         1 UNK         0.1020 
    135 H135      -54.8227  -25.4690    7.8601 H         1 UNK         0.0694 
    136 H136      -53.8733  -25.7522    6.4227 H         1 UNK         0.0694 
    137 H137      -50.6515  -23.6016    9.2757 H         1 UNK         0.2989 
    138 H138      -48.2650  -23.3221   10.0905 H         1 UNK         0.1055 
    139 H139      -46.2726  -24.7418   10.5315 H         1 UNK         0.0806 
    140 H140      -47.3088  -26.0665   11.0573 H         1 UNK         0.0806 
    141 H141      -47.2387  -24.5734   11.9824 H         1 UNK         0.0806 
    142 H142      -47.6887  -25.7617    8.6643 H         1 UNK         0.3061 
    143 H143      -48.8710  -26.2149    6.5264 H         1 UNK         0.0734 
    144 H144      -49.1661  -23.5982    4.9557 H         1 UNK         0.0832 
    145 H145      -49.1874  -25.2211    4.2654 H         1 UNK         0.0832 
    146 H146      -50.4564  -24.7121    5.3702 H         1 UNK         0.0832 
    147 H147      -46.6921  -26.1023    6.2140 H         1 UNK         0.3156 
    148 H148      -44.4165  -23.8975    4.9337 H         1 UNK         0.0589 
    149 H149      -44.4933  -24.3292    7.9693 H         1 UNK         0.0808 
    150 H150      -44.2683  -22.7963    7.1432 H         1 UNK         0.0808 
    151 H151      -43.0360  -24.0404    7.0177 H         1 UNK         0.0808 
    152 H152      -44.4366  -26.3695    6.5490 H         1 UNK         0.3098 
    153 H153      -44.7473  -28.5070    3.7999 H         1 UNK         0.0720 
    154 H154      -42.3657  -27.9001    3.3595 H         1 UNK         0.0791 
    155 H155      -42.4747  -29.3892    4.2814 H         1 UNK         0.0791 
    156 H156      -42.0320  -27.8819    5.0853 H         1 UNK         0.0791 
    157 H157      -43.7894  -28.9372    6.4745 H         1 UNK         0.3028 
@<TRIPOS>BOND
     1    1    2 1    
     2    1   82 1    
     3    1   83 1    
     4    1   84 1    
     5    2    3 2    
     6    2    4 am   BACKBONE|DICT|INTERRES
     7    4    5 1    
     8    4   85 1    
     9    5    6 1    
    10    5   80 1    
    11    5   86 1    
    12    6    7 1    
    13    6   87 1    
    14    6   88 1    
    15    7    8 1    
    16    8    9 1    
    17    8   89 1    
    18    8   90 1    
    19    9   10 ar   
    20    9   14 ar   
    21   10   11 ar   
    22   10   91 1    
    23   11   12 ar   
    24   11   58 1    
    25   12   13 ar   
    26   12   92 1    
    27   13   14 ar   
    28   13   15 1    
    29   14   93 1    
    30   15   16 1    
    31   15   94 1    
    32   15   95 1    
    33   16   17 1    
    34   17   18 1    
    35   17   96 1    
    36   17   97 1    
    37   18   19 1    
    38   18   22 1    
    39   18   98 1    
    40   19   20 am   BACKBONE|DICT|INTERRES
    41   19   21 2    
    42   20   99 1    
    43   20  100 1    
    44   22   23 am   BACKBONE|DICT|INTERRES
    45   22  101 1    
    46   23   24 2    
    47   23   25 1    
    48   25   26 1    
    49   25   27 1    
    50   25  102 1    
    51   26  103 1    
    52   26  104 1    
    53   26  105 1    
    54   27   28 am   BACKBONE|DICT|INTERRES
    55   27  106 1    
    56   28   29 2    
    57   28   30 1    
    58   30   31 1    
    59   30   32 1    
    60   30  107 1    
    61   31  108 1    
    62   31  109 1    
    63   31  110 1    
    64   32   33 am   BACKBONE|DICT|INTERRES
    65   32  111 1    
    66   33   34 2    
    67   33   35 1    
    68   35   36 1    
    69   35   37 1    
    70   35  112 1    
    71   36  113 1    
    72   36  114 1    
    73   36  115 1    
    74   37   38 am   BACKBONE|DICT|INTERRES
    75   37  116 1    
    76   38   39 2    
    77   38   40 1    
    78   40   41 1    
    79   40   42 1    
    80   40  117 1    
    81   41  118 1    
    82   41  119 1    
    83   41  120 1    
    84   42   43 am   BACKBONE|DICT|INTERRES
    85   42  121 1    
    86   43   44 2    
    87   43   45 1    
    88   45   46 1    
    89   45   47 1    
    90   45  122 1    
    91   46  123 1    
    92   46  124 1    
    93   46  125 1    
    94   47   48 am   BACKBONE|DICT|INTERRES
    95   47  126 1    
    96   48   49 2    
    97   48   50 1    
    98   50   51 1    
    99   50   52 1    
   100   50  127 1    
   101   51  128 1    
   102   51  129 1    
   103   51  130 1    
   104   52   53 am   BACKBONE|DICT|INTERRES
   105   52  131 1    
   106   53   54 2    
   107   53   55 1    
   108   55   56 1    
   109   55   59 1    
   110   55  132 1    
   111   56   57 1    
   112   56  133 1    
   113   56  134 1    
   114   57   58 1    
   115   58  135 1    
   116   58  136 1    
   117   59   60 am   BACKBONE|DICT|INTERRES
   118   59  137 1    
   119   60   61 2    
   120   60   62 1    
   121   62   63 1    
   122   62   64 1    
   123   62  138 1    
   124   63  139 1    
   125   63  140 1    
   126   63  141 1    
   127   64   65 am   BACKBONE|DICT|INTERRES
   128   64  142 1    
   129   65   66 2    
   130   65   67 1    
   131   67   68 1    
   132   67   69 1    
   133   67  143 1    
   134   68  144 1    
   135   68  145 1    
   136   68  146 1    
   137   69   70 am   BACKBONE|DICT|INTERRES
   138   69  147 1    
   139   70   71 2    
   140   70   72 1    
   141   72   73 1    
   142   72   74 1    
   143   72  148 1    
   144   73  149 1    
   145   73  150 1    
   146   73  151 1    
   147   74   75 am   BACKBONE|DICT|INTERRES
   148   74  152 1    
   149   75   76 2    
   150   75   77 1    
   151   77   78 1    
   152   77   79 1    
   153   77  153 1    
   154   78  154 1    
   155   78  155 1    
   156   78  156 1    
   157   79   80 am   BACKBONE|DICT|INTERRES
   158   79  157 1    
   159   80   81 2    
@<TRIPOS>SUBSTRUCTURE
     1 UNK         1 GROUP             0       ****    0 ROOT    
