@<TRIPOS>MOLECULE
3R207
157   159    1
SMALL
USER_CHARGES


@<TRIPOS>ATOM
      1 CA        -46.2440  -27.1674    3.6344 C.3       0 UNK        -0.1975 
      2 C         -47.6876  -26.7179    3.4600 C.2       0 UNK         0.4852 
      3 O         -48.0200  -26.1173    2.4375 O.2       0 UNK        -0.5216 
      4 N         -48.5401  -27.0164    4.4481 N.am      1 UNK        -0.4461 
      5 CA        -49.9445  -26.6062    4.5279 C.3       1 UNK         0.0864 
      6 C6        -50.8111  -27.6889    5.2326 C.3       14 UNK        -0.0898 
      7 S7        -50.1858  -28.1959    6.8721 S.3       14 UNK        -0.2598 
      8 C8        -51.3762  -29.4971    7.3167 C.3       14 UNK         0.0286 
      9 C9        -51.2047  -29.9233    8.7677 C.ar      14 UNK        -0.0844 
     10 C10       -50.0201  -30.5397    9.1818 C.ar      14 UNK        -0.0881 
     11 C11       -49.8426  -30.9179   10.5152 C.ar      14 UNK        -0.0643 
     12 C12       -50.8710  -30.6981   11.4353 C.ar      14 UNK        -0.0930 
     13 C13       -52.0626  -30.0855   11.0344 C.ar      14 UNK        -0.0827 
     14 C14       -52.2209  -29.6931    9.7011 C.ar      14 UNK        -0.1249 
     15 C15       -53.1609  -29.8172   12.0521 C.3       14 UNK         0.0141 
     16 S16       -54.6622  -30.7906   11.7223 S.3       14 UNK        -0.2313 
     17 C17       -55.6323  -30.4598   13.2326 C.3       14 UNK        -0.0915 
     18 CA        -56.9865  -29.7582   12.9508 C.3       13 UNK         0.0968 
     19 C         -57.8681  -29.7566   14.2314 C.2       13 UNK         0.5732 
     20 N         -58.6516  -30.8055   14.4438 N.am      13 UNK        -0.7310 
     21 O         -57.8180  -28.8413   15.0506 O.2       13 UNK        -0.5035 
     22 N         -56.7924  -28.4154   12.3839 N.am      13 UNK        -0.4233 
     23 C         -57.7605  -27.6033   11.9447 C.2       13 UNK         0.4989 
     24 O         -58.9519  -27.9186   11.9090 O.2       13 UNK        -0.4996 
     25 CA        -57.3192  -26.2075   11.4513 C.3       12 UNK         0.0216 
     26 CB        -58.4966  -25.3668   10.9205 C.3       12 UNK        -0.1964 
     27 N         -56.6075  -25.4279   12.4719 N.am      12 UNK        -0.4276 
     28 C         -55.3472  -25.6393   12.8720 C.2       12 UNK         0.5020 
     29 O         -54.6576  -26.5662   12.4405 O.2       12 UNK        -0.5489 
     30 CA        -54.7384  -24.6488   13.8852 C.3       11 UNK         0.0294 
     31 CB        -55.7727  -23.8447   14.7075 C.3       11 UNK        -0.2019 
     32 N         -53.7472  -25.3206   14.7329 N.am      11 UNK        -0.4493 
     33 C         -53.9849  -26.2280   15.6906 C.2       11 UNK         0.4932 
     34 O         -55.1050  -26.4916   16.1285 O.2       11 UNK        -0.5029 
     35 CA        -52.7840  -27.0118   16.2462 C.3       10 UNK         0.0280 
     36 CB        -52.7130  -28.3908   15.5756 C.3       10 UNK        -0.1976 
     37 N         -51.4899  -26.3399   16.0924 N.am      10 UNK        -0.4242 
     38 C         -51.0492  -25.3705   16.9068 C.2       10 UNK         0.5072 
     39 O         -51.7290  -24.8668   17.8024 O.2       10 UNK        -0.5224 
     40 CA        -49.5921  -24.9105   16.7240 C.3       9 UNK         0.0343 
     41 CB        -48.6126  -25.9878   17.2193 C.3       9 UNK        -0.2003 
     42 N         -49.2760  -24.5609   15.3406 N.am      9 UNK        -0.4272 
     43 C         -49.7118  -23.4562   14.7189 C.2       9 UNK         0.4988 
     44 O         -50.3746  -22.5747   15.2672 O.2       9 UNK        -0.5108 
     45 CA        -49.3680  -23.3172   13.2245 C.3       8 UNK         0.0248 
     46 CB        -47.9706  -22.7060   13.0366 C.3       8 UNK        -0.2001 
     47 N         -49.4517  -24.5848   12.4955 N.am      8 UNK        -0.4140 
     48 C         -50.5645  -25.3227   12.3815 C.2       8 UNK         0.5028 
     49 O         -51.6514  -24.9942   12.8515 O.2       8 UNK        -0.5428 
     50 CA        -50.4333  -26.6745   11.6683 C.3       7 UNK         0.0264 
     51 CB        -50.4276  -26.4875   10.1457 C.3       7 UNK        -0.1988 
     52 N         -49.2347  -27.4037   12.0864 N.am      7 UNK        -0.4454 
     53 C         -49.0545  -27.9177   13.3112 C.2       7 UNK         0.5027 
     54 O         -49.8918  -27.8468   14.2107 O.2       7 UNK        -0.5083 
     55 CA        -47.6884  -28.5663   13.6111 C.3       6 UNK         0.0844 
     56 C56       -47.6239  -30.0543   13.1806 C.3       14 UNK        -0.0967 
     57 S57       -47.2893  -30.3194   11.4002 S.3       14 UNK        -0.2604 
     58 C58       -48.5381  -31.5657   10.9504 C.3       14 UNK         0.0134 
     59 N         -46.5732  -27.7792   13.0827 N.am      6 UNK        -0.4116 
     60 C         -46.2460  -26.5438   13.4823 C.2       5 UNK         0.5034 
     61 O         -46.8110  -25.9424   14.3954 O.2       5 UNK        -0.5045 
     62 CA        -45.1272  -25.8447   12.6922 C.3       5 UNK         0.0224 
     63 CB        -43.7478  -26.2363   13.2454 C.3       5 UNK        -0.1978 
     64 N         -45.1731  -26.1065   11.2470 N.am      5 UNK        -0.4737 
     65 C         -46.2016  -25.7801   10.4532 C.2       4 UNK         0.5027 
     66 O         -47.2524  -25.2893   10.8669 O.2       4 UNK        -0.5211 
     67 CA        -46.0542  -26.0929    8.9559 C.3       4 UNK         0.0297 
     68 CB        -46.7206  -27.4386    8.6235 C.3       4 UNK        -0.1993 
     69 N         -46.6578  -25.0426    8.1335 N.am      4 UNK        -0.4486 
     70 C         -46.2049  -23.7837    8.0400 C.2       3 UNK         0.4961 
     71 O         -45.1647  -23.3922    8.5716 O.2       3 UNK        -0.5105 
     72 CA        -47.0258  -22.7914    7.1936 C.3       3 UNK         0.0299 
     73 CB        -46.3017  -22.4915    5.8705 C.3       3 UNK        -0.1972 
     74 N         -48.3815  -23.2542    6.8893 N.am      3 UNK        -0.4305 
     75 C         -49.4133  -23.2882    7.7408 C.2       2 UNK         0.5006 
     76 O         -49.3525  -22.8858    8.9018 O.2       2 UNK        -0.5106 
     77 CA        -50.7349  -23.8911    7.2235 C.3       2 UNK         0.0296 
     78 CB        -51.6058  -22.8164    6.5441 C.3       2 UNK        -0.2002 
     79 N         -50.5782  -25.0822    6.3698 N.am      2 UNK        -0.4032 
     80 C         -50.0298  -25.1920    5.1493 C.2       1 UNK         0.5000 
     81 O         -49.5615  -24.2325    4.5331 O.2       1 UNK        -0.5238 
     82 H82       -45.5788  -26.3044    3.6169 H         1 UNK         0.0889 
     83 H83       -45.9580  -27.8353    2.8222 H         1 UNK         0.0889 
     84 H84       -46.0905  -27.6939    4.5764 H         1 UNK         0.0889 
     85 H85       -48.2068  -27.5287    5.2525 H         1 UNK         0.3028 
     86 H86       -50.3355  -26.5050    3.5131 H         1 UNK         0.0864 
     87 H87       -50.8444  -28.5798    4.6030 H         1 UNK         0.0720 
     88 H88       -51.8478  -27.3585    5.3235 H         1 UNK         0.0720 
     89 H89       -51.2344  -30.3591    6.6633 H         1 UNK         0.0814 
     90 H90       -52.3901  -29.1344    7.1410 H         1 UNK         0.0814 
     91 H91       -49.2265  -30.7065    8.4662 H         1 UNK         0.1469 
     92 H92       -50.7380  -30.9934   12.4666 H         1 UNK         0.1381 
     93 H93       -53.1379  -29.2085    9.3950 H         1 UNK         0.1206 
     94 H94       -52.8053  -30.0571   13.0543 H         1 UNK         0.0813 
     95 H95       -53.4034  -28.7555   12.0485 H         1 UNK         0.0813 
     96 H96       -55.0424  -29.8684   13.9345 H         1 UNK         0.0638 
     97 H97       -55.7959  -31.4247   13.7164 H         1 UNK         0.0638 
     98 H98       -57.5166  -30.3393   12.1937 H         1 UNK         0.0568 
     99 H99       -59.2195  -30.8307   15.2761 H         1 UNK         0.3450 
    100 H100      -58.6923  -31.5689   13.7866 H         1 UNK         0.3450 
    101 H101      -55.8491  -28.0378   12.4125 H         1 UNK         0.2987 
    102 H102      -56.6364  -26.3748   10.6153 H         1 UNK         0.0766 
    103 H103      -58.1537  -24.4170   10.5094 H         1 UNK         0.0798 
    104 H104      -59.2251  -25.1514   11.7033 H         1 UNK         0.0798 
    105 H105      -59.0223  -25.8900   10.1205 H         1 UNK         0.0798 
    106 H106      -57.1216  -24.6707   12.8983 H         1 UNK         0.3198 
    107 H107      -54.1703  -23.9319   13.2907 H         1 UNK         0.0843 
    108 H108      -56.4933  -24.4902   15.2108 H         1 UNK         0.0831 
    109 H109      -56.3330  -23.1568   14.0735 H         1 UNK         0.0831 
    110 H110      -55.2816  -23.2402   15.4702 H         1 UNK         0.0831 
    111 H111      -52.7994  -25.2533   14.3678 H         1 UNK         0.3133 
    112 H112      -52.9627  -27.1706   17.3119 H         1 UNK         0.0566 
    113 H113      -51.9005  -28.9934   15.9817 H         1 UNK         0.0814 
    114 H114      -53.6387  -28.9479   15.7239 H         1 UNK         0.0814 
    115 H115      -52.5550  -28.2904   14.5022 H         1 UNK         0.0814 
    116 H116      -50.8645  -26.7209   15.3852 H         1 UNK         0.3091 
    117 H117      -49.4457  -24.0203   17.3396 H         1 UNK         0.0702 
    118 H118      -47.5831  -25.6307   17.1838 H         1 UNK         0.0785 
    119 H119      -48.6692  -26.8961   16.6181 H         1 UNK         0.0785 
    120 H120      -48.8249  -26.2645   18.2528 H         1 UNK         0.0785 
    121 H121      -48.6717  -25.1989   14.8330 H         1 UNK         0.2998 
    122 H122      -50.0985  -22.6391   12.7785 H         1 UNK         0.0697 
    123 H123      -47.1934  -23.3393   13.4643 H         1 UNK         0.0825 
    124 H124      -47.9026  -21.7316   13.5219 H         1 UNK         0.0825 
    125 H125      -47.7409  -22.5615   11.9803 H         1 UNK         0.0825 
    126 H126      -48.6093  -24.9005   12.0157 H         1 UNK         0.3029 
    127 H127      -51.3027  -27.2798   11.9339 H         1 UNK         0.0897 
    128 H128      -49.6396  -25.8105    9.8153 H         1 UNK         0.0792 
    129 H129      -51.3791  -26.0792    9.8041 H         1 UNK         0.0792 
    130 H130      -50.2827  -27.4406    9.6431 H         1 UNK         0.0792 
    131 H131      -48.4817  -27.4676   11.4177 H         1 UNK         0.3086 
    132 H132      -47.5859  -28.5521   14.6987 H         1 UNK         0.0583 
    133 H133      -46.8189  -30.5446   13.7301 H         1 UNK         0.1020 
    134 H134      -48.5317  -30.5796   13.4823 H         1 UNK         0.1020 
    135 H135      -48.1432  -32.1714   10.1334 H         1 UNK         0.0694 
    136 H136      -48.7033  -32.2547   11.7800 H         1 UNK         0.0694 
    137 H137      -46.0643  -28.1919   12.3146 H         1 UNK         0.2989 
    138 H138      -45.2576  -24.7696   12.8336 H         1 UNK         0.1055 
    139 H139      -43.6858  -26.0348   14.3160 H         1 UNK         0.0806 
    140 H140      -42.9513  -25.6672   12.7655 H         1 UNK         0.0806 
    141 H141      -43.5379  -27.2968   13.1009 H         1 UNK         0.0806 
    142 H142      -44.3472  -26.5152   10.8323 H         1 UNK         0.3061 
    143 H143      -44.9928  -26.1528    8.7060 H         1 UNK         0.0734 
    144 H144      -47.7860  -27.4345    8.8570 H         1 UNK         0.0832 
    145 H145      -46.6104  -27.6885    7.5683 H         1 UNK         0.0832 
    146 H146      -46.2681  -28.2508    9.1939 H         1 UNK         0.0832 
    147 H147      -47.5403  -25.2569    7.6969 H         1 UNK         0.3156 
    148 H148      -47.1012  -21.8622    7.7624 H         1 UNK         0.0589 
    149 H149      -46.2083  -23.3843    5.2506 H         1 UNK         0.0808 
    150 H150      -46.8311  -21.7349    5.2911 H         1 UNK         0.0808 
    151 H151      -45.2948  -22.1124    6.0515 H         1 UNK         0.0808 
    152 H152      -48.5645  -23.5646    5.9369 H         1 UNK         0.3098 
    153 H153      -51.2789  -24.2355    8.1042 H         1 UNK         0.0720 
    154 H154      -51.1252  -22.3966    5.6600 H         1 UNK         0.0791 
    155 H155      -51.8028  -21.9888    7.2270 H         1 UNK         0.0791 
    156 H156      -52.5708  -23.2223    6.2406 H         1 UNK         0.0791 
    157 H157      -50.8674  -25.9530    6.7992 H         1 UNK         0.3028 
@<TRIPOS>BOND
     1    1    2 1    
     2    1   82 1    
     3    1   83 1    
     4    1   84 1    
     5    2    3 2    
     6    2    4 am   BACKBONE|DICT|INTERRES
     7    4    5 1    
     8    4   85 1    
     9    5    6 1    
    10    5   80 1    
    11    5   86 1    
    12    6    7 1    
    13    6   87 1    
    14    6   88 1    
    15    7    8 1    
    16    8    9 1    
    17    8   89 1    
    18    8   90 1    
    19    9   10 ar   
    20    9   14 ar   
    21   10   11 ar   
    22   10   91 1    
    23   11   12 ar   
    24   11   58 1    
    25   12   13 ar   
    26   12   92 1    
    27   13   14 ar   
    28   13   15 1    
    29   14   93 1    
    30   15   16 1    
    31   15   94 1    
    32   15   95 1    
    33   16   17 1    
    34   17   18 1    
    35   17   96 1    
    36   17   97 1    
    37   18   19 1    
    38   18   22 1    
    39   18   98 1    
    40   19   20 am   BACKBONE|DICT|INTERRES
    41   19   21 2    
    42   20   99 1    
    43   20  100 1    
    44   22   23 am   BACKBONE|DICT|INTERRES
    45   22  101 1    
    46   23   24 2    
    47   23   25 1    
    48   25   26 1    
    49   25   27 1    
    50   25  102 1    
    51   26  103 1    
    52   26  104 1    
    53   26  105 1    
    54   27   28 am   BACKBONE|DICT|INTERRES
    55   27  106 1    
    56   28   29 2    
    57   28   30 1    
    58   30   31 1    
    59   30   32 1    
    60   30  107 1    
    61   31  108 1    
    62   31  109 1    
    63   31  110 1    
    64   32   33 am   BACKBONE|DICT|INTERRES
    65   32  111 1    
    66   33   34 2    
    67   33   35 1    
    68   35   36 1    
    69   35   37 1    
    70   35  112 1    
    71   36  113 1    
    72   36  114 1    
    73   36  115 1    
    74   37   38 am   BACKBONE|DICT|INTERRES
    75   37  116 1    
    76   38   39 2    
    77   38   40 1    
    78   40   41 1    
    79   40   42 1    
    80   40  117 1    
    81   41  118 1    
    82   41  119 1    
    83   41  120 1    
    84   42   43 am   BACKBONE|DICT|INTERRES
    85   42  121 1    
    86   43   44 2    
    87   43   45 1    
    88   45   46 1    
    89   45   47 1    
    90   45  122 1    
    91   46  123 1    
    92   46  124 1    
    93   46  125 1    
    94   47   48 am   BACKBONE|DICT|INTERRES
    95   47  126 1    
    96   48   49 2    
    97   48   50 1    
    98   50   51 1    
    99   50   52 1    
   100   50  127 1    
   101   51  128 1    
   102   51  129 1    
   103   51  130 1    
   104   52   53 am   BACKBONE|DICT|INTERRES
   105   52  131 1    
   106   53   54 2    
   107   53   55 1    
   108   55   56 1    
   109   55   59 1    
   110   55  132 1    
   111   56   57 1    
   112   56  133 1    
   113   56  134 1    
   114   57   58 1    
   115   58  135 1    
   116   58  136 1    
   117   59   60 am   BACKBONE|DICT|INTERRES
   118   59  137 1    
   119   60   61 2    
   120   60   62 1    
   121   62   63 1    
   122   62   64 1    
   123   62  138 1    
   124   63  139 1    
   125   63  140 1    
   126   63  141 1    
   127   64   65 am   BACKBONE|DICT|INTERRES
   128   64  142 1    
   129   65   66 2    
   130   65   67 1    
   131   67   68 1    
   132   67   69 1    
   133   67  143 1    
   134   68  144 1    
   135   68  145 1    
   136   68  146 1    
   137   69   70 am   BACKBONE|DICT|INTERRES
   138   69  147 1    
   139   70   71 2    
   140   70   72 1    
   141   72   73 1    
   142   72   74 1    
   143   72  148 1    
   144   73  149 1    
   145   73  150 1    
   146   73  151 1    
   147   74   75 am   BACKBONE|DICT|INTERRES
   148   74  152 1    
   149   75   76 2    
   150   75   77 1    
   151   77   78 1    
   152   77   79 1    
   153   77  153 1    
   154   78  154 1    
   155   78  155 1    
   156   78  156 1    
   157   79   80 am   BACKBONE|DICT|INTERRES
   158   79  157 1    
   159   80   81 2    
@<TRIPOS>SUBSTRUCTURE
     1 UNK         1 GROUP             0       ****    0 ROOT    
