@<TRIPOS>MOLECULE
3R207
157   159    1
SMALL
USER_CHARGES


@<TRIPOS>ATOM
      1 CA        -47.7508  -25.4247    3.6707 C.3       0 UNK        -0.1975 
      2 C         -47.4140  -25.9409    5.0608 C.2       0 UNK         0.4852 
      3 O         -46.9405  -25.1726    5.8992 O.2       0 UNK        -0.5216 
      4 N         -47.6718  -27.2305    5.3217 N.am      1 UNK        -0.4461 
      5 CA        -47.3822  -27.9145    6.5895 C.3       1 UNK         0.0864 
      6 C6        -47.9214  -29.3646    6.5973 C.3       14 UNK        -0.0898 
      7 S7        -49.7449  -29.3888    6.5912 S.3       14 UNK        -0.2598 
      8 C8        -50.0718  -29.7373    8.3551 C.3       14 UNK         0.0286 
      9 C9        -51.4883  -29.4431    8.8535 C.ar      14 UNK        -0.0844 
     10 C10       -52.5236  -28.9932    8.0204 C.ar      14 UNK        -0.0881 
     11 C11       -53.7738  -28.6607    8.5530 C.ar      14 UNK        -0.0643 
     12 C12       -54.0074  -28.8240    9.9204 C.ar      14 UNK        -0.0930 
     13 C13       -52.9805  -29.2513   10.7634 C.ar      14 UNK        -0.0827 
     14 C14       -51.7332  -29.5744   10.2246 C.ar      14 UNK        -0.1249 
     15 C15       -53.1965  -29.2587   12.2643 C.3       14 UNK         0.0141 
     16 S16       -54.1151  -30.7244   12.8162 S.3       14 UNK        -0.2313 
     17 C17       -54.4243  -30.2898   14.5616 C.3       14 UNK        -0.0915 
     18 CA        -55.8208  -29.6435   14.7720 C.3       13 UNK         0.0968 
     19 C         -56.1935  -29.5465   16.2809 C.2       13 UNK         0.5732 
     20 N         -56.5315  -28.3819   16.8250 N.am      13 UNK        -0.7310 
     21 O         -56.1884  -30.5589   16.9768 O.2       13 UNK        -0.5035 
     22 N         -55.9310  -28.3641   14.0581 N.am      13 UNK        -0.4233 
     23 C         -57.0583  -27.8742   13.5283 C.2       13 UNK         0.4989 
     24 O         -58.1262  -28.4889   13.5056 O.2       13 UNK        -0.4996 
     25 CA        -56.9763  -26.4556   12.9250 C.3       12 UNK         0.0216 
     26 CB        -58.3458  -25.7455   12.8791 C.3       12 UNK        -0.1964 
     27 N         -55.9720  -25.6018   13.5736 N.am      12 UNK        -0.4276 
     28 C         -55.9139  -25.2635   14.8700 C.2       12 UNK         0.5020 
     29 O         -56.7299  -25.6250   15.7209 O.2       12 UNK        -0.5489 
     30 CA        -54.6908  -24.4392   15.3042 C.3       11 UNK         0.0294 
     31 CB        -55.1148  -23.1939   16.1006 C.3       11 UNK        -0.2019 
     32 N         -53.7534  -25.2327   16.1077 N.am      11 UNK        -0.4493 
     33 C         -53.1604  -26.3653   15.7097 C.2       11 UNK         0.4932 
     34 O         -53.3368  -26.8859   14.6041 O.2       11 UNK        -0.5029 
     35 CA        -52.2078  -27.0380   16.7035 C.3       10 UNK         0.0280 
     36 CB        -52.9897  -27.8895   17.7225 C.3       10 UNK        -0.1976 
     37 N         -51.3047  -27.8622   15.9098 N.am      10 UNK        -0.4242 
     38 C         -50.2311  -28.5472   16.3142 C.2       10 UNK         0.5072 
     39 O         -49.8383  -28.6048   17.4798 O.2       10 UNK        -0.5224 
     40 CA        -49.4534  -29.2774   15.2071 C.3       9 UNK         0.0343 
     41 CB        -50.1712  -30.5721   14.7883 C.3       9 UNK        -0.2003 
     42 N         -49.2495  -28.4096   14.0406 N.am      9 UNK        -0.4272 
     43 C         -48.2726  -27.4943   13.9680 C.2       9 UNK         0.4988 
     44 O         -47.4051  -27.3468   14.8300 O.2       9 UNK        -0.5108 
     45 CA        -48.2555  -26.5866   12.7262 C.3       8 UNK         0.0248 
     46 CB        -47.8506  -27.3699   11.4658 C.3       8 UNK        -0.2001 
     47 N         -49.5127  -25.8686   12.4842 N.am      8 UNK        -0.4140 
     48 C         -50.0738  -24.9888   13.3337 C.2       8 UNK         0.5028 
     49 O         -49.6104  -24.7304   14.4447 O.2       8 UNK        -0.5428 
     50 CA        -51.3536  -24.2547   12.8886 C.3       7 UNK         0.0264 
     51 CB        -51.2290  -22.7323   13.0742 C.3       7 UNK        -0.1988 
     52 N         -51.6923  -24.5379   11.4959 N.am      7 UNK        -0.4454 
     53 C         -52.8323  -25.0962   11.0698 C.2       7 UNK         0.5027 
     54 O         -53.8086  -25.2781   11.7998 O.2       7 UNK        -0.5083 
     55 CA        -52.8904  -25.5644    9.5964 C.3       6 UNK         0.0844 
     56 C56       -54.3246  -25.5252    8.9980 C.3       14 UNK        -0.0967 
     57 S57       -54.4199  -26.2653    7.3249 S.3       14 UNK        -0.2604 
     58 C58       -54.8330  -28.0109    7.6765 C.3       14 UNK         0.0134 
     59 N         -51.8907  -24.9433    8.7212 N.am      6 UNK        -0.4116 
     60 C         -50.5917  -25.2665    8.6857 C.2       5 UNK         0.5034 
     61 O         -50.0723  -26.0774    9.4561 O.2       5 UNK        -0.5045 
     62 CA        -49.7057  -24.5415    7.6572 C.3       5 UNK         0.0224 
     63 CB        -50.4241  -23.4337    6.8539 C.3       5 UNK        -0.1978 
     64 N         -48.4756  -24.0146    8.2636 N.am      5 UNK        -0.4737 
     65 C         -48.3939  -23.1828    9.3146 C.2       4 UNK         0.5027 
     66 O         -49.3811  -22.7437    9.9070 O.2       4 UNK        -0.5211 
     67 CA        -46.9948  -22.7772    9.8195 C.3       4 UNK         0.0297 
     68 CB        -46.8288  -23.1373   11.3052 C.3       4 UNK        -0.1993 
     69 N         -45.8852  -23.3780    9.0762 N.am      4 UNK        -0.4486 
     70 C         -45.3878  -22.9485    7.9118 C.2       3 UNK         0.4961 
     71 O         -45.8296  -21.9725    7.3052 O.2       3 UNK        -0.5105 
     72 CA        -44.2001  -23.7316    7.3121 C.3       3 UNK         0.0299 
     73 CB        -42.8589  -23.0876    7.7138 C.3       3 UNK        -0.1972 
     74 N         -44.1988  -25.1817    7.5761 N.am      3 UNK        -0.4305 
     75 C         -44.0555  -25.8371    8.7382 C.2       2 UNK         0.5006 
     76 O         -43.9005  -25.2760    9.8237 O.2       2 UNK        -0.5106 
     77 CA        -44.2086  -27.3685    8.6804 C.3       2 UNK         0.0296 
     78 CB        -43.9832  -28.0420   10.0476 C.3       2 UNK        -0.2002 
     79 N         -45.5527  -27.6940    8.2008 N.am      2 UNK        -0.4032 
     80 C         -45.8748  -27.8786    6.9147 C.2       1 UNK         0.5000 
     81 O         -45.0432  -27.9758    6.0077 O.2       1 UNK        -0.5238 
     82 H82       -48.1822  -26.2018    3.0401 H         1 UNK         0.0889 
     83 H83       -46.8509  -25.0508    3.1832 H         1 UNK         0.0889 
     84 H84       -48.4667  -24.6061    3.7400 H         1 UNK         0.0889 
     85 H85       -48.0590  -27.8152    4.5952 H         1 UNK         0.3028 
     86 H86       -47.8973  -27.3541    7.3735 H         1 UNK         0.0864 
     87 H87       -47.5632  -29.9156    7.4695 H         1 UNK         0.0720 
     88 H88       -47.5597  -29.9152    5.7268 H         1 UNK         0.0720 
     89 H89       -49.8349  -30.7836    8.5538 H         1 UNK         0.0814 
     90 H90       -49.3808  -29.1402    8.9521 H         1 UNK         0.0814 
     91 H91       -52.3570  -28.8415    6.9640 H         1 UNK         0.1469 
     92 H92       -54.9632  -28.5456   10.3427 H         1 UNK         0.1381 
     93 H93       -50.9351  -29.8931   10.8813 H         1 UNK         0.1206 
     94 H94       -52.2436  -29.2011   12.7879 H         1 UNK         0.0813 
     95 H95       -53.7428  -28.3557   12.5317 H         1 UNK         0.0813 
     96 H96       -54.3386  -31.2142   15.1354 H         1 UNK         0.0638 
     97 H97       -53.6324  -29.6345   14.9267 H         1 UNK         0.0638 
     98 H98       -56.5540  -30.3316   14.3473 H         1 UNK         0.0568 
     99 H99       -56.7772  -28.3572   17.8012 H         1 UNK         0.3450 
    100 H100      -56.5752  -27.5278   16.2788 H         1 UNK         0.3450 
    101 H101      -55.1045  -27.7764   14.0790 H         1 UNK         0.2987 
    102 H102      -56.6375  -26.5882   11.8965 H         1 UNK         0.0766 
    103 H103      -58.2637  -24.7547   12.4324 H         1 UNK         0.0798 
    104 H104      -59.0616  -26.3101   12.2804 H         1 UNK         0.0798 
    105 H105      -58.7742  -25.6301   13.8753 H         1 UNK         0.0798 
    106 H106      -55.1831  -25.3459   12.9770 H         1 UNK         0.3198 
    107 H107      -54.1695  -24.0963   14.4095 H         1 UNK         0.0843 
    108 H108      -55.6082  -23.4603   17.0364 H         1 UNK         0.0831 
    109 H109      -55.8148  -22.5851   15.5266 H         1 UNK         0.0831 
    110 H110      -54.2585  -22.5627   16.3387 H         1 UNK         0.0831 
    111 H111      -53.5728  -24.8975   17.0430 H         1 UNK         0.3133 
    112 H112      -51.6273  -26.2701   17.2181 H         1 UNK         0.0566 
    113 H113      -53.4910  -28.7300   17.2439 H         1 UNK         0.0814 
    114 H114      -53.7540  -27.2989   18.2293 H         1 UNK         0.0814 
    115 H115      -52.3339  -28.2916   18.4944 H         1 UNK         0.0814 
    116 H116      -51.5520  -27.8608   14.9285 H         1 UNK         0.3091 
    117 H117      -48.4793  -29.5605   15.6126 H         1 UNK         0.0702 
    118 H118      -49.6280  -31.0902   13.9978 H         1 UNK         0.0785 
    119 H119      -51.1855  -30.3901   14.4362 H         1 UNK         0.0785 
    120 H120      -50.2454  -31.2596   15.6320 H         1 UNK         0.0785 
    121 H121      -49.9079  -28.4791   13.2800 H         1 UNK         0.2998 
    122 H122      -47.4874  -25.8341   12.9098 H         1 UNK         0.0697 
    123 H123      -48.6331  -28.0596   11.1478 H         1 UNK         0.0825 
    124 H124      -46.9484  -27.9568   11.6415 H         1 UNK         0.0825 
    125 H125      -47.6443  -26.6943   10.6356 H         1 UNK         0.0825 
    126 H126      -49.9416  -26.0191   11.5781 H         1 UNK         0.3029 
    127 H127      -52.1420  -24.6167   13.5463 H         1 UNK         0.0897 
    128 H128      -52.1509  -22.2237   12.7920 H         1 UNK         0.0792 
    129 H129      -51.0260  -22.4767   14.1150 H         1 UNK         0.0792 
    130 H130      -50.4197  -22.3194   12.4707 H         1 UNK         0.0792 
    131 H131      -50.9566  -24.3727   10.8191 H         1 UNK         0.3086 
    132 H132      -52.5988  -26.6080    9.6667 H         1 UNK         0.0583 
    133 H133      -55.0342  -26.0442    9.6447 H         1 UNK         0.1020 
    134 H134      -54.6775  -24.4943    8.9380 H         1 UNK         0.1020 
    135 H135      -55.8155  -28.0629    8.1482 H         1 UNK         0.0694 
    136 H136      -54.9133  -28.5559    6.7349 H         1 UNK         0.0694 
    137 H137      -52.2348  -24.2475    8.0764 H         1 UNK         0.2989 
    138 H138      -49.4080  -25.3163    6.9534 H         1 UNK         0.1055 
    139 H139      -49.7483  -22.9866    6.1244 H         1 UNK         0.0806 
    140 H140      -50.7892  -22.6308    7.4958 H         1 UNK         0.0806 
    141 H141      -51.2714  -23.8309    6.2932 H         1 UNK         0.0806 
    142 H142      -47.6150  -24.3135    7.8196 H         1 UNK         0.3061 
    143 H143      -46.9294  -21.6913    9.7254 H         1 UNK         0.0734 
    144 H144      -47.6328  -22.7185   11.9123 H         1 UNK         0.0832 
    145 H145      -46.8350  -24.2162   11.4511 H         1 UNK         0.0832 
    146 H146      -45.8903  -22.7517   11.7039 H         1 UNK         0.0832 
    147 H147      -45.3945  -24.1487    9.5214 H         1 UNK         0.3156 
    148 H148      -44.2946  -23.6400    6.2288 H         1 UNK         0.0589 
    149 H149      -42.6957  -23.1209    8.7914 H         1 UNK         0.0808 
    150 H150      -42.0186  -23.5865    7.2311 H         1 UNK         0.0808 
    151 H151      -42.8274  -22.0388    7.4156 H         1 UNK         0.0808 
    152 H152      -44.4004  -25.7486    6.7615 H         1 UNK         0.3098 
    153 H153      -43.4534  -27.7524    7.9911 H         1 UNK         0.0720 
    154 H154      -44.0962  -29.1241    9.9798 H         1 UNK         0.0791 
    155 H155      -42.9756  -27.8446   10.4158 H         1 UNK         0.0791 
    156 H156      -44.6809  -27.6782   10.8023 H         1 UNK         0.0791 
    157 H157      -46.2946  -27.6191    8.8811 H         1 UNK         0.3028 
@<TRIPOS>BOND
     1    1    2 1    
     2    1   82 1    
     3    1   83 1    
     4    1   84 1    
     5    2    3 2    
     6    2    4 am   BACKBONE|DICT|INTERRES
     7    4    5 1    
     8    4   85 1    
     9    5    6 1    
    10    5   80 1    
    11    5   86 1    
    12    6    7 1    
    13    6   87 1    
    14    6   88 1    
    15    7    8 1    
    16    8    9 1    
    17    8   89 1    
    18    8   90 1    
    19    9   10 ar   
    20    9   14 ar   
    21   10   11 ar   
    22   10   91 1    
    23   11   12 ar   
    24   11   58 1    
    25   12   13 ar   
    26   12   92 1    
    27   13   14 ar   
    28   13   15 1    
    29   14   93 1    
    30   15   16 1    
    31   15   94 1    
    32   15   95 1    
    33   16   17 1    
    34   17   18 1    
    35   17   96 1    
    36   17   97 1    
    37   18   19 1    
    38   18   22 1    
    39   18   98 1    
    40   19   20 am   BACKBONE|DICT|INTERRES
    41   19   21 2    
    42   20   99 1    
    43   20  100 1    
    44   22   23 am   BACKBONE|DICT|INTERRES
    45   22  101 1    
    46   23   24 2    
    47   23   25 1    
    48   25   26 1    
    49   25   27 1    
    50   25  102 1    
    51   26  103 1    
    52   26  104 1    
    53   26  105 1    
    54   27   28 am   BACKBONE|DICT|INTERRES
    55   27  106 1    
    56   28   29 2    
    57   28   30 1    
    58   30   31 1    
    59   30   32 1    
    60   30  107 1    
    61   31  108 1    
    62   31  109 1    
    63   31  110 1    
    64   32   33 am   BACKBONE|DICT|INTERRES
    65   32  111 1    
    66   33   34 2    
    67   33   35 1    
    68   35   36 1    
    69   35   37 1    
    70   35  112 1    
    71   36  113 1    
    72   36  114 1    
    73   36  115 1    
    74   37   38 am   BACKBONE|DICT|INTERRES
    75   37  116 1    
    76   38   39 2    
    77   38   40 1    
    78   40   41 1    
    79   40   42 1    
    80   40  117 1    
    81   41  118 1    
    82   41  119 1    
    83   41  120 1    
    84   42   43 am   BACKBONE|DICT|INTERRES
    85   42  121 1    
    86   43   44 2    
    87   43   45 1    
    88   45   46 1    
    89   45   47 1    
    90   45  122 1    
    91   46  123 1    
    92   46  124 1    
    93   46  125 1    
    94   47   48 am   BACKBONE|DICT|INTERRES
    95   47  126 1    
    96   48   49 2    
    97   48   50 1    
    98   50   51 1    
    99   50   52 1    
   100   50  127 1    
   101   51  128 1    
   102   51  129 1    
   103   51  130 1    
   104   52   53 am   BACKBONE|DICT|INTERRES
   105   52  131 1    
   106   53   54 2    
   107   53   55 1    
   108   55   56 1    
   109   55   59 1    
   110   55  132 1    
   111   56   57 1    
   112   56  133 1    
   113   56  134 1    
   114   57   58 1    
   115   58  135 1    
   116   58  136 1    
   117   59   60 am   BACKBONE|DICT|INTERRES
   118   59  137 1    
   119   60   61 2    
   120   60   62 1    
   121   62   63 1    
   122   62   64 1    
   123   62  138 1    
   124   63  139 1    
   125   63  140 1    
   126   63  141 1    
   127   64   65 am   BACKBONE|DICT|INTERRES
   128   64  142 1    
   129   65   66 2    
   130   65   67 1    
   131   67   68 1    
   132   67   69 1    
   133   67  143 1    
   134   68  144 1    
   135   68  145 1    
   136   68  146 1    
   137   69   70 am   BACKBONE|DICT|INTERRES
   138   69  147 1    
   139   70   71 2    
   140   70   72 1    
   141   72   73 1    
   142   72   74 1    
   143   72  148 1    
   144   73  149 1    
   145   73  150 1    
   146   73  151 1    
   147   74   75 am   BACKBONE|DICT|INTERRES
   148   74  152 1    
   149   75   76 2    
   150   75   77 1    
   151   77   78 1    
   152   77   79 1    
   153   77  153 1    
   154   78  154 1    
   155   78  155 1    
   156   78  156 1    
   157   79   80 am   BACKBONE|DICT|INTERRES
   158   79  157 1    
   159   80   81 2    
@<TRIPOS>SUBSTRUCTURE
     1 UNK         1 GROUP             0       ****    0 ROOT    
