@<TRIPOS>MOLECULE
3R207
157   159    1
SMALL
USER_CHARGES


@<TRIPOS>ATOM
      1 CA        -53.5332  -28.2141    4.7098 C.3       0 UNK        -0.1975 
      2 C         -52.0188  -28.3113    4.8157 C.2       0 UNK         0.4852 
      3 O         -51.3231  -28.1503    3.8120 O.2       0 UNK        -0.5216 
      4 N         -51.5053  -28.5488    6.0302 N.am      1 UNK        -0.4461 
      5 CA        -50.0960  -28.7394    6.4169 C.3       1 UNK         0.0864 
      6 C6        -49.3639  -29.9082    5.6954 C.3       14 UNK        -0.0898 
      7 S7        -50.3215  -31.4626    5.5808 S.3       14 UNK        -0.2598 
      8 C8        -49.9357  -32.3055    7.1562 C.3       14 UNK         0.0286 
      9 C9        -50.5477  -31.6437    8.3901 C.ar      14 UNK        -0.0844 
     10 C10       -49.8455  -31.6634    9.6007 C.ar      14 UNK        -0.0881 
     11 C11       -50.3697  -31.0462   10.7412 C.ar      14 UNK        -0.0643 
     12 C12       -51.6029  -30.3930   10.6589 C.ar      14 UNK        -0.0930 
     13 C13       -52.3248  -30.3784    9.4634 C.ar      14 UNK        -0.0827 
     14 C14       -51.8061  -31.0297    8.3428 C.ar      14 UNK        -0.1249 
     15 C15       -53.6515  -29.6403    9.3751 C.3       14 UNK         0.0141 
     16 S16       -53.3928  -27.9656    8.7181 S.3       14 UNK        -0.2313 
     17 C17       -55.0117  -27.1762    8.9804 C.3       14 UNK        -0.0915 
     18 CA        -54.9946  -26.1247   10.1349 C.3       13 UNK         0.0968 
     19 C         -56.2695  -25.2237   10.1410 C.2       13 UNK         0.5732 
     20 N         -56.8123  -24.8284   11.2880 N.am      13 UNK        -0.7310 
     21 O         -56.7618  -24.8391    9.0827 O.2       13 UNK        -0.5035 
     22 N         -54.6515  -26.6881   11.4536 N.am      13 UNK        -0.4233 
     23 C         -55.3524  -27.6270   12.1067 C.2       13 UNK         0.4989 
     24 O         -56.3126  -28.2334   11.6314 O.2       13 UNK        -0.4996 
     25 CA        -54.9424  -27.9295   13.5564 C.3       12 UNK         0.0216 
     26 CB        -53.9831  -29.1281   13.6299 C.3       12 UNK        -0.1964 
     27 N         -54.3449  -26.7959   14.2608 N.am      12 UNK        -0.4276 
     28 C         -54.9521  -25.6366   14.5514 C.2       12 UNK         0.5020 
     29 O         -56.0826  -25.3444   14.1569 O.2       12 UNK        -0.5489 
     30 CA        -54.1570  -24.6385   15.4208 C.3       11 UNK         0.0294 
     31 CB        -55.0681  -23.8013   16.3421 C.3       11 UNK        -0.2019 
     32 N         -53.0679  -25.2661   16.1849 N.am      11 UNK        -0.4493 
     33 C         -53.1615  -26.2265   17.1209 C.2       11 UNK         0.4932 
     34 O         -54.2288  -26.6569   17.5576 O.2       11 UNK        -0.5029 
     35 CA        -51.8493  -26.8647   17.6128 C.3       10 UNK         0.0280 
     36 CB        -51.7996  -28.3537   17.2266 C.3       10 UNK        -0.1976 
     37 N         -50.6633  -26.1934   17.0725 N.am      10 UNK        -0.4242 
     38 C         -50.0600  -25.1550   17.6674 C.2       10 UNK         0.5072 
     39 O         -50.3967  -24.6987   18.7609 O.2       10 UNK        -0.5224 
     40 CA        -48.9005  -24.4937   16.9072 C.3       9 UNK         0.0343 
     41 CB        -47.6031  -25.2955   17.0981 C.3       9 UNK        -0.2003 
     42 N         -49.1557  -24.2995   15.4763 N.am      9 UNK        -0.4272 
     43 C         -50.1281  -23.5326   14.9592 C.2       9 UNK         0.4988 
     44 O         -50.9960  -22.9792   15.6325 O.2       9 UNK        -0.5108 
     45 CA        -50.1447  -23.3592   13.4345 C.3       8 UNK         0.0248 
     46 CB        -49.0094  -22.4285   12.9770 C.3       8 UNK        -0.2001 
     47 N         -50.0214  -24.6457   12.7584 N.am      8 UNK        -0.4140 
     48 C         -51.0495  -25.4343   12.4198 C.2       8 UNK         0.5028 
     49 O         -52.2374  -25.1471   12.5751 O.2       8 UNK        -0.5428 
     50 CA        -50.6895  -26.7952   11.8104 C.3       7 UNK         0.0264 
     51 CB        -50.5911  -26.6798   10.2835 C.3       7 UNK        -0.1988 
     52 N         -49.4452  -27.3593   12.3351 N.am      7 UNK        -0.4454 
     53 C         -49.2271  -27.7036   13.6140 C.2       7 UNK         0.5027 
     54 O         -50.0499  -27.5464   14.5179 O.2       7 UNK        -0.5083 
     55 CA        -47.8317  -28.2772   13.9488 C.3       6 UNK         0.0844 
     56 C56       -47.7721  -29.8135   13.7452 C.3       14 UNK        -0.0967 
     57 S57       -47.9791  -30.3424   12.0029 S.3       14 UNK        -0.2604 
     58 C58       -49.6315  -31.1096   12.0727 C.3       14 UNK         0.0134 
     59 N         -46.7331  -27.5952   13.2550 N.am      6 UNK        -0.4116 
     60 C         -46.4830  -26.2787   13.2745 C.2       5 UNK         0.5034 
     61 O         -47.1802  -25.4577   13.8728 O.2       5 UNK        -0.5045 
     62 CA        -45.2817  -25.7621   12.4599 C.3       5 UNK         0.0224 
     63 CB        -44.4577  -26.8675   11.7586 C.3       5 UNK        -0.1978 
     64 N         -45.7079  -24.7406   11.4946 N.am      5 UNK        -0.4737 
     65 C         -46.6279  -24.8990   10.5336 C.2       4 UNK         0.5027 
     66 O         -47.2043  -25.9641   10.3015 O.2       4 UNK        -0.5211 
     67 CA        -46.9566  -23.6575    9.6986 C.3       4 UNK         0.0297 
     68 CB        -45.8364  -23.3554    8.6880 C.3       4 UNK        -0.1993 
     69 N         -48.1987  -23.8983    8.9739 N.am      4 UNK        -0.4486 
     70 C         -49.1608  -22.9989    8.7401 C.2       3 UNK         0.4961 
     71 O         -49.1147  -21.8310    9.1299 O.2       3 UNK        -0.5105 
     72 CA        -50.3707  -23.4952    7.9189 C.3       3 UNK         0.0299 
     73 CB        -51.2332  -22.3457    7.3569 C.3       3 UNK        -0.1972 
     74 N         -49.9866  -24.4301    6.8520 N.am      3 UNK        -0.4305 
     75 C         -49.1217  -24.2118    5.8473 C.2       2 UNK         0.5006 
     76 O         -48.5987  -23.1191    5.6230 O.2       2 UNK        -0.5106 
     77 CA        -48.7703  -25.3984    4.9240 C.3       2 UNK         0.0296 
     78 CB        -47.2422  -25.5803    4.8040 C.3       2 UNK        -0.2002 
     79 N         -49.4167  -26.6767    5.2580 N.am      2 UNK        -0.4032 
     80 C         -49.2683  -27.4383    6.3521 C.2       1 UNK         0.5000 
     81 O         -48.5554  -27.1270    7.3056 O.2       1 UNK        -0.5238 
     82 H82       -53.9038  -28.9351    3.9817 H         1 UNK         0.0889 
     83 H83       -53.8235  -27.2166    4.3813 H         1 UNK         0.0889 
     84 H84       -54.0234  -28.4144    5.6624 H         1 UNK         0.0889 
     85 H85       -52.1481  -28.6161    6.8097 H         1 UNK         0.3028 
     86 H86       -50.1342  -28.9962    7.4761 H         1 UNK         0.0864 
     87 H87       -48.4136  -30.1186    6.1895 H         1 UNK         0.0720 
     88 H88       -49.1106  -29.6190    4.6738 H         1 UNK         0.0720 
     89 H89       -48.8515  -32.3763    7.2566 H         1 UNK         0.0814 
     90 H90       -50.3071  -33.3293    7.0994 H         1 UNK         0.0814 
     91 H91       -48.8858  -32.1586    9.6608 H         1 UNK         0.1469 
     92 H92       -52.0064  -29.8990   11.5288 H         1 UNK         0.1381 
     93 H93       -52.3714  -31.0241    7.4214 H         1 UNK         0.1206 
     94 H94       -54.1178  -29.5865   10.3585 H         1 UNK         0.0813 
     95 H95       -54.3457  -30.1823    8.7313 H         1 UNK         0.0813 
     96 H96       -55.2673  -26.6957    8.0347 H         1 UNK         0.0638 
     97 H97       -55.7776  -27.9358    9.1383 H         1 UNK         0.0638 
     98 H98       -54.1852  -25.4278    9.9151 H         1 UNK         0.0568 
     99 H99       -57.6265  -24.2363   11.2607 H         1 UNK         0.3450 
    100 H100      -56.4367  -25.1188   12.1844 H         1 UNK         0.3450 
    101 H101      -53.8958  -26.2181   11.9415 H         1 UNK         0.2987 
    102 H102      -55.8564  -28.1968   14.0910 H         1 UNK         0.0766 
    103 H103      -52.9868  -28.8681   13.2764 H         1 UNK         0.0798 
    104 H104      -53.8855  -29.4891   14.6540 H         1 UNK         0.0798 
    105 H105      -54.3437  -29.9639   13.0282 H         1 UNK         0.0798 
    106 H106      -53.4022  -26.9166   14.5991 H         1 UNK         0.3198 
    107 H107      -53.6760  -23.9529   14.7211 H         1 UNK         0.0843 
    108 H108      -55.7843  -23.2201   15.7601 H         1 UNK         0.0831 
    109 H109      -54.4882  -23.0958   16.9371 H         1 UNK         0.0831 
    110 H110      -55.6405  -24.4287   17.0258 H         1 UNK         0.0831 
    111 H111      -52.1406  -24.9402   15.9446 H         1 UNK         0.3133 
    112 H112      -51.8430  -26.8031   18.7031 H         1 UNK         0.0566 
    113 H113      -50.8698  -28.8189   17.5544 H         1 UNK         0.0814 
    114 H114      -52.6177  -28.9051   17.6921 H         1 UNK         0.0814 
    115 H115      -51.8851  -28.4988   16.1496 H         1 UNK         0.0814 
    116 H116      -50.3226  -26.5270   16.1737 H         1 UNK         0.3091 
    117 H117      -48.7494  -23.5037   17.3427 H         1 UNK         0.0702 
    118 H118      -46.7523  -24.7858   16.6453 H         1 UNK         0.0785 
    119 H119      -47.6731  -26.2881   16.6530 H         1 UNK         0.0785 
    120 H120      -47.3758  -25.4267   18.1569 H         1 UNK         0.0785 
    121 H121      -48.4727  -24.7158   14.8448 H         1 UNK         0.2998 
    122 H122      -51.0933  -22.8936   13.1576 H         1 UNK         0.0697 
    123 H123      -48.0247  -22.8484   13.1859 H         1 UNK         0.0825 
    124 H124      -49.0677  -21.4641   13.4835 H         1 UNK         0.0825 
    125 H125      -49.0696  -22.2331   11.9066 H         1 UNK         0.0825 
    126 H126      -49.0848  -25.0063   12.6325 H         1 UNK         0.3029 
    127 H127      -51.4989  -27.4854   12.0505 H         1 UNK         0.0897 
    128 H128      -49.7421  -26.0737    9.9754 H         1 UNK         0.0792 
    129 H129      -51.4826  -26.2079    9.8716 H         1 UNK         0.0792 
    130 H130      -50.4883  -27.6594    9.8158 H         1 UNK         0.0792 
    131 H131      -48.6956  -27.4985   11.6687 H         1 UNK         0.3086 
    132 H132      -47.6740  -28.0904   15.0125 H         1 UNK         0.0583 
    133 H133      -46.8081  -30.1877   14.0934 H         1 UNK         0.1020 
    134 H134      -48.5091  -30.3076   14.3812 H         1 UNK         0.1020 
    135 H135      -49.5278  -32.1513   12.3788 H         1 UNK         0.0694 
    136 H136      -50.2261  -30.6204   12.8457 H         1 UNK         0.0694 
    137 H137      -46.1387  -28.1833   12.6897 H         1 UNK         0.2989 
    138 H138      -44.6271  -25.2642   13.1772 H         1 UNK         0.1055 
    139 H139      -44.0558  -27.5809   12.4794 H         1 UNK         0.0806 
    140 H140      -43.6049  -26.4394   11.2315 H         1 UNK         0.0806 
    141 H141      -45.0449  -27.4243   11.0271 H         1 UNK         0.0806 
    142 H142      -45.3062  -23.8224   11.6271 H         1 UNK         0.3061 
    143 H143      -47.0768  -22.8118   10.3789 H         1 UNK         0.0734 
    144 H144      -46.0747  -22.4787    8.0853 H         1 UNK         0.0832 
    145 H145      -44.8905  -23.1542    9.1923 H         1 UNK         0.0832 
    146 H146      -45.6740  -24.1924    8.0074 H         1 UNK         0.0832 
    147 H147      -48.3251  -24.8597    8.6764 H         1 UNK         0.3156 
    148 H148      -50.9938  -24.0611    8.6125 H         1 UNK         0.0589 
    149 H149      -50.6609  -21.6977    6.6924 H         1 UNK         0.0808 
    150 H150      -52.0886  -22.7270    6.7995 H         1 UNK         0.0808 
    151 H151      -51.6243  -21.7213    8.1612 H         1 UNK         0.0808 
    152 H152      -50.3412  -25.3704    6.9479 H         1 UNK         0.3098 
    153 H153      -49.1482  -25.1279    3.9371 H         1 UNK         0.0720 
    154 H154      -46.9912  -26.3939    4.1235 H         1 UNK         0.0791 
    155 H155      -46.7825  -25.7952    5.7693 H         1 UNK         0.0791 
    156 H156      -46.7683  -24.6780    4.4152 H         1 UNK         0.0791 
    157 H157      -50.0575  -27.0425    4.5544 H         1 UNK         0.3028 
@<TRIPOS>BOND
     1    1    2 1    
     2    1   82 1    
     3    1   83 1    
     4    1   84 1    
     5    2    3 2    
     6    2    4 am   BACKBONE|DICT|INTERRES
     7    4    5 1    
     8    4   85 1    
     9    5    6 1    
    10    5   80 1    
    11    5   86 1    
    12    6    7 1    
    13    6   87 1    
    14    6   88 1    
    15    7    8 1    
    16    8    9 1    
    17    8   89 1    
    18    8   90 1    
    19    9   10 ar   
    20    9   14 ar   
    21   10   11 ar   
    22   10   91 1    
    23   11   12 ar   
    24   11   58 1    
    25   12   13 ar   
    26   12   92 1    
    27   13   14 ar   
    28   13   15 1    
    29   14   93 1    
    30   15   16 1    
    31   15   94 1    
    32   15   95 1    
    33   16   17 1    
    34   17   18 1    
    35   17   96 1    
    36   17   97 1    
    37   18   19 1    
    38   18   22 1    
    39   18   98 1    
    40   19   20 am   BACKBONE|DICT|INTERRES
    41   19   21 2    
    42   20   99 1    
    43   20  100 1    
    44   22   23 am   BACKBONE|DICT|INTERRES
    45   22  101 1    
    46   23   24 2    
    47   23   25 1    
    48   25   26 1    
    49   25   27 1    
    50   25  102 1    
    51   26  103 1    
    52   26  104 1    
    53   26  105 1    
    54   27   28 am   BACKBONE|DICT|INTERRES
    55   27  106 1    
    56   28   29 2    
    57   28   30 1    
    58   30   31 1    
    59   30   32 1    
    60   30  107 1    
    61   31  108 1    
    62   31  109 1    
    63   31  110 1    
    64   32   33 am   BACKBONE|DICT|INTERRES
    65   32  111 1    
    66   33   34 2    
    67   33   35 1    
    68   35   36 1    
    69   35   37 1    
    70   35  112 1    
    71   36  113 1    
    72   36  114 1    
    73   36  115 1    
    74   37   38 am   BACKBONE|DICT|INTERRES
    75   37  116 1    
    76   38   39 2    
    77   38   40 1    
    78   40   41 1    
    79   40   42 1    
    80   40  117 1    
    81   41  118 1    
    82   41  119 1    
    83   41  120 1    
    84   42   43 am   BACKBONE|DICT|INTERRES
    85   42  121 1    
    86   43   44 2    
    87   43   45 1    
    88   45   46 1    
    89   45   47 1    
    90   45  122 1    
    91   46  123 1    
    92   46  124 1    
    93   46  125 1    
    94   47   48 am   BACKBONE|DICT|INTERRES
    95   47  126 1    
    96   48   49 2    
    97   48   50 1    
    98   50   51 1    
    99   50   52 1    
   100   50  127 1    
   101   51  128 1    
   102   51  129 1    
   103   51  130 1    
   104   52   53 am   BACKBONE|DICT|INTERRES
   105   52  131 1    
   106   53   54 2    
   107   53   55 1    
   108   55   56 1    
   109   55   59 1    
   110   55  132 1    
   111   56   57 1    
   112   56  133 1    
   113   56  134 1    
   114   57   58 1    
   115   58  135 1    
   116   58  136 1    
   117   59   60 am   BACKBONE|DICT|INTERRES
   118   59  137 1    
   119   60   61 2    
   120   60   62 1    
   121   62   63 1    
   122   62   64 1    
   123   62  138 1    
   124   63  139 1    
   125   63  140 1    
   126   63  141 1    
   127   64   65 am   BACKBONE|DICT|INTERRES
   128   64  142 1    
   129   65   66 2    
   130   65   67 1    
   131   67   68 1    
   132   67   69 1    
   133   67  143 1    
   134   68  144 1    
   135   68  145 1    
   136   68  146 1    
   137   69   70 am   BACKBONE|DICT|INTERRES
   138   69  147 1    
   139   70   71 2    
   140   70   72 1    
   141   72   73 1    
   142   72   74 1    
   143   72  148 1    
   144   73  149 1    
   145   73  150 1    
   146   73  151 1    
   147   74   75 am   BACKBONE|DICT|INTERRES
   148   74  152 1    
   149   75   76 2    
   150   75   77 1    
   151   77   78 1    
   152   77   79 1    
   153   77  153 1    
   154   78  154 1    
   155   78  155 1    
   156   78  156 1    
   157   79   80 am   BACKBONE|DICT|INTERRES
   158   79  157 1    
   159   80   81 2    
@<TRIPOS>SUBSTRUCTURE
     1 UNK         1 GROUP             0       ****    0 ROOT    
