@<TRIPOS>MOLECULE
3R207
157   159    1
SMALL
USER_CHARGES


@<TRIPOS>ATOM
      1 CA        -47.9348  -27.2612    4.2139 C.3       0 UNK        -0.1975 
      2 C         -49.1268  -26.4565    4.7084 C.2       0 UNK         0.4852 
      3 O         -49.1944  -25.2521    4.4584 O.2       0 UNK        -0.5216 
      4 N         -50.0574  -27.1109    5.4184 N.am      1 UNK        -0.4461 
      5 CA        -51.2562  -26.5271    6.0343 C.3       1 UNK         0.0864 
      6 C6        -52.0722  -27.5848    6.8156 C.3       14 UNK        -0.0898 
      7 S7        -52.7463  -28.9180    5.7736 S.3       14 UNK        -0.2598 
      8 C8        -51.6081  -30.3010    6.1111 C.3       14 UNK         0.0286 
      9 C9        -51.6713  -30.8041    7.5494 C.ar      14 UNK        -0.0844 
     10 C10       -50.5995  -30.5838    8.4211 C.ar      14 UNK        -0.0881 
     11 C11       -50.5979  -31.1288    9.7095 C.ar      14 UNK        -0.0643 
     12 C12       -51.6940  -31.8963   10.1238 C.ar      14 UNK        -0.0930 
     13 C13       -52.7775  -32.1174    9.2664 C.ar      14 UNK        -0.0827 
     14 C14       -52.7627  -31.5623    7.9830 C.ar      14 UNK        -0.1249 
     15 C15       -53.9196  -33.0300    9.6964 C.3       14 UNK         0.0141 
     16 S16       -55.0660  -32.2335   10.8640 S.3       14 UNK        -0.2313 
     17 C17       -56.0626  -31.1693    9.7595 C.3       14 UNK        -0.0915 
     18 CA        -56.3868  -29.7805   10.3729 C.3       13 UNK         0.0968 
     19 C         -57.4755  -29.8635   11.4866 C.2       13 UNK         0.5732 
     20 N         -57.2126  -29.4452   12.7200 N.am      13 UNK        -0.7310 
     21 O         -58.5904  -30.3058   11.2192 O.2       13 UNK        -0.5035 
     22 N         -55.1524  -29.0822   10.7495 N.am      13 UNK        -0.4233 
     23 C         -55.0341  -27.7729   10.9824 C.2       13 UNK         0.4989 
     24 O         -55.9377  -26.9482   10.8298 O.2       13 UNK        -0.4996 
     25 CA        -53.6423  -27.3197   11.4392 C.3       12 UNK         0.0216 
     26 CB        -52.7876  -26.9025   10.2354 C.3       12 UNK        -0.1964 
     27 N         -53.6887  -26.2324   12.4139 N.am      12 UNK        -0.4276 
     28 C         -54.1375  -26.3597   13.6687 C.2       12 UNK         0.5020 
     29 O         -54.6493  -27.3902   14.1198 O.2       12 UNK        -0.5489 
     30 CA        -53.9649  -25.1313   14.5728 C.3       11 UNK         0.0294 
     31 CB        -54.9563  -24.0140   14.1982 C.3       11 UNK        -0.2019 
     32 N         -54.1817  -25.5393   15.9586 N.am      11 UNK        -0.4493 
     33 C         -53.6409  -25.0436   17.0791 C.2       11 UNK         0.4932 
     34 O         -53.9497  -25.4969   18.1806 O.2       11 UNK        -0.5029 
     35 CA        -52.6115  -23.8917   16.9954 C.3       10 UNK         0.0280 
     36 CB        -52.7479  -22.9002   18.1709 C.3       10 UNK        -0.1976 
     37 N         -51.2336  -24.3916   16.8790 N.am      10 UNK        -0.4242 
     38 C         -50.5262  -25.1032   17.7753 C.2       10 UNK         0.5072 
     39 O         -50.9451  -25.4280   18.8868 O.2       10 UNK        -0.5224 
     40 CA        -49.0910  -25.5296   17.3970 C.3       9 UNK         0.0343 
     41 CB        -49.0140  -27.0515   17.1886 C.3       9 UNK        -0.2003 
     42 N         -48.5519  -24.8583   16.2126 N.am      9 UNK        -0.4272 
     43 C         -48.1626  -23.5764   16.1625 C.2       9 UNK         0.4988 
     44 O         -48.1515  -22.8240   17.1370 O.2       9 UNK        -0.5108 
     45 CA        -47.7501  -23.0307   14.7826 C.3       8 UNK         0.0248 
     46 CB        -46.2426  -23.2196   14.5480 C.3       8 UNK        -0.2001 
     47 N         -48.5010  -23.6389   13.6793 N.am      8 UNK        -0.4140 
     48 C         -49.8253  -23.5190   13.5038 C.2       8 UNK         0.5028 
     49 O         -50.5599  -22.8472   14.2278 O.2       8 UNK        -0.5428 
     50 CA        -50.4465  -24.3518   12.3762 C.3       7 UNK         0.0264 
     51 CB        -50.2746  -23.6662   11.0147 C.3       7 UNK        -0.1988 
     52 N         -49.9008  -25.7110   12.3366 N.am      7 UNK        -0.4454 
     53 C         -50.1644  -26.6433   13.2684 C.2       7 UNK         0.5027 
     54 O         -50.9118  -26.4461   14.2247 O.2       7 UNK        -0.5083 
     55 CA        -49.4671  -28.0146   13.1441 C.3       6 UNK         0.0844 
     56 C56       -50.3713  -29.0093   12.3770 C.3       14 UNK        -0.0967 
     57 S57       -49.7076  -30.7053   12.3620 S.3       14 UNK        -0.2604 
     58 C58       -49.3589  -30.9621   10.5903 C.3       14 UNK         0.0134 
     59 N         -48.1212  -27.9092   12.5760 N.am      6 UNK        -0.4116 
     60 C         -47.1109  -27.2196   13.1246 C.2       5 UNK         0.5034 
     61 O         -47.1863  -26.6423   14.2092 O.2       5 UNK        -0.5045 
     62 CA        -45.8152  -27.1059   12.3011 C.3       5 UNK         0.0224 
     63 CB        -44.8064  -28.1772   12.7438 C.3       5 UNK        -0.1978 
     64 N         -46.0095  -27.1902   10.8461 N.am      5 UNK        -0.4737 
     65 C         -46.7789  -26.3660   10.1212 C.2       4 UNK         0.5027 
     66 O         -47.4620  -25.4649   10.6123 O.2       4 UNK        -0.5211 
     67 CA        -46.8427  -26.6542    8.6145 C.3       4 UNK         0.0297 
     68 CB        -47.8137  -27.8126    8.3330 C.3       4 UNK        -0.1993 
     69 N         -47.2695  -25.4697    7.8666 N.am      4 UNK        -0.4486 
     70 C         -46.4321  -24.5042    7.4574 C.2       3 UNK         0.4961 
     71 O         -45.2170  -24.5383    7.6597 O.2       3 UNK        -0.5105 
     72 CA        -47.0059  -23.3126    6.6655 C.3       3 UNK         0.0299 
     73 CB        -46.4330  -23.2893    5.2375 C.3       3 UNK        -0.1972 
     74 N         -48.4671  -23.3244    6.5840 N.am      3 UNK        -0.4305 
     75 C         -49.2833  -22.6914    7.4393 C.2       2 UNK         0.5006 
     76 O         -48.8861  -21.9682    8.3531 O.2       2 UNK        -0.5106 
     77 CA        -50.8029  -22.8912    7.2572 C.3       2 UNK         0.0296 
     78 CB        -51.4150  -21.6895    6.5190 C.3       2 UNK        -0.2002 
     79 N         -51.1767  -24.1255    6.5573 N.am      2 UNK        -0.4032 
     80 C         -50.8764  -25.3640    6.9721 C.2       1 UNK         0.5000 
     81 O         -50.2669  -25.6060    8.0148 O.2       1 UNK        -0.5238 
     82 H82       -48.0400  -28.3239    4.4314 H         1 UNK         0.0889 
     83 H83       -47.0216  -26.9052    4.6903 H         1 UNK         0.0889 
     84 H84       -47.8255  -27.1452    3.1360 H         1 UNK         0.0889 
     85 H85       -49.9399  -28.0987    5.5784 H         1 UNK         0.3028 
     86 H86       -51.8819  -26.1367    5.2291 H         1 UNK         0.0864 
     87 H87       -51.4694  -28.0146    7.6161 H         1 UNK         0.0720 
     88 H88       -52.9292  -27.1105    7.2968 H         1 UNK         0.0720 
     89 H89       -50.5916  -30.0075    5.8481 H         1 UNK         0.0814 
     90 H90       -51.8602  -31.1240    5.4408 H         1 UNK         0.0814 
     91 H91       -49.7424  -30.0213    8.0789 H         1 UNK         0.1469 
     92 H92       -51.6922  -32.3519   11.1045 H         1 UNK         0.1381 
     93 H93       -53.5832  -31.7505    7.3040 H         1 UNK         0.1206 
     94 H94       -53.5026  -33.9181   10.1735 H         1 UNK         0.0813 
     95 H95       -54.4772  -33.3909    8.8306 H         1 UNK         0.0813 
     96 H96       -55.5211  -31.0240    8.8241 H         1 UNK         0.0638 
     97 H97       -56.9753  -31.7026    9.4878 H         1 UNK         0.0638 
     98 H98       -56.8464  -29.1880    9.5797 H         1 UNK         0.0568 
     99 H99       -57.9329  -29.5039   13.4218 H         1 UNK         0.3450 
    100 H100      -56.3124  -29.0547   12.9543 H         1 UNK         0.3450 
    101 H101      -54.3567  -29.6860   10.8972 H         1 UNK         0.2987 
    102 H102      -53.1583  -28.1660   11.9260 H         1 UNK         0.0766 
    103 H103      -52.6622  -27.7507    9.5639 H         1 UNK         0.0798 
    104 H104      -51.7899  -26.5814   10.5291 H         1 UNK         0.0798 
    105 H105      -53.2476  -26.0920    9.6684 H         1 UNK         0.0798 
    106 H106      -53.3594  -25.3331   12.0996 H         1 UNK         0.3198 
    107 H107      -52.9411  -24.7793   14.4462 H         1 UNK         0.0843 
    108 H108      -55.9895  -24.3565   14.2706 H         1 UNK         0.0831 
    109 H109      -54.7988  -23.6713   13.1750 H         1 UNK         0.0831 
    110 H110      -54.8501  -23.1443   14.8462 H         1 UNK         0.0831 
    111 H111      -54.7693  -26.3615   16.0278 H         1 UNK         0.3133 
    112 H112      -52.8009  -23.3060   16.0973 H         1 UNK         0.0566 
    113 H113      -52.0401  -22.0765   18.0768 H         1 UNK         0.0814 
    114 H114      -53.7486  -22.4675   18.1956 H         1 UNK         0.0814 
    115 H115      -52.5799  -23.3756   19.1376 H         1 UNK         0.0814 
    116 H116      -50.7864  -24.1890   15.9930 H         1 UNK         0.3091 
    117 H117      -48.4487  -25.2756   18.2428 H         1 UNK         0.0702 
    118 H118      -48.0016  -27.3699   16.9387 H         1 UNK         0.0785 
    119 H119      -49.6779  -27.3830   16.3909 H         1 UNK         0.0785 
    120 H120      -49.3069  -27.5838   18.0945 H         1 UNK         0.0785 
    121 H121      -48.4459  -25.4248   15.3785 H         1 UNK         0.2998 
    122 H122      -47.9644  -21.9599   14.7759 H         1 UNK         0.0697 
    123 H123      -45.9602  -24.2726   14.5441 H         1 UNK         0.0825 
    124 H124      -45.6636  -22.7319   15.3335 H         1 UNK         0.0825 
    125 H125      -45.9298  -22.7839   13.5988 H         1 UNK         0.0825 
    126 H126      -47.9848  -24.2281   13.0405 H         1 UNK         0.3029 
    127 H127      -51.5159  -24.4192   12.5737 H         1 UNK         0.0897 
    128 H128      -49.2254  -23.5413   10.7462 H         1 UNK         0.0792 
    129 H129      -50.7277  -22.6741   11.0156 H         1 UNK         0.0792 
    130 H130      -50.7548  -24.2414   10.2246 H         1 UNK         0.0792 
    131 H131      -49.2163  -25.9000   11.6106 H         1 UNK         0.3086 
    132 H132      -49.3467  -28.3961   14.1602 H         1 UNK         0.0583 
    133 H133      -51.3453  -29.0696   12.8643 H         1 UNK         0.1020 
    134 H134      -50.5553  -28.6697   11.3560 H         1 UNK         0.1020 
    135 H135      -48.7424  -30.1358   10.2365 H         1 UNK         0.0694 
    136 H136      -48.7504  -31.8615   10.4897 H         1 UNK         0.0694 
    137 H137      -47.9634  -28.3648   11.6911 H         1 UNK         0.2989 
    138 H138      -45.3895  -26.1234   12.5166 H         1 UNK         0.1055 
    139 H139      -44.6253  -28.1223   13.8185 H         1 UNK         0.0806 
    140 H140      -43.8436  -28.0457   12.2497 H         1 UNK         0.0806 
    141 H141      -45.1632  -29.1846   12.5251 H         1 UNK         0.0806 
    142 H142      -45.4900  -27.9117   10.3657 H         1 UNK         0.3061 
    143 H143      -45.8488  -26.9527    8.2736 H         1 UNK         0.0734 
    144 H144      -47.9237  -27.9867    7.2637 H         1 UNK         0.0832 
    145 H145      -47.4451  -28.7411    8.7691 H         1 UNK         0.0832 
    146 H146      -48.8043  -27.6256    8.7490 H         1 UNK         0.0832 
    147 H147      -48.2720  -25.3340    7.7819 H         1 UNK         0.3156 
    148 H148      -46.6745  -22.4026    7.1698 H         1 UNK         0.0589 
    149 H149      -45.3451  -23.2102    5.2527 H         1 UNK         0.0808 
    150 H150      -46.6846  -24.1948    4.6847 H         1 UNK         0.0808 
    151 H151      -46.8096  -22.4363    4.6727 H         1 UNK         0.0808 
    152 H152      -48.8701  -23.9018    5.8499 H         1 UNK         0.3098 
    153 H153      -51.2441  -22.9355    8.2542 H         1 UNK         0.0720 
    154 H154      -52.5014  -21.7649    6.4676 H         1 UNK         0.0791 
    155 H155      -51.0336  -21.6049    5.5005 H         1 UNK         0.0791 
    156 H156      -51.1818  -20.7556    7.0327 H         1 UNK         0.0791 
    157 H157      -51.6368  -24.0128    5.6652 H         1 UNK         0.3028 
@<TRIPOS>BOND
     1    1    2 1    
     2    1   82 1    
     3    1   83 1    
     4    1   84 1    
     5    2    3 2    
     6    2    4 am   BACKBONE|DICT|INTERRES
     7    4    5 1    
     8    4   85 1    
     9    5    6 1    
    10    5   80 1    
    11    5   86 1    
    12    6    7 1    
    13    6   87 1    
    14    6   88 1    
    15    7    8 1    
    16    8    9 1    
    17    8   89 1    
    18    8   90 1    
    19    9   10 ar   
    20    9   14 ar   
    21   10   11 ar   
    22   10   91 1    
    23   11   12 ar   
    24   11   58 1    
    25   12   13 ar   
    26   12   92 1    
    27   13   14 ar   
    28   13   15 1    
    29   14   93 1    
    30   15   16 1    
    31   15   94 1    
    32   15   95 1    
    33   16   17 1    
    34   17   18 1    
    35   17   96 1    
    36   17   97 1    
    37   18   19 1    
    38   18   22 1    
    39   18   98 1    
    40   19   20 am   BACKBONE|DICT|INTERRES
    41   19   21 2    
    42   20   99 1    
    43   20  100 1    
    44   22   23 am   BACKBONE|DICT|INTERRES
    45   22  101 1    
    46   23   24 2    
    47   23   25 1    
    48   25   26 1    
    49   25   27 1    
    50   25  102 1    
    51   26  103 1    
    52   26  104 1    
    53   26  105 1    
    54   27   28 am   BACKBONE|DICT|INTERRES
    55   27  106 1    
    56   28   29 2    
    57   28   30 1    
    58   30   31 1    
    59   30   32 1    
    60   30  107 1    
    61   31  108 1    
    62   31  109 1    
    63   31  110 1    
    64   32   33 am   BACKBONE|DICT|INTERRES
    65   32  111 1    
    66   33   34 2    
    67   33   35 1    
    68   35   36 1    
    69   35   37 1    
    70   35  112 1    
    71   36  113 1    
    72   36  114 1    
    73   36  115 1    
    74   37   38 am   BACKBONE|DICT|INTERRES
    75   37  116 1    
    76   38   39 2    
    77   38   40 1    
    78   40   41 1    
    79   40   42 1    
    80   40  117 1    
    81   41  118 1    
    82   41  119 1    
    83   41  120 1    
    84   42   43 am   BACKBONE|DICT|INTERRES
    85   42  121 1    
    86   43   44 2    
    87   43   45 1    
    88   45   46 1    
    89   45   47 1    
    90   45  122 1    
    91   46  123 1    
    92   46  124 1    
    93   46  125 1    
    94   47   48 am   BACKBONE|DICT|INTERRES
    95   47  126 1    
    96   48   49 2    
    97   48   50 1    
    98   50   51 1    
    99   50   52 1    
   100   50  127 1    
   101   51  128 1    
   102   51  129 1    
   103   51  130 1    
   104   52   53 am   BACKBONE|DICT|INTERRES
   105   52  131 1    
   106   53   54 2    
   107   53   55 1    
   108   55   56 1    
   109   55   59 1    
   110   55  132 1    
   111   56   57 1    
   112   56  133 1    
   113   56  134 1    
   114   57   58 1    
   115   58  135 1    
   116   58  136 1    
   117   59   60 am   BACKBONE|DICT|INTERRES
   118   59  137 1    
   119   60   61 2    
   120   60   62 1    
   121   62   63 1    
   122   62   64 1    
   123   62  138 1    
   124   63  139 1    
   125   63  140 1    
   126   63  141 1    
   127   64   65 am   BACKBONE|DICT|INTERRES
   128   64  142 1    
   129   65   66 2    
   130   65   67 1    
   131   67   68 1    
   132   67   69 1    
   133   67  143 1    
   134   68  144 1    
   135   68  145 1    
   136   68  146 1    
   137   69   70 am   BACKBONE|DICT|INTERRES
   138   69  147 1    
   139   70   71 2    
   140   70   72 1    
   141   72   73 1    
   142   72   74 1    
   143   72  148 1    
   144   73  149 1    
   145   73  150 1    
   146   73  151 1    
   147   74   75 am   BACKBONE|DICT|INTERRES
   148   74  152 1    
   149   75   76 2    
   150   75   77 1    
   151   77   78 1    
   152   77   79 1    
   153   77  153 1    
   154   78  154 1    
   155   78  155 1    
   156   78  156 1    
   157   79   80 am   BACKBONE|DICT|INTERRES
   158   79  157 1    
   159   80   81 2    
@<TRIPOS>SUBSTRUCTURE
     1 UNK         1 GROUP             0       ****    0 ROOT    
