@<TRIPOS>MOLECULE
3R207
157   159    1
SMALL
USER_CHARGES


@<TRIPOS>ATOM
      1 CA        -51.6585  -28.3572    1.9429 C.3       0 UNK        -0.1975 
      2 C         -51.4788  -27.2128    2.9292 C.2       0 UNK         0.4852 
      3 O         -51.7696  -26.0643    2.5938 O.2       0 UNK        -0.5216 
      4 N         -50.9939  -27.5162    4.1413 N.am      1 UNK        -0.4461 
      5 CA        -50.7868  -26.5477    5.2297 C.3       1 UNK         0.0864 
      6 C6        -50.7694  -27.2273    6.6227 C.3       14 UNK        -0.0898 
      7 S7        -52.3148  -28.1373    6.9614 S.3       14 UNK        -0.2598 
      8 C8        -51.7247  -29.8567    7.0529 C.3       14 UNK         0.0286 
      9 C9        -51.1537  -30.1748    8.4262 C.ar      14 UNK        -0.0844 
     10 C10       -49.7789  -30.0994    8.6663 C.ar      14 UNK        -0.0881 
     11 C11       -49.2602  -30.4061    9.9282 C.ar      14 UNK        -0.0643 
     12 C12       -50.1308  -30.7713   10.9611 C.ar      14 UNK        -0.0930 
     13 C13       -51.5083  -30.8633   10.7276 C.ar      14 UNK        -0.0827 
     14 C14       -52.0091  -30.5703    9.4566 C.ar      14 UNK        -0.1249 
     15 C15       -52.4533  -31.3240   11.8296 C.3       14 UNK         0.0141 
     16 S16       -53.3384  -29.9379   12.6080 S.3       14 UNK        -0.2313 
     17 C17       -54.6357  -29.5647   11.3823 C.3       14 UNK        -0.0915 
     18 CA        -55.8570  -28.7961   11.9546 C.3       13 UNK         0.0968 
     19 C         -56.6643  -29.6086   13.0071 C.2       13 UNK         0.5732 
     20 N         -57.3114  -30.6880   12.5871 N.am      13 UNK        -0.7310 
     21 O         -56.7037  -29.2876   14.1930 O.2       13 UNK        -0.5035 
     22 N         -55.4839  -27.4460   12.4008 N.am      13 UNK        -0.4233 
     23 C         -56.3369  -26.4179   12.4792 C.2       13 UNK         0.4989 
     24 O         -57.5396  -26.4979   12.2184 O.2       13 UNK        -0.4996 
     25 CA        -55.7167  -25.0656   12.8620 C.3       12 UNK         0.0216 
     26 CB        -56.6555  -23.8641   12.6130 C.3       12 UNK        -0.1964 
     27 N         -55.1803  -25.0600   14.2254 N.am      12 UNK        -0.4276 
     28 C         -55.8525  -25.0796   15.3847 C.2       12 UNK         0.5020 
     29 O         -57.0773  -25.1819   15.4779 O.2       12 UNK        -0.5489 
     30 CA        -54.9971  -24.8892   16.6517 C.3       11 UNK         0.0294 
     31 CB        -55.8050  -24.9818   17.9654 C.3       11 UNK        -0.2019 
     32 N         -53.8108  -25.7514   16.6794 N.am      11 UNK        -0.4493 
     33 C         -53.7688  -27.0838   16.8364 C.2       11 UNK         0.4932 
     34 O         -54.7694  -27.7833   16.9938 O.2       11 UNK        -0.5029 
     35 CA        -52.3857  -27.7706   16.8386 C.3       10 UNK         0.0280 
     36 CB        -52.3089  -28.8530   15.7550 C.3       10 UNK        -0.1976 
     37 N         -51.2616  -26.8532   16.6468 N.am      10 UNK        -0.4242 
     38 C         -50.7312  -26.0674   17.5920 C.2       10 UNK         0.5072 
     39 O         -51.0881  -26.0726   18.7705 O.2       10 UNK        -0.5224 
     40 CA        -49.6456  -25.0773   17.1343 C.3       9 UNK         0.0343 
     41 CB        -48.2565  -25.7293   17.2174 C.3       9 UNK        -0.2003 
     42 N         -49.8652  -24.5529   15.7803 N.am      9 UNK        -0.4272 
     43 C         -50.9304  -23.8276   15.4048 C.2       9 UNK         0.4988 
     44 O         -51.8440  -23.5108   16.1669 O.2       9 UNK        -0.5108 
     45 CA        -51.0252  -23.4311   13.9223 C.3       8 UNK         0.0248 
     46 CB        -50.0495  -22.2903   13.5927 C.3       8 UNK        -0.2001 
     47 N         -50.7977  -24.5604   13.0185 N.am      8 UNK        -0.4140 
     48 C         -51.5647  -25.6587   12.9598 C.2       8 UNK         0.5028 
     49 O         -52.5832  -25.8201   13.6308 O.2       8 UNK        -0.5428 
     50 CA        -51.0955  -26.7898   12.0342 C.3       7 UNK         0.0264 
     51 CB        -51.5096  -26.5382   10.5764 C.3       7 UNK        -0.1988 
     52 N         -49.6531  -27.0072   12.1163 N.am      7 UNK        -0.4454 
     53 C         -49.0208  -27.4599   13.2077 C.2       7 UNK         0.5027 
     54 O         -49.5887  -27.7541   14.2603 O.2       7 UNK        -0.5083 
     55 CA        -47.4857  -27.5511   13.1260 C.3       6 UNK         0.0844 
     56 C56       -47.0163  -28.8348   12.3979 C.3       14 UNK        -0.0967 
     57 S57       -47.1340  -28.7404   10.5749 S.3       14 UNK        -0.2604 
     58 C58       -47.7540  -30.3945   10.1446 C.3       14 UNK         0.0134 
     59 N         -46.8884  -26.3372   12.5633 N.am      6 UNK        -0.4116 
     60 C         -46.9529  -25.1212   13.1186 C.2       5 UNK         0.5034 
     61 O         -47.5000  -24.8812   14.1937 O.2       5 UNK        -0.5045 
     62 CA        -46.3300  -23.9672   12.3218 C.3       5 UNK         0.0224 
     63 CB        -44.8091  -23.9180   12.5364 C.3       5 UNK        -0.1978 
     64 N         -46.6203  -24.0041   10.8855 N.am      5 UNK        -0.4737 
     65 C         -47.8361  -23.9695   10.3282 C.2       4 UNK         0.5027 
     66 O         -48.8827  -24.0530   10.9694 O.2       4 UNK        -0.5211 
     67 CA        -47.9043  -23.7726    8.8040 C.3       4 UNK         0.0297 
     68 CB        -47.4396  -22.3576    8.4098 C.3       4 UNK        -0.1993 
     69 N         -47.2238  -24.7909    7.9944 N.am      4 UNK        -0.4486 
     70 C         -45.9267  -25.1362    7.9608 C.2       3 UNK         0.4961 
     71 O         -45.0598  -24.6571    8.6927 O.2       3 UNK        -0.5105 
     72 CA        -45.5167  -26.1864    6.9101 C.3       3 UNK         0.0299 
     73 CB        -45.5306  -27.5966    7.5189 C.3       3 UNK        -0.1972 
     74 N         -46.3653  -26.1721    5.7153 N.am      3 UNK        -0.4305 
     75 C         -46.3933  -25.1834    4.8094 C.2       2 UNK         0.5006 
     76 O         -45.6397  -24.2097    4.8328 O.2       2 UNK        -0.5106 
     77 CA        -47.4500  -25.2869    3.6941 C.3       2 UNK         0.0296 
     78 CB        -46.8402  -25.9196    2.4325 C.3       2 UNK        -0.2002 
     79 N         -48.6614  -26.0276    4.0683 N.am      2 UNK        -0.4032 
     80 C         -49.5247  -25.6777    5.0361 C.2       1 UNK         0.5000 
     81 O         -49.3460  -24.7157    5.7840 O.2       1 UNK        -0.5238 
     82 H82       -51.0571  -28.1826    1.0511 H         1 UNK         0.0889 
     83 H83       -52.7029  -28.4301    1.6406 H         1 UNK         0.0889 
     84 H84       -51.3624  -29.3152    2.3700 H         1 UNK         0.0889 
     85 H85       -50.7898  -28.4793    4.3661 H         1 UNK         0.3028 
     86 H86       -51.6302  -25.8533    5.2191 H         1 UNK         0.0864 
     87 H87       -49.9115  -27.8941    6.7142 H         1 UNK         0.0720 
     88 H88       -50.6571  -26.4820    7.4128 H         1 UNK         0.0720 
     89 H89       -50.9883  -30.0472    6.2711 H         1 UNK         0.0814 
     90 H90       -52.5625  -30.5239    6.8443 H         1 UNK         0.0814 
     91 H91       -49.1062  -29.8180    7.8683 H         1 UNK         0.1469 
     92 H92       -49.7336  -31.0103   11.9379 H         1 UNK         0.1381 
     93 H93       -53.0697  -30.6507    9.2651 H         1 UNK         0.1206 
     94 H94       -53.1687  -32.0462   11.4339 H         1 UNK         0.0813 
     95 H95       -51.8935  -31.8507   12.6039 H         1 UNK         0.0813 
     96 H96       -54.1825  -28.9777   10.5820 H         1 UNK         0.0638 
     97 H97       -54.9648  -30.4962   10.9196 H         1 UNK         0.0638 
     98 H98       -56.5412  -28.6569   11.1149 H         1 UNK         0.0568 
     99 H99       -57.2886  -30.9689   11.6196 H         1 UNK         0.3450 
    100 H100      -57.8354  -31.2324   13.2541 H         1 UNK         0.3450 
    101 H101      -54.5256  -27.3202   12.6946 H         1 UNK         0.2987 
    102 H102      -54.8559  -24.9300   12.2049 H         1 UNK         0.0766 
    103 H103      -57.5684  -23.9252   13.2059 H         1 UNK         0.0798 
    104 H104      -56.1637  -22.9208   12.8503 H         1 UNK         0.0798 
    105 H105      -56.9557  -23.8186   11.5655 H         1 UNK         0.0798 
    106 H106      -54.1629  -25.1165   14.2655 H         1 UNK         0.3198 
    107 H107      -54.6126  -23.8696   16.5922 H         1 UNK         0.0843 
    108 H108      -56.5863  -24.2214   17.9933 H         1 UNK         0.0831 
    109 H109      -55.1683  -24.8236   18.8357 H         1 UNK         0.0831 
    110 H110      -56.2955  -25.9489   18.0773 H         1 UNK         0.0831 
    111 H111      -52.9326  -25.2638   16.5382 H         1 UNK         0.3133 
    112 H112      -52.2749  -28.2586   17.8089 H         1 UNK         0.0566 
    113 H113      -51.3821  -29.4226   15.8241 H         1 UNK         0.0814 
    114 H114      -53.1342  -29.5620   15.8325 H         1 UNK         0.0814 
    115 H115      -52.3495  -28.4040   14.7635 H         1 UNK         0.0814 
    116 H116      -50.8649  -26.8206   15.7134 H         1 UNK         0.3091 
    117 H117      -49.6656  -24.2290   17.8215 H         1 UNK         0.0702 
    118 H118      -47.4678  -25.0099   16.9964 H         1 UNK         0.0785 
    119 H119      -48.1590  -26.5583   16.5150 H         1 UNK         0.0785 
    120 H120      -48.0661  -26.1218   18.2172 H         1 UNK         0.0785 
    121 H121      -49.1338  -24.7448   15.0987 H         1 UNK         0.2998 
    122 H122      -52.0395  -23.0692   13.7415 H         1 UNK         0.0697 
    123 H123      -49.0113  -22.5922   13.7306 H         1 UNK         0.0825 
    124 H124      -50.2270  -21.4268   14.2350 H         1 UNK         0.0825 
    125 H125      -50.1645  -21.9570   12.5611 H         1 UNK         0.0825 
    126 H126      -50.0057  -24.4866   12.3822 H         1 UNK         0.3029 
    127 H127      -51.5812  -27.7069   12.3679 H         1 UNK         0.0897 
    128 H128      -51.2506  -27.3879    9.9436 H         1 UNK         0.0792 
    129 H129      -51.0297  -25.6506   10.1630 H         1 UNK         0.0792 
    130 H130      -52.5882  -26.3967   10.4968 H         1 UNK         0.0792 
    131 H131      -49.1040  -26.7731   11.3021 H         1 UNK         0.3086 
    132 H132      -47.1305  -27.6227   14.1566 H         1 UNK         0.0583 
    133 H133      -45.9706  -29.0238   12.6455 H         1 UNK         0.1020 
    134 H134      -47.5614  -29.7042   12.7709 H         1 UNK         0.1020 
    135 H135      -47.2558  -30.7169    9.2289 H         1 UNK         0.0694 
    136 H136      -47.4672  -31.1217   10.9056 H         1 UNK         0.0694 
    137 H137      -46.4409  -26.4360   11.6636 H         1 UNK         0.2989 
    138 H138      -46.7572  -23.0415   12.7126 H         1 UNK         0.1055 
    139 H139      -44.5646  -23.8799   13.5991 H         1 UNK         0.0806 
    140 H140      -44.3726  -23.0327   12.0735 H         1 UNK         0.0806 
    141 H141      -44.3123  -24.7939   12.1170 H         1 UNK         0.0806 
    142 H142      -45.8279  -24.0173   10.2461 H         1 UNK         0.3061 
    143 H143      -48.9590  -23.8492    8.5338 H         1 UNK         0.0734 
    144 H144      -46.3781  -22.2042    8.6065 H         1 UNK         0.0832 
    145 H145      -47.6127  -22.1691    7.3501 H         1 UNK         0.0832 
    146 H146      -47.9873  -21.5970    8.9680 H         1 UNK         0.0832 
    147 H147      -47.8260  -25.2237    7.3054 H         1 UNK         0.3156 
    148 H148      -44.4937  -25.9592    6.6027 H         1 UNK         0.0589 
    149 H149      -46.5412  -27.9132    7.7781 H         1 UNK         0.0808 
    150 H150      -45.1163  -28.3312    6.8282 H         1 UNK         0.0808 
    151 H151      -44.9312  -27.6372    8.4297 H         1 UNK         0.0808 
    152 H152      -46.9973  -26.9492    5.5927 H         1 UNK         0.3098 
    153 H153      -47.7567  -24.2678    3.4490 H         1 UNK         0.0720 
    154 H154      -47.5443  -25.9048    1.6002 H         1 UNK         0.0791 
    155 H155      -46.5412  -26.9547    2.6029 H         1 UNK         0.0791 
    156 H156      -45.9522  -25.3728    2.1115 H         1 UNK         0.0791 
    157 H157      -48.8912  -26.8334    3.5055 H         1 UNK         0.3028 
@<TRIPOS>BOND
     1    1    2 1    
     2    1   82 1    
     3    1   83 1    
     4    1   84 1    
     5    2    3 2    
     6    2    4 am   BACKBONE|DICT|INTERRES
     7    4    5 1    
     8    4   85 1    
     9    5    6 1    
    10    5   80 1    
    11    5   86 1    
    12    6    7 1    
    13    6   87 1    
    14    6   88 1    
    15    7    8 1    
    16    8    9 1    
    17    8   89 1    
    18    8   90 1    
    19    9   10 ar   
    20    9   14 ar   
    21   10   11 ar   
    22   10   91 1    
    23   11   12 ar   
    24   11   58 1    
    25   12   13 ar   
    26   12   92 1    
    27   13   14 ar   
    28   13   15 1    
    29   14   93 1    
    30   15   16 1    
    31   15   94 1    
    32   15   95 1    
    33   16   17 1    
    34   17   18 1    
    35   17   96 1    
    36   17   97 1    
    37   18   19 1    
    38   18   22 1    
    39   18   98 1    
    40   19   20 am   BACKBONE|DICT|INTERRES
    41   19   21 2    
    42   20   99 1    
    43   20  100 1    
    44   22   23 am   BACKBONE|DICT|INTERRES
    45   22  101 1    
    46   23   24 2    
    47   23   25 1    
    48   25   26 1    
    49   25   27 1    
    50   25  102 1    
    51   26  103 1    
    52   26  104 1    
    53   26  105 1    
    54   27   28 am   BACKBONE|DICT|INTERRES
    55   27  106 1    
    56   28   29 2    
    57   28   30 1    
    58   30   31 1    
    59   30   32 1    
    60   30  107 1    
    61   31  108 1    
    62   31  109 1    
    63   31  110 1    
    64   32   33 am   BACKBONE|DICT|INTERRES
    65   32  111 1    
    66   33   34 2    
    67   33   35 1    
    68   35   36 1    
    69   35   37 1    
    70   35  112 1    
    71   36  113 1    
    72   36  114 1    
    73   36  115 1    
    74   37   38 am   BACKBONE|DICT|INTERRES
    75   37  116 1    
    76   38   39 2    
    77   38   40 1    
    78   40   41 1    
    79   40   42 1    
    80   40  117 1    
    81   41  118 1    
    82   41  119 1    
    83   41  120 1    
    84   42   43 am   BACKBONE|DICT|INTERRES
    85   42  121 1    
    86   43   44 2    
    87   43   45 1    
    88   45   46 1    
    89   45   47 1    
    90   45  122 1    
    91   46  123 1    
    92   46  124 1    
    93   46  125 1    
    94   47   48 am   BACKBONE|DICT|INTERRES
    95   47  126 1    
    96   48   49 2    
    97   48   50 1    
    98   50   51 1    
    99   50   52 1    
   100   50  127 1    
   101   51  128 1    
   102   51  129 1    
   103   51  130 1    
   104   52   53 am   BACKBONE|DICT|INTERRES
   105   52  131 1    
   106   53   54 2    
   107   53   55 1    
   108   55   56 1    
   109   55   59 1    
   110   55  132 1    
   111   56   57 1    
   112   56  133 1    
   113   56  134 1    
   114   57   58 1    
   115   58  135 1    
   116   58  136 1    
   117   59   60 am   BACKBONE|DICT|INTERRES
   118   59  137 1    
   119   60   61 2    
   120   60   62 1    
   121   62   63 1    
   122   62   64 1    
   123   62  138 1    
   124   63  139 1    
   125   63  140 1    
   126   63  141 1    
   127   64   65 am   BACKBONE|DICT|INTERRES
   128   64  142 1    
   129   65   66 2    
   130   65   67 1    
   131   67   68 1    
   132   67   69 1    
   133   67  143 1    
   134   68  144 1    
   135   68  145 1    
   136   68  146 1    
   137   69   70 am   BACKBONE|DICT|INTERRES
   138   69  147 1    
   139   70   71 2    
   140   70   72 1    
   141   72   73 1    
   142   72   74 1    
   143   72  148 1    
   144   73  149 1    
   145   73  150 1    
   146   73  151 1    
   147   74   75 am   BACKBONE|DICT|INTERRES
   148   74  152 1    
   149   75   76 2    
   150   75   77 1    
   151   77   78 1    
   152   77   79 1    
   153   77  153 1    
   154   78  154 1    
   155   78  155 1    
   156   78  156 1    
   157   79   80 am   BACKBONE|DICT|INTERRES
   158   79  157 1    
   159   80   81 2    
@<TRIPOS>SUBSTRUCTURE
     1 UNK         1 GROUP             0       ****    0 ROOT    
