@<TRIPOS>MOLECULE
3R207
157   159    1
SMALL
USER_CHARGES


@<TRIPOS>ATOM
      1 CA        -51.3437  -32.7105    6.2672 C.3       0 UNK        -0.1975 
      2 C         -50.2572  -31.7099    5.9023 C.2       0 UNK         0.4852 
      3 O         -49.2362  -32.0947    5.3320 O.2       0 UNK        -0.5216 
      4 N         -50.4690  -30.4287    6.2320 N.am      1 UNK        -0.4461 
      5 CA        -49.5390  -29.3248    5.9563 C.3       1 UNK         0.0864 
      6 C6        -50.2462  -27.9473    6.0473 C.3       14 UNK        -0.0898 
      7 S7        -51.3930  -27.6673    4.6587 S.3       14 UNK        -0.2598 
      8 C8        -53.0172  -28.0990    5.3712 C.3       14 UNK         0.0286 
      9 C9        -53.5291  -27.1225    6.4279 C.ar      14 UNK        -0.0844 
     10 C10       -53.4431  -25.7382    6.2419 C.ar      14 UNK        -0.0881 
     11 C11       -53.9894  -24.8577    7.1807 C.ar      14 UNK        -0.0643 
     12 C12       -54.6321  -25.3691    8.3104 C.ar      14 UNK        -0.0930 
     13 C13       -54.7105  -26.7509    8.5249 C.ar      14 UNK        -0.0827 
     14 C14       -54.1614  -27.6165    7.5732 C.ar      14 UNK        -0.1249 
     15 C15       -55.4121  -27.3449    9.7461 C.3       14 UNK         0.0141 
     16 S16       -55.3190  -26.3022   11.2410 S.3       14 UNK        -0.2313 
     17 C17       -55.4843  -27.5361   12.5752 C.3       14 UNK        -0.0915 
     18 CA        -54.1603  -27.7191   13.3745 C.3       13 UNK         0.0968 
     19 C         -54.3092  -28.6584   14.6112 C.2       13 UNK         0.5732 
     20 N         -53.2662  -29.3641   15.0354 N.am      13 UNK        -0.7310 
     21 O         -55.3791  -28.7397   15.2104 O.2       13 UNK        -0.5035 
     22 N         -53.0052  -28.0349   12.5199 N.am      13 UNK        -0.4233 
     23 C         -52.8225  -29.1577   11.8110 C.2       13 UNK         0.4989 
     24 O         -53.6665  -30.0466   11.6923 O.2       13 UNK        -0.4996 
     25 CA        -51.4572  -29.3338   11.1153 C.3       12 UNK         0.0216 
     26 CB        -51.5872  -28.9658    9.6295 C.3       12 UNK        -0.1964 
     27 N         -50.3480  -28.5623   11.6939 N.am      12 UNK        -0.4276 
     28 C         -49.9750  -28.5433   12.9804 C.2       12 UNK         0.5020 
     29 O         -50.5090  -29.2320   13.8546 O.2       12 UNK        -0.5489 
     30 CA        -48.8532  -27.5556   13.3413 C.3       11 UNK         0.0294 
     31 CB        -49.1312  -26.1454   12.7773 C.3       11 UNK        -0.2019 
     32 N         -48.7606  -27.4439   14.7930 N.am      11 UNK        -0.4493 
     33 C         -47.7603  -27.8996   15.5560 C.2       11 UNK         0.4932 
     34 O         -46.7433  -28.4295   15.1066 O.2       11 UNK        -0.5029 
     35 CA        -47.8940  -27.7183   17.0819 C.3       10 UNK         0.0280 
     36 CB        -46.8924  -26.6652   17.5855 C.3       10 UNK        -0.1976 
     37 N         -49.2416  -27.3230   17.5001 N.am      10 UNK        -0.4242 
     38 C         -50.2895  -28.1517   17.6116 C.2       10 UNK         0.5072 
     39 O         -50.2129  -29.3740   17.4862 O.2       10 UNK        -0.5224 
     40 CA        -51.6577  -27.5078   17.9099 C.3       9 UNK         0.0343 
     41 CB        -52.0007  -27.6421   19.4025 C.3       9 UNK        -0.2003 
     42 N         -51.7553  -26.0958   17.5187 N.am      9 UNK        -0.4272 
     43 C         -51.7174  -25.6424   16.2582 C.2       9 UNK         0.4988 
     44 O         -51.5564  -26.3607   15.2701 O.2       9 UNK        -0.5108 
     45 CA        -51.7916  -24.1182   16.0832 C.3       8 UNK         0.0248 
     46 CB        -50.3784  -23.5407   15.8968 C.3       8 UNK        -0.2001 
     47 N         -52.6176  -23.7250   14.9418 N.am      8 UNK        -0.4140 
     48 C         -53.9301  -23.9440   14.8065 C.2       8 UNK         0.5028 
     49 O         -54.6162  -24.5136   15.6561 O.2       8 UNK        -0.5428 
     50 CA        -54.6145  -23.4360   13.5209 C.3       7 UNK         0.0264 
     51 CB        -55.1372  -21.9989   13.7133 C.3       7 UNK        -0.1988 
     52 N         -53.8359  -23.5530   12.2744 N.am      7 UNK        -0.4454 
     53 C         -52.6990  -22.9339   11.9244 C.2       7 UNK         0.5027 
     54 O         -52.0734  -22.1948   12.6870 O.2       7 UNK        -0.5083 
     55 CA        -52.1934  -23.2012   10.4874 C.3       6 UNK         0.0844 
     56 C56       -52.9665  -22.3387    9.4501 C.3       14 UNK        -0.0967 
     57 S57       -52.4322  -22.6280    7.7239 S.3       14 UNK        -0.2604 
     58 C58       -53.9132  -23.3554    6.9545 C.3       14 UNK         0.0134 
     59 N         -50.7312  -23.0853   10.3925 N.am      6 UNK        -0.4116 
     60 C         -49.9729  -21.9771   10.4414 C.2       5 UNK         0.5034 
     61 O         -50.4047  -20.8271   10.5321 O.2       5 UNK        -0.5045 
     62 CA        -48.4511  -22.1950   10.3658 C.3       5 UNK         0.0224 
     63 CB        -47.8521  -22.2985   11.7784 C.3       5 UNK        -0.1978 
     64 N         -48.0922  -23.3916    9.5991 N.am      5 UNK        -0.4737 
     65 C         -48.1472  -23.4803    8.2625 C.2       4 UNK         0.5027 
     66 O         -48.4338  -22.5314    7.5319 O.2       4 UNK        -0.5211 
     67 CA        -47.8690  -24.8641    7.6436 C.3       4 UNK         0.0297 
     68 CB        -47.2108  -24.7781    6.2510 C.3       4 UNK        -0.1993 
     69 N         -47.1282  -25.7759    8.5244 N.am      4 UNK        -0.4486 
     70 C         -45.8687  -25.6714    8.9706 C.2       3 UNK         0.4961 
     71 O         -45.1215  -24.7303    8.7043 O.2       3 UNK        -0.5105 
     72 CA        -45.3410  -26.8082    9.8723 C.3       3 UNK         0.0299 
     73 CB        -45.5595  -26.4725   11.3593 C.3       3 UNK        -0.1972 
     74 N         -45.8454  -28.1531    9.5444 N.am      3 UNK        -0.4305 
     75 C         -47.0995  -28.6215    9.6074 C.2       2 UNK         0.5006 
     76 O         -48.0667  -27.9703   10.0142 O.2       2 UNK        -0.5106 
     77 CA        -47.3301  -30.0376    9.0578 C.3       2 UNK         0.0296 
     78 CB        -47.7503  -30.9945   10.1848 C.3       2 UNK        -0.2002 
     79 N         -48.3597  -30.0285    8.0158 N.am      2 UNK        -0.4032 
     80 C         -48.2853  -29.3498    6.8589 C.2       1 UNK         0.5000 
     81 O         -47.2768  -28.7441    6.4915 O.2       1 UNK        -0.5238 
     82 H82       -52.1856  -32.2356    6.7705 H         1 UNK         0.0889 
     83 H83       -50.9411  -33.4765    6.9295 H         1 UNK         0.0889 
     84 H84       -51.7188  -33.2000    5.3689 H         1 UNK         0.0889 
     85 H85       -51.3333  -30.1716    6.6840 H         1 UNK         0.3028 
     86 H86       -49.1718  -29.4474    4.9346 H         1 UNK         0.0864 
     87 H87       -49.5153  -27.1378    6.0012 H         1 UNK         0.0720 
     88 H88       -50.7683  -27.8247    6.9972 H         1 UNK         0.0720 
     89 H89       -52.9711  -29.1127    5.7695 H         1 UNK         0.0814 
     90 H90       -53.7461  -28.1287    4.5605 H         1 UNK         0.0814 
     91 H91       -52.9652  -25.3437    5.3557 H         1 UNK         0.1469 
     92 H92       -55.0769  -24.6837    9.0167 H         1 UNK         0.1381 
     93 H93       -54.2462  -28.6850    7.7167 H         1 UNK         0.1206 
     94 H94       -56.4606  -27.5214    9.5036 H         1 UNK         0.0813 
     95 H95       -54.9780  -28.3199    9.9679 H         1 UNK         0.0813 
     96 H96       -56.2777  -27.1858   13.2373 H         1 UNK         0.0638 
     97 H97       -55.8309  -28.4875   12.1694 H         1 UNK         0.0638 
     98 H98       -53.9234  -26.7499   13.8118 H         1 UNK         0.0568 
     99 H99       -53.3719  -29.9711   15.8310 H         1 UNK         0.3450 
    100 H100      -52.3614  -29.2790   14.5806 H         1 UNK         0.3450 
    101 H101      -52.2322  -27.3916   12.5905 H         1 UNK         0.2987 
    102 H102      -51.1891  -30.3891   11.1925 H         1 UNK         0.0766 
    103 H103      -52.3381  -29.5853    9.1379 H         1 UNK         0.0798 
    104 H104      -50.6478  -29.1101    9.1026 H         1 UNK         0.0798 
    105 H105      -51.8846  -27.9241    9.4986 H         1 UNK         0.0798 
    106 H106      -49.7659  -28.0526   11.0355 H         1 UNK         0.3198 
    107 H107      -47.9216  -27.9383   12.9198 H         1 UNK         0.0843 
    108 H108      -50.1107  -25.7722   13.0787 H         1 UNK         0.0831 
    109 H109      -49.0963  -26.1296   11.6884 H         1 UNK         0.0831 
    110 H110      -48.3857  -25.4330   13.1297 H         1 UNK         0.0831 
    111 H111      -49.6126  -27.1270   15.2424 H         1 UNK         0.3133 
    112 H112      -47.6479  -28.6743   17.5488 H         1 UNK         0.0566 
    113 H113      -46.9343  -26.5629   18.6700 H         1 UNK         0.0814 
    114 H114      -47.0810  -25.6847   17.1462 H         1 UNK         0.0814 
    115 H115      -45.8696  -26.9448   17.3287 H         1 UNK         0.0814 
    116 H116      -49.3999  -26.3375   17.6484 H         1 UNK         0.3091 
    117 H117      -52.4060  -28.0599   17.3391 H         1 UNK         0.0702 
    118 H118      -51.3001  -27.0898   20.0301 H         1 UNK         0.0785 
    119 H119      -51.9677  -28.6860   19.7180 H         1 UNK         0.0785 
    120 H120      -53.0052  -27.2747   19.6138 H         1 UNK         0.0785 
    121 H121      -51.8791  -25.4308   18.2692 H         1 UNK         0.2998 
    122 H122      -52.2359  -23.6781   16.9782 H         1 UNK         0.0697 
    123 H123      -50.4026  -22.4545   15.8059 H         1 UNK         0.0825 
    124 H124      -49.8948  -23.9388   15.0035 H         1 UNK         0.0825 
    125 H125      -49.7390  -23.7784   16.7479 H         1 UNK         0.0825 
    126 H126      -52.1619  -23.2104   14.1920 H         1 UNK         0.3029 
    127 H127      -55.4865  -24.0762   13.3762 H         1 UNK         0.0897 
    128 H128      -54.3266  -21.2868   13.8705 H         1 UNK         0.0792 
    129 H129      -55.7943  -21.9369   14.5818 H         1 UNK         0.0792 
    130 H130      -55.7124  -21.6672   12.8488 H         1 UNK         0.0792 
    131 H131      -54.2384  -24.1999   11.6072 H         1 UNK         0.3086 
    132 H132      -52.4087  -24.2488   10.2685 H         1 UNK         0.0583 
    133 H133      -54.0392  -22.5200    9.5301 H         1 UNK         0.1020 
    134 H134      -52.8383  -21.2763    9.6644 H         1 UNK         0.1020 
    135 H135      -54.8135  -22.8630    7.3248 H         1 UNK         0.0694 
    136 H136      -53.8807  -23.1483    5.8837 H         1 UNK         0.0694 
    137 H137      -50.2417  -23.9617   10.3056 H         1 UNK         0.2989 
    138 H138      -48.0165  -21.3230    9.8712 H         1 UNK         0.1055 
    139 H139      -48.2683  -23.1375   12.3362 H         1 UNK         0.0806 
    140 H140      -48.0591  -21.3948   12.3535 H         1 UNK         0.0806 
    141 H141      -46.7691  -22.4186   11.7444 H         1 UNK         0.0806 
    142 H142      -47.8033  -24.2076   10.1176 H         1 UNK         0.3061 
    143 H143      -48.8505  -25.3204    7.5091 H         1 UNK         0.0734 
    144 H144      -47.8445  -24.2322    5.5511 H         1 UNK         0.0832 
    145 H145      -46.2503  -24.2637    6.2881 H         1 UNK         0.0832 
    146 H146      -47.0458  -25.7702    5.8299 H         1 UNK         0.0832 
    147 H147      -47.6490  -26.5798    8.8682 H         1 UNK         0.3156 
    148 H148      -44.2636  -26.8567    9.7057 H         1 UNK         0.0589 
    149 H149      -46.6142  -26.3490   11.5943 H         1 UNK         0.0808 
    150 H150      -45.1600  -27.2517   12.0085 H         1 UNK         0.0808 
    151 H151      -45.0598  -25.5400   11.6248 H         1 UNK         0.0808 
    152 H152      -45.1494  -28.7686    9.1457 H         1 UNK         0.3098 
    153 H153      -46.4050  -30.4095    8.6128 H         1 UNK         0.0720 
    154 H154      -48.6894  -30.6904   10.6474 H         1 UNK         0.0791 
    155 H155      -46.9959  -31.0249   10.9721 H         1 UNK         0.0791 
    156 H156      -47.8730  -32.0130    9.8158 H         1 UNK         0.0791 
    157 H157      -49.2181  -30.5135    8.2253 H         1 UNK         0.3028 
@<TRIPOS>BOND
     1    1    2 1    
     2    1   82 1    
     3    1   83 1    
     4    1   84 1    
     5    2    3 2    
     6    2    4 am   BACKBONE|DICT|INTERRES
     7    4    5 1    
     8    4   85 1    
     9    5    6 1    
    10    5   80 1    
    11    5   86 1    
    12    6    7 1    
    13    6   87 1    
    14    6   88 1    
    15    7    8 1    
    16    8    9 1    
    17    8   89 1    
    18    8   90 1    
    19    9   10 ar   
    20    9   14 ar   
    21   10   11 ar   
    22   10   91 1    
    23   11   12 ar   
    24   11   58 1    
    25   12   13 ar   
    26   12   92 1    
    27   13   14 ar   
    28   13   15 1    
    29   14   93 1    
    30   15   16 1    
    31   15   94 1    
    32   15   95 1    
    33   16   17 1    
    34   17   18 1    
    35   17   96 1    
    36   17   97 1    
    37   18   19 1    
    38   18   22 1    
    39   18   98 1    
    40   19   20 am   BACKBONE|DICT|INTERRES
    41   19   21 2    
    42   20   99 1    
    43   20  100 1    
    44   22   23 am   BACKBONE|DICT|INTERRES
    45   22  101 1    
    46   23   24 2    
    47   23   25 1    
    48   25   26 1    
    49   25   27 1    
    50   25  102 1    
    51   26  103 1    
    52   26  104 1    
    53   26  105 1    
    54   27   28 am   BACKBONE|DICT|INTERRES
    55   27  106 1    
    56   28   29 2    
    57   28   30 1    
    58   30   31 1    
    59   30   32 1    
    60   30  107 1    
    61   31  108 1    
    62   31  109 1    
    63   31  110 1    
    64   32   33 am   BACKBONE|DICT|INTERRES
    65   32  111 1    
    66   33   34 2    
    67   33   35 1    
    68   35   36 1    
    69   35   37 1    
    70   35  112 1    
    71   36  113 1    
    72   36  114 1    
    73   36  115 1    
    74   37   38 am   BACKBONE|DICT|INTERRES
    75   37  116 1    
    76   38   39 2    
    77   38   40 1    
    78   40   41 1    
    79   40   42 1    
    80   40  117 1    
    81   41  118 1    
    82   41  119 1    
    83   41  120 1    
    84   42   43 am   BACKBONE|DICT|INTERRES
    85   42  121 1    
    86   43   44 2    
    87   43   45 1    
    88   45   46 1    
    89   45   47 1    
    90   45  122 1    
    91   46  123 1    
    92   46  124 1    
    93   46  125 1    
    94   47   48 am   BACKBONE|DICT|INTERRES
    95   47  126 1    
    96   48   49 2    
    97   48   50 1    
    98   50   51 1    
    99   50   52 1    
   100   50  127 1    
   101   51  128 1    
   102   51  129 1    
   103   51  130 1    
   104   52   53 am   BACKBONE|DICT|INTERRES
   105   52  131 1    
   106   53   54 2    
   107   53   55 1    
   108   55   56 1    
   109   55   59 1    
   110   55  132 1    
   111   56   57 1    
   112   56  133 1    
   113   56  134 1    
   114   57   58 1    
   115   58  135 1    
   116   58  136 1    
   117   59   60 am   BACKBONE|DICT|INTERRES
   118   59  137 1    
   119   60   61 2    
   120   60   62 1    
   121   62   63 1    
   122   62   64 1    
   123   62  138 1    
   124   63  139 1    
   125   63  140 1    
   126   63  141 1    
   127   64   65 am   BACKBONE|DICT|INTERRES
   128   64  142 1    
   129   65   66 2    
   130   65   67 1    
   131   67   68 1    
   132   67   69 1    
   133   67  143 1    
   134   68  144 1    
   135   68  145 1    
   136   68  146 1    
   137   69   70 am   BACKBONE|DICT|INTERRES
   138   69  147 1    
   139   70   71 2    
   140   70   72 1    
   141   72   73 1    
   142   72   74 1    
   143   72  148 1    
   144   73  149 1    
   145   73  150 1    
   146   73  151 1    
   147   74   75 am   BACKBONE|DICT|INTERRES
   148   74  152 1    
   149   75   76 2    
   150   75   77 1    
   151   77   78 1    
   152   77   79 1    
   153   77  153 1    
   154   78  154 1    
   155   78  155 1    
   156   78  156 1    
   157   79   80 am   BACKBONE|DICT|INTERRES
   158   79  157 1    
   159   80   81 2    
@<TRIPOS>SUBSTRUCTURE
     1 UNK         1 GROUP             0       ****    0 ROOT    
