@<TRIPOS>MOLECULE
3R207
157   159    1
SMALL
USER_CHARGES


@<TRIPOS>ATOM
      1 CA        -51.9985  -25.5544    3.3855 C.3       0 UNK        -0.1975 
      2 C         -51.0221  -26.0545    4.4391 C.2       0 UNK         0.4852 
      3 O         -49.8326  -26.1902    4.1506 O.2       0 UNK        -0.5216 
      4 N         -51.5132  -26.3034    5.6634 N.am      1 UNK        -0.4461 
      5 CA        -50.7792  -26.8678    6.8116 C.3       1 UNK         0.0864 
      6 C6        -50.4938  -28.3882    6.6510 C.3       14 UNK        -0.0898 
      7 S7        -52.0388  -29.3522    6.4793 S.3       14 UNK        -0.2598 
      8 C8        -52.2916  -30.0072    8.1647 C.3       14 UNK         0.0286 
      9 C9        -52.2631  -28.9089    9.2180 C.ar      14 UNK        -0.0844 
     10 C10       -51.1619  -28.7882   10.0705 C.ar      14 UNK        -0.0881 
     11 C11       -51.0955  -27.7499   11.0025 C.ar      14 UNK        -0.0643 
     12 C12       -52.1398  -26.8254   11.0758 C.ar      14 UNK        -0.0930 
     13 C13       -53.2533  -26.9426   10.2383 C.ar      14 UNK        -0.0827 
     14 C14       -53.3173  -27.9954    9.3204 C.ar      14 UNK        -0.1249 
     15 C15       -54.3576  -25.8987   10.2960 C.3       14 UNK         0.0141 
     16 S16       -55.2658  -25.9431   11.8696 S.3       14 UNK        -0.2313 
     17 C17       -56.4591  -27.2919   11.5950 C.3       14 UNK        -0.0915 
     18 CA        -56.6179  -28.1758   12.8671 C.3       13 UNK         0.0968 
     19 C         -57.9862  -28.9259   12.9484 C.2       13 UNK         0.5732 
     20 N         -58.0817  -30.0621   13.6318 N.am      13 UNK        -0.7310 
     21 O         -58.9926  -28.4594   12.4189 O.2       13 UNK        -0.5035 
     22 N         -55.4451  -29.0276   13.1270 N.am      13 UNK        -0.4233 
     23 C         -55.0895  -30.1129   12.4198 C.2       13 UNK         0.4989 
     24 O         -55.6004  -30.4324   11.3456 O.2       13 UNK        -0.4996 
     25 CA        -54.0299  -31.0517   13.0356 C.3       12 UNK         0.0216 
     26 CB        -52.6695  -30.8631   12.3509 C.3       12 UNK        -0.1964 
     27 N         -53.8554  -30.9018   14.4828 N.am      12 UNK        -0.4276 
     28 C         -54.8033  -31.0739   15.4154 C.2       12 UNK         0.5020 
     29 O         -55.9390  -31.4830   15.1699 O.2       12 UNK        -0.5489 
     30 CA        -54.4425  -30.6600   16.8552 C.3       11 UNK         0.0294 
     31 CB        -54.0888  -31.8976   17.6955 C.3       11 UNK        -0.2019 
     32 N         -53.3491  -29.6806   16.9482 N.am      11 UNK        -0.4493 
     33 C         -53.3561  -28.4518   16.4103 C.2       11 UNK         0.4932 
     34 O         -54.2835  -28.0047   15.7310 O.2       11 UNK        -0.5029 
     35 CA        -52.0683  -27.6311   16.5974 C.3       10 UNK         0.0280 
     36 CB        -51.0816  -27.9487   15.4617 C.3       10 UNK        -0.1976 
     37 N         -52.3143  -26.1875   16.6229 N.am      10 UNK        -0.4242 
     38 C         -53.0265  -25.5447   17.5631 C.2       10 UNK         0.5072 
     39 O         -53.5058  -26.1029   18.5520 O.2       10 UNK        -0.5224 
     40 CA        -53.2239  -24.0215   17.4105 C.3       9 UNK         0.0343 
     41 CB        -52.3779  -23.2624   18.4469 C.3       9 UNK        -0.2003 
     42 N         -52.8922  -23.5187   16.0772 N.am      9 UNK        -0.4272 
     43 C         -53.6239  -23.7131   14.9715 C.2       9 UNK         0.4988 
     44 O         -54.7454  -24.2193   14.9841 O.2       9 UNK        -0.5108 
     45 CA        -53.0031  -23.2811   13.6247 C.3       8 UNK         0.0248 
     46 CB        -53.7932  -22.1137   13.0103 C.3       8 UNK        -0.2001 
     47 N         -51.5793  -22.9176   13.6879 N.am      8 UNK        -0.4140 
     48 C         -50.5802  -23.7584   13.9892 C.2       8 UNK         0.5028 
     49 O         -50.7510  -24.9433   14.2818 O.2       8 UNK        -0.5428 
     50 CA        -49.1762  -23.1445   14.0836 C.3       7 UNK         0.0264 
     51 CB        -48.9210  -22.6380   15.5135 C.3       7 UNK        -0.1988 
     52 N         -48.1461  -24.1259   13.7401 N.am      7 UNK        -0.4454 
     53 C         -47.7432  -24.3899   12.4911 C.2       7 UNK         0.5027 
     54 O         -48.1813  -23.8053   11.4955 O.2       7 UNK        -0.5083 
     55 CA        -46.6657  -25.4866   12.3391 C.3       6 UNK         0.0844 
     56 C56       -47.2452  -26.9207   12.4271 C.3       14 UNK        -0.0967 
     57 S57       -48.3520  -27.3631   11.0429 S.3       14 UNK        -0.2604 
     58 C58       -49.9066  -27.6359   11.9419 C.3       14 UNK         0.0134 
     59 N         -45.9094  -25.2982   11.1021 N.am      6 UNK        -0.4116 
     60 C         -44.8857  -24.4520   10.9413 C.2       5 UNK         0.5034 
     61 O         -44.4226  -23.7673   11.8556 O.2       5 UNK        -0.5045 
     62 CA        -44.2841  -24.3266    9.5262 C.3       5 UNK         0.0224 
     63 CB        -42.7480  -24.1743    9.5509 C.3       5 UNK        -0.1978 
     64 N         -44.6963  -25.3805    8.5859 N.am      5 UNK        -0.4737 
     65 C         -44.4050  -26.6916    8.6259 C.2       4 UNK         0.5027 
     66 O         -43.7218  -27.2094    9.5092 O.2       4 UNK        -0.5211 
     67 CA        -44.9829  -27.5901    7.5123 C.3       4 UNK         0.0297 
     68 CB        -45.8771  -28.6916    8.1072 C.3       4 UNK        -0.1993 
     69 N         -45.7528  -26.8400    6.5155 N.am      4 UNK        -0.4486 
     70 C         -45.2218  -26.2186    5.4507 C.2       3 UNK         0.4961 
     71 O         -44.0327  -26.2963    5.1409 O.2       3 UNK        -0.5105 
     72 CA        -46.1561  -25.3327    4.6004 C.3       3 UNK         0.0299 
     73 CB        -46.6334  -26.0999    3.3578 C.3       3 UNK        -0.1972 
     74 N         -47.3187  -24.8245    5.3369 N.am      3 UNK        -0.4305 
     75 C         -47.2473  -24.0137    6.4060 C.2       2 UNK         0.5006 
     76 O         -46.1934  -23.5194    6.8060 O.2       2 UNK        -0.5106 
     77 CA        -48.5341  -23.7454    7.2119 C.3       2 UNK         0.0296 
     78 CB        -49.0722  -22.3383    6.9067 C.3       2 UNK        -0.2002 
     79 N         -49.6089  -24.7221    7.0129 N.am      2 UNK        -0.4032 
     80 C         -49.5201  -26.0509    7.1839 C.2       1 UNK         0.5000 
     81 O         -48.4896  -26.6176    7.5526 O.2       1 UNK        -0.5238 
     82 H82       -52.0178  -26.2409    2.5395 H         1 UNK         0.0889 
     83 H83       -51.6892  -24.5747    3.0226 H         1 UNK         0.0889 
     84 H84       -53.0124  -25.4685    3.7756 H         1 UNK         0.0889 
     85 H85       -52.5009  -26.1627    5.8244 H         1 UNK         0.3028 
     86 H86       -51.4372  -26.7443    7.6711 H         1 UNK         0.0864 
     87 H87       -49.8737  -28.5670    5.7712 H         1 UNK         0.0720 
     88 H88       -49.9283  -28.7781    7.4988 H         1 UNK         0.0720 
     89 H89       -51.5306  -30.7614    8.3709 H         1 UNK         0.0814 
     90 H90       -53.2519  -30.5230    8.2069 H         1 UNK         0.0814 
     91 H91       -50.3446  -29.4931   10.0033 H         1 UNK         0.1469 
     92 H92       -52.0894  -26.0144   11.7895 H         1 UNK         0.1381 
     93 H93       -54.1681  -28.0864    8.6592 H         1 UNK         0.1206 
     94 H94       -55.0564  -26.0132    9.4659 H         1 UNK         0.0813 
     95 H95       -53.9107  -24.9101   10.1823 H         1 UNK         0.0813 
     96 H96       -57.3995  -26.8120   11.3207 H         1 UNK         0.0638 
     97 H97       -56.1637  -27.8926   10.7341 H         1 UNK         0.0638 
     98 H98       -56.6627  -27.4995   13.7215 H         1 UNK         0.0568 
     99 H99       -57.2769  -30.4690   14.0973 H         1 UNK         0.3450 
    100 H100      -58.9744  -30.5255   13.6848 H         1 UNK         0.3450 
    101 H101      -54.9627  -28.8287   13.9970 H         1 UNK         0.2987 
    102 H102      -54.3662  -32.0744   12.8531 H         1 UNK         0.0766 
    103 H103      -51.9394  -31.5930   12.7008 H         1 UNK         0.0798 
    104 H104      -52.2675  -29.8669   12.5356 H         1 UNK         0.0798 
    105 H105      -52.7577  -30.9879   11.2710 H         1 UNK         0.0798 
    106 H106      -52.9571  -30.5644   14.7943 H         1 UNK         0.3198 
    107 H107      -55.3326  -30.1961   17.2855 H         1 UNK         0.0843 
    108 H108      -53.1871  -32.3909   17.3302 H         1 UNK         0.0831 
    109 H109      -54.8954  -32.6318   17.6665 H         1 UNK         0.0831 
    110 H110      -53.9307  -31.6367   18.7421 H         1 UNK         0.0831 
    111 H111      -52.5374  -29.9668   17.4781 H         1 UNK         0.3133 
    112 H112      -51.6096  -27.9066   17.5492 H         1 UNK         0.0566 
    113 H113      -50.1518  -27.3905   15.5735 H         1 UNK         0.0814 
    114 H114      -50.8218  -29.0077   15.4440 H         1 UNK         0.0814 
    115 H115      -51.5052  -27.6983   14.4879 H         1 UNK         0.0814 
    116 H116      -51.9510  -25.6599   15.8358 H         1 UNK         0.3091 
    117 H117      -54.2773  -23.8091   17.6053 H         1 UNK         0.0702 
    118 H118      -52.6228  -23.5820   19.4609 H         1 UNK         0.0785 
    119 H119      -51.3105  -23.4335   18.3004 H         1 UNK         0.0785 
    120 H120      -52.5573  -22.1882   18.3966 H         1 UNK         0.0785 
    121 H121      -51.9888  -23.0828   15.9721 H         1 UNK         0.2998 
    122 H122      -53.0894  -24.1370   12.9536 H         1 UNK         0.0697 
    123 H123      -53.7381  -21.2178   13.6299 H         1 UNK         0.0825 
    124 H124      -54.8480  -22.3712   12.9022 H         1 UNK         0.0825 
    125 H125      -53.4229  -21.8618   12.0164 H         1 UNK         0.0825 
    126 H126      -51.3568  -21.9518   13.4915 H         1 UNK         0.3029 
    127 H127      -49.1106  -22.2977   13.3962 H         1 UNK         0.0897 
    128 H128      -47.9287  -22.1956   15.6054 H         1 UNK         0.0792 
    129 H129      -48.9986  -23.4410   16.2483 H         1 UNK         0.0792 
    130 H130      -49.6414  -21.8684   15.7939 H         1 UNK         0.0792 
    131 H131      -47.7828  -24.6788   14.5029 H         1 UNK         0.3086 
    132 H132      -45.9720  -25.3715   13.1750 H         1 UNK         0.0583 
    133 H133      -46.4239  -27.6392   12.4321 H         1 UNK         0.1020 
    134 H134      -47.7560  -27.0672   13.3807 H         1 UNK         0.1020 
    135 H135      -49.8261  -28.5458   12.5381 H         1 UNK         0.0694 
    136 H136      -50.0562  -26.8142   12.6416 H         1 UNK         0.0694 
    137 H137      -46.2610  -25.7917   10.2949 H         1 UNK         0.2989 
    138 H138      -44.6931  -23.3986    9.1234 H         1 UNK         0.1055 
    139 H139      -42.4505  -23.2890   10.1143 H         1 UNK         0.0806 
    140 H140      -42.3441  -24.0647    8.5444 H         1 UNK         0.0806 
    141 H141      -42.2617  -25.0314   10.0172 H         1 UNK         0.0806 
    142 H142      -45.2602  -25.0464    7.8111 H         1 UNK         0.3061 
    143 H143      -44.1376  -28.0757    7.0201 H         1 UNK         0.0734 
    144 H144      -46.2733  -29.3453    7.3302 H         1 UNK         0.0832 
    145 H145      -45.3178  -29.3183    8.8029 H         1 UNK         0.0832 
    146 H146      -46.7217  -28.2743    8.6553 H         1 UNK         0.0832 
    147 H147      -46.7440  -26.7225    6.7176 H         1 UNK         0.3156 
    148 H148      -45.5755  -24.4703    4.2664 H         1 UNK         0.0589 
    149 H149      -45.7872  -26.4430    2.7609 H         1 UNK         0.0808 
    150 H150      -47.2195  -26.9791    3.6289 H         1 UNK         0.0808 
    151 H151      -47.2505  -25.4720    2.7149 H         1 UNK         0.0808 
    152 H152      -48.2210  -25.2037    5.0659 H         1 UNK         0.3098 
    153 H153      -48.2598  -23.7857    8.2684 H         1 UNK         0.0720 
    154 H154      -48.3048  -21.5812    7.0751 H         1 UNK         0.0791 
    155 H155      -49.9162  -22.0870    7.5496 H         1 UNK         0.0791 
    156 H156      -49.3981  -22.2472    5.8697 H         1 UNK         0.0791 
    157 H157      -50.4890  -24.3552    6.6812 H         1 UNK         0.3028 
@<TRIPOS>BOND
     1    1    2 1    
     2    1   82 1    
     3    1   83 1    
     4    1   84 1    
     5    2    3 2    
     6    2    4 am   BACKBONE|DICT|INTERRES
     7    4    5 1    
     8    4   85 1    
     9    5    6 1    
    10    5   80 1    
    11    5   86 1    
    12    6    7 1    
    13    6   87 1    
    14    6   88 1    
    15    7    8 1    
    16    8    9 1    
    17    8   89 1    
    18    8   90 1    
    19    9   10 ar   
    20    9   14 ar   
    21   10   11 ar   
    22   10   91 1    
    23   11   12 ar   
    24   11   58 1    
    25   12   13 ar   
    26   12   92 1    
    27   13   14 ar   
    28   13   15 1    
    29   14   93 1    
    30   15   16 1    
    31   15   94 1    
    32   15   95 1    
    33   16   17 1    
    34   17   18 1    
    35   17   96 1    
    36   17   97 1    
    37   18   19 1    
    38   18   22 1    
    39   18   98 1    
    40   19   20 am   BACKBONE|DICT|INTERRES
    41   19   21 2    
    42   20   99 1    
    43   20  100 1    
    44   22   23 am   BACKBONE|DICT|INTERRES
    45   22  101 1    
    46   23   24 2    
    47   23   25 1    
    48   25   26 1    
    49   25   27 1    
    50   25  102 1    
    51   26  103 1    
    52   26  104 1    
    53   26  105 1    
    54   27   28 am   BACKBONE|DICT|INTERRES
    55   27  106 1    
    56   28   29 2    
    57   28   30 1    
    58   30   31 1    
    59   30   32 1    
    60   30  107 1    
    61   31  108 1    
    62   31  109 1    
    63   31  110 1    
    64   32   33 am   BACKBONE|DICT|INTERRES
    65   32  111 1    
    66   33   34 2    
    67   33   35 1    
    68   35   36 1    
    69   35   37 1    
    70   35  112 1    
    71   36  113 1    
    72   36  114 1    
    73   36  115 1    
    74   37   38 am   BACKBONE|DICT|INTERRES
    75   37  116 1    
    76   38   39 2    
    77   38   40 1    
    78   40   41 1    
    79   40   42 1    
    80   40  117 1    
    81   41  118 1    
    82   41  119 1    
    83   41  120 1    
    84   42   43 am   BACKBONE|DICT|INTERRES
    85   42  121 1    
    86   43   44 2    
    87   43   45 1    
    88   45   46 1    
    89   45   47 1    
    90   45  122 1    
    91   46  123 1    
    92   46  124 1    
    93   46  125 1    
    94   47   48 am   BACKBONE|DICT|INTERRES
    95   47  126 1    
    96   48   49 2    
    97   48   50 1    
    98   50   51 1    
    99   50   52 1    
   100   50  127 1    
   101   51  128 1    
   102   51  129 1    
   103   51  130 1    
   104   52   53 am   BACKBONE|DICT|INTERRES
   105   52  131 1    
   106   53   54 2    
   107   53   55 1    
   108   55   56 1    
   109   55   59 1    
   110   55  132 1    
   111   56   57 1    
   112   56  133 1    
   113   56  134 1    
   114   57   58 1    
   115   58  135 1    
   116   58  136 1    
   117   59   60 am   BACKBONE|DICT|INTERRES
   118   59  137 1    
   119   60   61 2    
   120   60   62 1    
   121   62   63 1    
   122   62   64 1    
   123   62  138 1    
   124   63  139 1    
   125   63  140 1    
   126   63  141 1    
   127   64   65 am   BACKBONE|DICT|INTERRES
   128   64  142 1    
   129   65   66 2    
   130   65   67 1    
   131   67   68 1    
   132   67   69 1    
   133   67  143 1    
   134   68  144 1    
   135   68  145 1    
   136   68  146 1    
   137   69   70 am   BACKBONE|DICT|INTERRES
   138   69  147 1    
   139   70   71 2    
   140   70   72 1    
   141   72   73 1    
   142   72   74 1    
   143   72  148 1    
   144   73  149 1    
   145   73  150 1    
   146   73  151 1    
   147   74   75 am   BACKBONE|DICT|INTERRES
   148   74  152 1    
   149   75   76 2    
   150   75   77 1    
   151   77   78 1    
   152   77   79 1    
   153   77  153 1    
   154   78  154 1    
   155   78  155 1    
   156   78  156 1    
   157   79   80 am   BACKBONE|DICT|INTERRES
   158   79  157 1    
   159   80   81 2    
@<TRIPOS>SUBSTRUCTURE
     1 UNK         1 GROUP             0       ****    0 ROOT    
