@<TRIPOS>MOLECULE
3R207
157   159    1
SMALL
USER_CHARGES


@<TRIPOS>ATOM
      1 CA        -50.3987  -32.0191    7.2697 C.3       0 UNK        -0.1975 
      2 C         -49.9447  -31.0512    6.1878 C.2       0 UNK         0.4852 
      3 O         -49.0636  -31.3844    5.3949 O.2       0 UNK        -0.5216 
      4 N         -50.5435  -29.8541    6.1500 N.am      1 UNK        -0.4461 
      5 CA        -50.2879  -28.8039    5.1543 C.3       1 UNK         0.0864 
      6 C6        -51.3642  -27.6867    5.1988 C.3       14 UNK        -0.0898 
      7 S7        -53.0779  -28.2942    5.0461 S.3       14 UNK        -0.2598 
      8 C8        -53.8094  -27.7482    6.6234 C.3       14 UNK         0.0286 
      9 C9        -53.5390  -28.7418    7.7436 C.ar      14 UNK        -0.0844 
     10 C10       -52.3696  -28.6586    8.5063 C.ar      14 UNK        -0.0881 
     11 C11       -52.1122  -29.5874    9.5256 C.ar      14 UNK        -0.0643 
     12 C12       -53.0697  -30.5686    9.7988 C.ar      14 UNK        -0.0930 
     13 C13       -54.2583  -30.6436    9.0666 C.ar      14 UNK        -0.0827 
     14 C14       -54.4733  -29.7422    8.0218 C.ar      14 UNK        -0.1249 
     15 C15       -55.3058  -31.6983    9.4066 C.3       14 UNK         0.0141 
     16 S16       -55.8877  -31.5755   11.1343 S.3       14 UNK        -0.2313 
     17 C17       -57.2989  -30.4083   11.0884 C.3       14 UNK        -0.0915 
     18 CA        -57.0946  -29.0824   10.2966 C.3       13 UNK         0.0968 
     19 C         -58.3644  -28.1771   10.3010 C.2       13 UNK         0.5732 
     20 N         -58.2354  -26.8562   10.2631 N.am      13 UNK        -0.7310 
     21 O         -59.4878  -28.6757   10.3011 O.2       13 UNK        -0.5035 
     22 N         -55.8360  -28.3934   10.6289 N.am      13 UNK        -0.4233 
     23 C         -55.4977  -27.8492   11.8029 C.2       13 UNK         0.4989 
     24 O         -56.2408  -27.7736   12.7842 O.2       13 UNK        -0.4996 
     25 CA        -54.0858  -27.2422   11.8580 C.3       12 UNK         0.0216 
     26 CB        -54.1132  -25.7532   11.4740 C.3       12 UNK        -0.1964 
     27 N         -53.4552  -27.3887   13.1698 N.am      12 UNK        -0.4276 
     28 C         -53.0984  -28.5541   13.7280 C.2       12 UNK         0.5020 
     29 O         -53.2475  -29.6462   13.1801 O.2       12 UNK        -0.5489 
     30 CA        -52.4327  -28.5050   15.1142 C.3       11 UNK         0.0294 
     31 CB        -51.0909  -29.2605   15.1003 C.3       11 UNK        -0.2019 
     32 N         -52.1772  -27.1347   15.5598 N.am      11 UNK        -0.4493 
     33 C         -52.7390  -26.5288   16.6124 C.2       11 UNK         0.4932 
     34 O         -53.6283  -27.0293   17.3028 O.2       11 UNK        -0.5029 
     35 CA        -52.1778  -25.1316   16.9504 C.3       10 UNK         0.0280 
     36 CB        -52.6397  -24.6027   18.3245 C.3       10 UNK        -0.1976 
     37 N         -50.7142  -25.0873   16.8287 N.am      10 UNK        -0.4242 
     38 C         -49.8186  -25.8337   17.4974 C.2       10 UNK         0.5072 
     39 O         -50.1072  -26.5829   18.4317 O.2       10 UNK        -0.5224 
     40 CA        -48.3525  -25.7806   17.0272 C.3       9 UNK         0.0343 
     41 CB        -47.9832  -27.0926   16.3143 C.3       9 UNK        -0.2003 
     42 N         -48.0591  -24.6609   16.1303 N.am      9 UNK        -0.4272 
     43 C         -47.9182  -23.3875   16.5211 C.2       9 UNK         0.4988 
     44 O         -47.9658  -23.0213   17.6960 O.2       9 UNK        -0.5108 
     45 CA        -47.7174  -22.3407   15.4115 C.3       8 UNK         0.0248 
     46 CB        -46.2390  -22.2711   14.9978 C.3       8 UNK        -0.2001 
     47 N         -48.5574  -22.5706   14.2292 N.am      8 UNK        -0.4140 
     48 C         -49.9001  -22.5647   14.2398 C.2       8 UNK         0.5028 
     49 O         -50.5767  -22.3705   15.2495 O.2       8 UNK        -0.5428 
     50 CA        -50.6177  -22.8606   12.9138 C.3       7 UNK         0.0264 
     51 CB        -50.5715  -21.6392   11.9822 C.3       7 UNK        -0.1988 
     52 N         -50.0757  -24.0342   12.2282 N.am      7 UNK        -0.4454 
     53 C         -50.1363  -25.2866   12.7051 C.2       7 UNK         0.5027 
     54 O         -50.7123  -25.5933   13.7498 O.2       7 UNK        -0.5083 
     55 CA        -49.4016  -26.3806   11.9058 C.3       6 UNK         0.0844 
     56 C56       -50.2549  -26.8511   10.7048 C.3       14 UNK        -0.0967 
     57 S57       -49.5726  -28.3481    9.9163 S.3       14 UNK        -0.2604 
     58 C58       -50.8293  -29.5933   10.3622 C.3       14 UNK         0.0134 
     59 N         -48.0602  -25.9506   11.5030 N.am      6 UNK        -0.4116 
     60 C         -47.0832  -25.5694   12.3379 C.2       5 UNK         0.5034 
     61 O         -47.1787  -25.5765   13.5643 O.2       5 UNK        -0.5045 
     62 CA        -45.7987  -25.0348   11.6920 C.3       5 UNK         0.0224 
     63 CB        -44.8949  -26.1873   11.2254 C.3       5 UNK        -0.1978 
     64 N         -46.0915  -24.1409   10.5703 N.am      5 UNK        -0.4737 
     65 C         -46.6099  -22.9124   10.7013 C.2       4 UNK         0.5027 
     66 O         -46.8703  -22.3916   11.7857 O.2       4 UNK        -0.5211 
     67 CA        -46.9230  -22.1521    9.4017 C.3       4 UNK         0.0297 
     68 CB        -45.6499  -21.5089    8.8294 C.3       4 UNK        -0.1993 
     69 N         -47.5542  -22.9939    8.3809 N.am      4 UNK        -0.4486 
     70 C         -48.7666  -23.5480    8.5130 C.2       3 UNK         0.4961 
     71 O         -49.4768  -23.4180    9.5089 O.2       3 UNK        -0.5105 
     72 CA        -49.2660  -24.4273    7.3561 C.3       3 UNK         0.0299 
     73 CB        -49.7732  -23.5602    6.1931 C.3       3 UNK        -0.1972 
     74 N         -48.3239  -25.4307    6.8451 N.am      3 UNK        -0.4305 
     75 C         -47.5607  -26.2665    7.5662 C.2       2 UNK         0.5006 
     76 O         -47.3280  -26.1317    8.7666 O.2       2 UNK        -0.5106 
     77 CA        -47.0562  -27.5180    6.8276 C.3       2 UNK         0.0296 
     78 CB        -46.1337  -28.3909    7.6993 C.3       2 UNK        -0.2002 
     79 N         -48.2223  -28.3081    6.4255 N.am      2 UNK        -0.4032 
     80 C         -48.8940  -28.1477    5.2765 C.2       1 UNK         0.5000 
     81 O         -48.4873  -27.4333    4.3578 O.2       1 UNK        -0.5238 
     82 H82       -49.6859  -32.0242    8.0938 H         1 UNK         0.0889 
     83 H83       -50.4655  -33.0301    6.8688 H         1 UNK         0.0889 
     84 H84       -51.3791  -31.7517    7.6629 H         1 UNK         0.0889 
     85 H85       -51.2902  -29.6572    6.8037 H         1 UNK         0.3028 
     86 H86       -50.3284  -29.2734    4.1690 H         1 UNK         0.0864 
     87 H87       -51.2647  -27.0948    6.1100 H         1 UNK         0.0720 
     88 H88       -51.2078  -26.9842    4.3775 H         1 UNK         0.0720 
     89 H89       -54.8857  -27.6372    6.4825 H         1 UNK         0.0814 
     90 H90       -53.4437  -26.7557    6.8911 H         1 UNK         0.0814 
     91 H91       -51.6617  -27.8731    8.2883 H         1 UNK         0.1469 
     92 H92       -52.8967  -31.2730   10.6017 H         1 UNK         0.1381 
     93 H93       -55.3781  -29.8070    7.4325 H         1 UNK         0.1206 
     94 H94       -56.1591  -31.6496    8.7287 H         1 UNK         0.0813 
     95 H95       -54.8595  -32.6829    9.2621 H         1 UNK         0.0813 
     96 H96       -58.1494  -30.9571   10.6805 H         1 UNK         0.0638 
     97 H97       -57.5614  -30.1817   12.1230 H         1 UNK         0.0638 
     98 H98       -56.9947  -29.3581    9.2482 H         1 UNK         0.0568 
     99 H99       -59.0625  -26.2807   10.2541 H         1 UNK         0.3450 
    100 H100      -57.3230  -26.4312   10.2565 H         1 UNK         0.3450 
    101 H101      -55.1409  -28.4192    9.8958 H         1 UNK         0.2987 
    102 H102      -53.4641  -27.7739   11.1381 H         1 UNK         0.0766 
    103 H103      -53.1128  -25.3202   11.4727 H         1 UNK         0.0798 
    104 H104      -54.7284  -25.1718   12.1622 H         1 UNK         0.0798 
    105 H105      -54.5238  -25.6147   10.4730 H         1 UNK         0.0798 
    106 H106      -53.3168  -26.5472   13.7090 H         1 UNK         0.3198 
    107 H107      -53.1066  -29.0111   15.8085 H         1 UNK         0.0843 
    108 H108      -50.3954  -28.8316   14.3779 H         1 UNK         0.0831 
    109 H109      -51.2322  -30.3090   14.8346 H         1 UNK         0.0831 
    110 H110      -50.6136  -29.2377   16.0802 H         1 UNK         0.0831 
    111 H111      -51.4960  -26.6068   15.0130 H         1 UNK         0.3133 
    112 H112      -52.5645  -24.4533   16.1884 H         1 UNK         0.0566 
    113 H113      -52.2310  -23.6122   18.5242 H         1 UNK         0.0814 
    114 H114      -53.7263  -24.5190   18.3645 H         1 UNK         0.0814 
    115 H115      -52.3354  -25.2620   19.1379 H         1 UNK         0.0814 
    116 H116      -50.3661  -24.4925   16.0866 H         1 UNK         0.3091 
    117 H117      -47.7261  -25.6859   17.9165 H         1 UNK         0.0702 
    118 H118      -48.1567  -27.9548   16.9597 H         1 UNK         0.0785 
    119 H119      -48.5753  -27.2368   15.4094 H         1 UNK         0.0785 
    120 H120      -46.9308  -27.1069   16.0301 H         1 UNK         0.0785 
    121 H121      -47.9302  -24.8900   15.1467 H         1 UNK         0.2998 
    122 H122      -47.9979  -21.3696   15.8245 H         1 UNK         0.0697 
    123 H123      -45.9056  -23.2010   14.5363 H         1 UNK         0.0825 
    124 H124      -45.5987  -22.0863   15.8614 H         1 UNK         0.0825 
    125 H125      -46.0638  -21.4634   14.2869 H         1 UNK         0.0825 
    126 H126      -48.0715  -22.7029   13.3461 H         1 UNK         0.3029 
    127 H127      -51.6647  -23.0680   13.1458 H         1 UNK         0.0897 
    128 H128      -51.1682  -21.8048   11.0850 H         1 UNK         0.0792 
    129 H129      -49.5532  -21.4087   11.6665 H         1 UNK         0.0792 
    130 H130      -50.9704  -20.7530   12.4776 H         1 UNK         0.0792 
    131 H131      -49.6390  -23.8672   11.3235 H         1 UNK         0.3086 
    132 H132      -49.2731  -27.2290   12.5813 H         1 UNK         0.0583 
    133 H133      -51.2769  -27.0562   11.0214 H         1 UNK         0.1020 
    134 H134      -50.3262  -26.0652    9.9517 H         1 UNK         0.1020 
    135 H135      -50.3648  -30.5754   10.2652 H         1 UNK         0.0694 
    136 H136      -51.0833  -29.4806   11.4171 H         1 UNK         0.0694 
    137 H137      -47.8649  -25.9497   10.5033 H         1 UNK         0.2989 
    138 H138      -45.2580  -24.4644   12.4504 H         1 UNK         0.1055 
    139 H139      -44.6361  -26.8392   12.0608 H         1 UNK         0.0806 
    140 H140      -43.9611  -25.8138   10.8052 H         1 UNK         0.0806 
    141 H141      -45.3791  -26.8063   10.4695 H         1 UNK         0.0806 
    142 H142      -46.0203  -24.5387    9.6425 H         1 UNK         0.3061 
    143 H143      -47.6233  -21.3520    9.6518 H         1 UNK         0.0734 
    144 H144      -45.8737  -20.8896    7.9607 H         1 UNK         0.0832 
    145 H145      -45.1735  -20.8647    9.5699 H         1 UNK         0.0832 
    146 H146      -44.9157  -22.2577    8.5294 H         1 UNK         0.0832 
    147 H147      -47.0310  -23.1746    7.5365 H         1 UNK         0.3156 
    148 H148      -50.1207  -24.9882    7.7387 H         1 UNK         0.0589 
    149 H149      -48.9590  -23.0271    5.7007 H         1 UNK         0.0808 
    150 H150      -50.2830  -24.1626    5.4407 H         1 UNK         0.0808 
    151 H151      -50.4876  -22.8135    6.5435 H         1 UNK         0.0808 
    152 H152      -48.4089  -25.6435    5.8594 H         1 UNK         0.3098 
    153 H153      -46.4905  -27.1937    5.9517 H         1 UNK         0.0720 
    154 H154      -45.7868  -29.2677    7.1524 H         1 UNK         0.0791 
    155 H155      -46.6372  -28.7378    8.6029 H         1 UNK         0.0791 
    156 H156      -45.2506  -27.8323    8.0118 H         1 UNK         0.0791 
    157 H157      -48.6455  -28.8768    7.1453 H         1 UNK         0.3028 
@<TRIPOS>BOND
     1    1    2 1    
     2    1   82 1    
     3    1   83 1    
     4    1   84 1    
     5    2    3 2    
     6    2    4 am   BACKBONE|DICT|INTERRES
     7    4    5 1    
     8    4   85 1    
     9    5    6 1    
    10    5   80 1    
    11    5   86 1    
    12    6    7 1    
    13    6   87 1    
    14    6   88 1    
    15    7    8 1    
    16    8    9 1    
    17    8   89 1    
    18    8   90 1    
    19    9   10 ar   
    20    9   14 ar   
    21   10   11 ar   
    22   10   91 1    
    23   11   12 ar   
    24   11   58 1    
    25   12   13 ar   
    26   12   92 1    
    27   13   14 ar   
    28   13   15 1    
    29   14   93 1    
    30   15   16 1    
    31   15   94 1    
    32   15   95 1    
    33   16   17 1    
    34   17   18 1    
    35   17   96 1    
    36   17   97 1    
    37   18   19 1    
    38   18   22 1    
    39   18   98 1    
    40   19   20 am   BACKBONE|DICT|INTERRES
    41   19   21 2    
    42   20   99 1    
    43   20  100 1    
    44   22   23 am   BACKBONE|DICT|INTERRES
    45   22  101 1    
    46   23   24 2    
    47   23   25 1    
    48   25   26 1    
    49   25   27 1    
    50   25  102 1    
    51   26  103 1    
    52   26  104 1    
    53   26  105 1    
    54   27   28 am   BACKBONE|DICT|INTERRES
    55   27  106 1    
    56   28   29 2    
    57   28   30 1    
    58   30   31 1    
    59   30   32 1    
    60   30  107 1    
    61   31  108 1    
    62   31  109 1    
    63   31  110 1    
    64   32   33 am   BACKBONE|DICT|INTERRES
    65   32  111 1    
    66   33   34 2    
    67   33   35 1    
    68   35   36 1    
    69   35   37 1    
    70   35  112 1    
    71   36  113 1    
    72   36  114 1    
    73   36  115 1    
    74   37   38 am   BACKBONE|DICT|INTERRES
    75   37  116 1    
    76   38   39 2    
    77   38   40 1    
    78   40   41 1    
    79   40   42 1    
    80   40  117 1    
    81   41  118 1    
    82   41  119 1    
    83   41  120 1    
    84   42   43 am   BACKBONE|DICT|INTERRES
    85   42  121 1    
    86   43   44 2    
    87   43   45 1    
    88   45   46 1    
    89   45   47 1    
    90   45  122 1    
    91   46  123 1    
    92   46  124 1    
    93   46  125 1    
    94   47   48 am   BACKBONE|DICT|INTERRES
    95   47  126 1    
    96   48   49 2    
    97   48   50 1    
    98   50   51 1    
    99   50   52 1    
   100   50  127 1    
   101   51  128 1    
   102   51  129 1    
   103   51  130 1    
   104   52   53 am   BACKBONE|DICT|INTERRES
   105   52  131 1    
   106   53   54 2    
   107   53   55 1    
   108   55   56 1    
   109   55   59 1    
   110   55  132 1    
   111   56   57 1    
   112   56  133 1    
   113   56  134 1    
   114   57   58 1    
   115   58  135 1    
   116   58  136 1    
   117   59   60 am   BACKBONE|DICT|INTERRES
   118   59  137 1    
   119   60   61 2    
   120   60   62 1    
   121   62   63 1    
   122   62   64 1    
   123   62  138 1    
   124   63  139 1    
   125   63  140 1    
   126   63  141 1    
   127   64   65 am   BACKBONE|DICT|INTERRES
   128   64  142 1    
   129   65   66 2    
   130   65   67 1    
   131   67   68 1    
   132   67   69 1    
   133   67  143 1    
   134   68  144 1    
   135   68  145 1    
   136   68  146 1    
   137   69   70 am   BACKBONE|DICT|INTERRES
   138   69  147 1    
   139   70   71 2    
   140   70   72 1    
   141   72   73 1    
   142   72   74 1    
   143   72  148 1    
   144   73  149 1    
   145   73  150 1    
   146   73  151 1    
   147   74   75 am   BACKBONE|DICT|INTERRES
   148   74  152 1    
   149   75   76 2    
   150   75   77 1    
   151   77   78 1    
   152   77   79 1    
   153   77  153 1    
   154   78  154 1    
   155   78  155 1    
   156   78  156 1    
   157   79   80 am   BACKBONE|DICT|INTERRES
   158   79  157 1    
   159   80   81 2    
@<TRIPOS>SUBSTRUCTURE
     1 UNK         1 GROUP             0       ****    0 ROOT    
