@<TRIPOS>MOLECULE
3R207
157   159    1
SMALL
USER_CHARGES


@<TRIPOS>ATOM
      1 CA        -51.7833  -25.2710    5.1668 C.3       0 UNK        -0.1975 
      2 C         -51.5053  -26.1456    3.9492 C.2       0 UNK         0.4852 
      3 O         -51.6241  -25.6663    2.8234 O.2       0 UNK        -0.5216 
      4 N         -51.1204  -27.4198    4.1107 N.am      1 UNK        -0.4461 
      5 CA        -50.9282  -28.1471    5.3770 C.3       1 UNK         0.0864 
      6 C6        -51.3555  -29.6321    5.2421 C.3       14 UNK        -0.0898 
      7 S7        -53.1673  -29.7594    5.0336 S.3       14 UNK        -0.2598 
      8 C8        -53.7271  -30.4189    6.6443 C.3       14 UNK         0.0286 
      9 C9        -53.1174  -29.6950    7.8399 C.ar      14 UNK        -0.0844 
     10 C10       -53.3666  -28.3365    8.0582 C.ar      14 UNK        -0.0881 
     11 C11       -52.7541  -27.6676    9.1227 C.ar      14 UNK        -0.0643 
     12 C12       -51.9293  -28.3763   10.0018 C.ar      14 UNK        -0.0930 
     13 C13       -51.6832  -29.7360    9.8017 C.ar      14 UNK        -0.0827 
     14 C14       -52.2770  -30.3871    8.7167 C.ar      14 UNK        -0.1249 
     15 C15       -50.7266  -30.4895   10.7141 C.3       14 UNK         0.0141 
     16 S16       -51.5279  -31.8909   11.5572 S.3       14 UNK        -0.2313 
     17 C17       -52.2591  -31.1120   13.0327 C.3       14 UNK        -0.0915 
     18 CA        -53.8069  -31.0363   12.9589 C.3       13 UNK         0.0968 
     19 C         -54.4321  -31.0675   14.3808 C.2       13 UNK         0.5732 
     20 N         -54.7222  -32.2513   14.9032 N.am      13 UNK        -0.7310 
     21 O         -54.6170  -30.0397   15.0286 O.2       13 UNK        -0.5035 
     22 N         -54.2424  -29.8551   12.2048 N.am      13 UNK        -0.4233 
     23 C         -55.4817  -29.6563   11.7465 C.2       13 UNK         0.4989 
     24 O         -56.3739  -30.5064   11.7794 O.2       13 UNK        -0.4996 
     25 CA        -55.7816  -28.2453   11.2085 C.3       12 UNK         0.0216 
     26 CB        -57.0182  -28.2106   10.2919 C.3       12 UNK        -0.1964 
     27 N         -55.9684  -27.2993   12.3107 N.am      12 UNK        -0.4276 
     28 C         -54.9828  -26.7921   13.0621 C.2       12 UNK         0.5020 
     29 O         -53.7829  -26.9985   12.8512 O.2       12 UNK        -0.5489 
     30 CA        -55.4120  -25.9289   14.2569 C.3       11 UNK         0.0294 
     31 CB        -56.1218  -26.7876   15.3252 C.3       11 UNK        -0.2019 
     32 N         -54.2171  -25.3077   14.8186 N.am      11 UNK        -0.4493 
     33 C         -54.1614  -24.3611   15.7633 C.2       11 UNK         0.4932 
     34 O         -55.1590  -23.8244   16.2484 O.2       11 UNK        -0.5029 
     35 CA        -52.7557  -23.9353   16.2389 C.3       10 UNK         0.0280 
     36 CB        -52.7418  -23.4016   17.6871 C.3       10 UNK        -0.1976 
     37 N         -51.7419  -24.9798   16.0425 N.am      10 UNK        -0.4242 
     38 C         -51.6820  -26.1857   16.6287 C.2       10 UNK         0.5072 
     39 O         -52.4429  -26.5617   17.5212 O.2       10 UNK        -0.5224 
     40 CA        -50.6073  -27.1560   16.1111 C.3       9 UNK         0.0343 
     41 CB        -51.1707  -28.0122   14.9668 C.3       9 UNK        -0.2003 
     42 N         -49.3847  -26.4892   15.6568 N.am      9 UNK        -0.4272 
     43 C         -48.4708  -25.9537   16.4784 C.2       9 UNK         0.4988 
     44 O         -48.5622  -25.9650   17.7068 O.2       9 UNK        -0.5108 
     45 CA        -47.2405  -25.3032   15.8236 C.3       8 UNK         0.0248 
     46 CB        -46.2508  -26.3753   15.3393 C.3       8 UNK        -0.2001 
     47 N         -47.5882  -24.4101   14.7164 N.am      8 UNK        -0.4140 
     48 C         -48.2508  -23.2525   14.8584 C.2       8 UNK         0.5028 
     49 O         -48.5996  -22.7888   15.9446 O.2       8 UNK        -0.5428 
     50 CA        -48.6012  -22.4841   13.5727 C.3       7 UNK         0.0264 
     51 CB        -47.4044  -21.6457   13.0961 C.3       7 UNK        -0.1988 
     52 N         -49.0592  -23.3539   12.4866 N.am      7 UNK        -0.4454 
     53 C         -50.1677  -24.1077   12.5326 C.2       7 UNK         0.5027 
     54 O         -50.9425  -24.1243   13.4873 O.2       7 UNK        -0.5083 
     55 CA        -50.4421  -25.0312   11.3320 C.3       6 UNK         0.0844 
     56 C56       -51.1048  -24.2350   10.1812 C.3       14 UNK        -0.0967 
     57 S57       -51.5057  -25.2567    8.7290 S.3       14 UNK        -0.2604 
     58 C58       -52.9628  -26.1751    9.3150 C.3       14 UNK         0.0134 
     59 N         -49.2393  -25.7681   10.9287 N.am      6 UNK        -0.4116 
     60 C         -48.5739  -26.6222   11.7220 C.2       5 UNK         0.5034 
     61 O         -48.9413  -26.9429   12.8517 O.2       5 UNK        -0.5045 
     62 CA        -47.2351  -27.1588   11.2002 C.3       5 UNK         0.0224 
     63 CB        -47.4437  -28.3737   10.2825 C.3       5 UNK        -0.1978 
     64 N         -46.4794  -26.1149   10.5052 N.am      5 UNK        -0.4737 
     65 C         -45.8786  -25.0902   11.1280 C.2       4 UNK         0.5027 
     66 O         -45.8619  -24.9538   12.3508 O.2       4 UNK        -0.5211 
     67 CA        -45.2181  -24.0177   10.2439 C.3       4 UNK         0.0297 
     68 CB        -43.7804  -24.4260    9.8867 C.3       4 UNK        -0.1993 
     69 N         -45.9699  -23.7438    9.0171 N.am      4 UNK        -0.4486 
     70 C         -47.1980  -23.2078    8.9843 C.2       3 UNK         0.4961 
     71 O         -47.8046  -22.8272    9.9847 O.2       3 UNK        -0.5105 
     72 CA        -47.8907  -23.1287    7.6117 C.3       3 UNK         0.0299 
     73 CB        -47.5848  -21.7846    6.9330 C.3       3 UNK        -0.1972 
     74 N         -47.5634  -24.2296    6.6944 N.am      3 UNK        -0.4305 
     75 C         -47.7362  -25.5312    6.9658 C.2       2 UNK         0.5006 
     76 O         -48.1092  -25.9488    8.0618 O.2       2 UNK        -0.5106 
     77 CA        -47.4393  -26.5190    5.8245 C.3       2 UNK         0.0296 
     78 CB        -46.3866  -27.5711    6.2316 C.3       2 UNK        -0.2002 
     79 N         -48.6862  -27.1192    5.3331 N.am      2 UNK        -0.4032 
     80 C         -49.5033  -27.9868    5.9561 C.2       1 UNK         0.5000 
     81 O         -49.1937  -28.6319    6.9574 O.2       1 UNK        -0.5238 
     82 H82       -52.0290  -24.2543    4.8612 H         1 UNK         0.0889 
     83 H83       -50.9107  -25.2171    5.8163 H         1 UNK         0.0889 
     84 H84       -52.6271  -25.6574    5.7381 H         1 UNK         0.0889 
     85 H85       -50.9578  -27.9720    3.2801 H         1 UNK         0.3028 
     86 H86       -51.5690  -27.7024    6.1373 H         1 UNK         0.0864 
     87 H87       -50.8666  -30.0981    4.3852 H         1 UNK         0.0720 
     88 H88       -51.0567  -30.2217    6.1101 H         1 UNK         0.0720 
     89 H89       -53.4936  -31.4841    6.6809 H         1 UNK         0.0814 
     90 H90       -54.8139  -30.3447    6.6986 H         1 UNK         0.0814 
     91 H91       -54.0049  -27.7942    7.3741 H         1 UNK         0.1469 
     92 H92       -51.4560  -27.8612   10.8249 H         1 UNK         0.1381 
     93 H93       -52.0689  -31.4351    8.5499 H         1 UNK         0.1206 
     94 H94       -49.9065  -30.8740   10.1061 H         1 UNK         0.0813 
     95 H95       -50.2709  -29.8246   11.4496 H         1 UNK         0.0813 
     96 H96       -51.8277  -30.1241   13.1928 H         1 UNK         0.0638 
     97 H97       -51.9341  -31.7182   13.8808 H         1 UNK         0.0638 
     98 H98       -54.1748  -31.9174   12.4289 H         1 UNK         0.0568 
     99 H99       -55.1137  -32.2922   15.8310 H         1 UNK         0.3450 
    100 H100      -54.5613  -33.1031   14.3888 H         1 UNK         0.3450 
    101 H101      -53.6214  -29.0555   12.2263 H         1 UNK         0.2987 
    102 H102      -54.9265  -27.9259   10.6162 H         1 UNK         0.0766 
    103 H103      -57.1664  -27.2187    9.8648 H         1 UNK         0.0798 
    104 H104      -57.9290  -28.4872   10.8245 H         1 UNK         0.0798 
    105 H105      -56.9022  -28.9060    9.4594 H         1 UNK         0.0798 
    106 H106      -56.9241  -27.0999   12.5696 H         1 UNK         0.3198 
    107 H107      -56.0826  -25.1458   13.8978 H         1 UNK         0.0843 
    108 H108      -56.9851  -27.3111   14.9138 H         1 UNK         0.0831 
    109 H109      -56.4867  -26.1802   16.1532 H         1 UNK         0.0831 
    110 H110      -55.4504  -27.5414   15.7385 H         1 UNK         0.0831 
    111 H111      -53.3572  -25.6693   14.4205 H         1 UNK         0.3133 
    112 H112      -52.4590  -23.1118   15.5882 H         1 UNK         0.0566 
    113 H113      -51.7357  -23.1144   17.9930 H         1 UNK         0.0814 
    114 H114      -53.3736  -22.5178   17.7835 H         1 UNK         0.0814 
    115 H115      -53.1116  -24.1418   18.3970 H         1 UNK         0.0814 
    116 H116      -51.1089  -24.7960   15.2679 H         1 UNK         0.3091 
    117 H117      -50.3458  -27.8251   16.9337 H         1 UNK         0.0702 
    118 H118      -52.0883  -28.5202   15.2679 H         1 UNK         0.0785 
    119 H119      -51.4050  -27.4084   14.0892 H         1 UNK         0.0785 
    120 H120      -50.4565  -28.7773   14.6626 H         1 UNK         0.0785 
    121 H121      -49.2130  -26.4865   14.6533 H         1 UNK         0.2998 
    122 H122      -46.7382  -24.7044   16.5863 H         1 UNK         0.0697 
    123 H123      -46.6772  -26.9925   14.5481 H         1 UNK         0.0825 
    124 H124      -45.9653  -27.0408   16.1551 H         1 UNK         0.0825 
    125 H125      -45.3361  -25.9245   14.9539 H         1 UNK         0.0825 
    126 H126      -47.2714  -24.6831   13.7910 H         1 UNK         0.3029 
    127 H127      -49.4196  -21.8017   13.8124 H         1 UNK         0.0897 
    128 H128      -47.6676  -21.0343   12.2327 H         1 UNK         0.0792 
    129 H129      -46.5582  -22.2733   12.8150 H         1 UNK         0.0792 
    130 H130      -47.0637  -20.9694   13.8812 H         1 UNK         0.0792 
    131 H131      -48.5071  -23.3437   11.6307 H         1 UNK         0.3086 
    132 H132      -51.1625  -25.7730   11.6802 H         1 UNK         0.0583 
    133 H133      -52.0216  -23.7521   10.5260 H         1 UNK         0.1020 
    134 H134      -50.4505  -23.4284    9.8467 H         1 UNK         0.1020 
    135 H135      -53.1582  -25.9674   10.3674 H         1 UNK         0.0694 
    136 H136      -53.8426  -25.8325    8.7685 H         1 UNK         0.0694 
    137 H137      -48.8933  -25.6075    9.9883 H         1 UNK         0.2989 
    138 H138      -46.6481  -27.4857   12.0614 H         1 UNK         0.1055 
    139 H139      -47.8865  -29.2018   10.8363 H         1 UNK         0.0806 
    140 H140      -46.5000  -28.7293    9.8693 H         1 UNK         0.0806 
    141 H141      -48.1118  -28.1503    9.4501 H         1 UNK         0.0806 
    142 H142      -46.5541  -26.1029    9.4951 H         1 UNK         0.3061 
    143 H143      -45.1759  -23.0929   10.8231 H         1 UNK         0.0734 
    144 H144      -43.2701  -23.6395    9.3305 H         1 UNK         0.0832 
    145 H145      -43.1951  -24.6145   10.7880 H         1 UNK         0.0832 
    146 H146      -43.7542  -25.3360    9.2859 H         1 UNK         0.0832 
    147 H147      -45.5491  -24.0283    8.1447 H         1 UNK         0.3156 
    148 H148      -48.9663  -23.1773    7.7936 H         1 UNK         0.0589 
    149 H149      -46.5276  -21.6890    6.6818 H         1 UNK         0.0808 
    150 H150      -48.1619  -21.6609    6.0165 H         1 UNK         0.0808 
    151 H151      -47.8404  -20.9502    7.5880 H         1 UNK         0.0808 
    152 H152      -47.2422  -23.9642    5.7741 H         1 UNK         0.3098 
    153 H153      -47.0260  -25.9593    4.9840 H         1 UNK         0.0720 
    154 H154      -46.2204  -28.2951    5.4342 H         1 UNK         0.0791 
    155 H155      -46.6758  -28.1204    7.1280 H         1 UNK         0.0791 
    156 H156      -45.4288  -27.0957    6.4452 H         1 UNK         0.0791 
    157 H157      -49.0534  -26.6963    4.4922 H         1 UNK         0.3028 
@<TRIPOS>BOND
     1    1    2 1    
     2    1   82 1    
     3    1   83 1    
     4    1   84 1    
     5    2    3 2    
     6    2    4 am   BACKBONE|DICT|INTERRES
     7    4    5 1    
     8    4   85 1    
     9    5    6 1    
    10    5   80 1    
    11    5   86 1    
    12    6    7 1    
    13    6   87 1    
    14    6   88 1    
    15    7    8 1    
    16    8    9 1    
    17    8   89 1    
    18    8   90 1    
    19    9   10 ar   
    20    9   14 ar   
    21   10   11 ar   
    22   10   91 1    
    23   11   12 ar   
    24   11   58 1    
    25   12   13 ar   
    26   12   92 1    
    27   13   14 ar   
    28   13   15 1    
    29   14   93 1    
    30   15   16 1    
    31   15   94 1    
    32   15   95 1    
    33   16   17 1    
    34   17   18 1    
    35   17   96 1    
    36   17   97 1    
    37   18   19 1    
    38   18   22 1    
    39   18   98 1    
    40   19   20 am   BACKBONE|DICT|INTERRES
    41   19   21 2    
    42   20   99 1    
    43   20  100 1    
    44   22   23 am   BACKBONE|DICT|INTERRES
    45   22  101 1    
    46   23   24 2    
    47   23   25 1    
    48   25   26 1    
    49   25   27 1    
    50   25  102 1    
    51   26  103 1    
    52   26  104 1    
    53   26  105 1    
    54   27   28 am   BACKBONE|DICT|INTERRES
    55   27  106 1    
    56   28   29 2    
    57   28   30 1    
    58   30   31 1    
    59   30   32 1    
    60   30  107 1    
    61   31  108 1    
    62   31  109 1    
    63   31  110 1    
    64   32   33 am   BACKBONE|DICT|INTERRES
    65   32  111 1    
    66   33   34 2    
    67   33   35 1    
    68   35   36 1    
    69   35   37 1    
    70   35  112 1    
    71   36  113 1    
    72   36  114 1    
    73   36  115 1    
    74   37   38 am   BACKBONE|DICT|INTERRES
    75   37  116 1    
    76   38   39 2    
    77   38   40 1    
    78   40   41 1    
    79   40   42 1    
    80   40  117 1    
    81   41  118 1    
    82   41  119 1    
    83   41  120 1    
    84   42   43 am   BACKBONE|DICT|INTERRES
    85   42  121 1    
    86   43   44 2    
    87   43   45 1    
    88   45   46 1    
    89   45   47 1    
    90   45  122 1    
    91   46  123 1    
    92   46  124 1    
    93   46  125 1    
    94   47   48 am   BACKBONE|DICT|INTERRES
    95   47  126 1    
    96   48   49 2    
    97   48   50 1    
    98   50   51 1    
    99   50   52 1    
   100   50  127 1    
   101   51  128 1    
   102   51  129 1    
   103   51  130 1    
   104   52   53 am   BACKBONE|DICT|INTERRES
   105   52  131 1    
   106   53   54 2    
   107   53   55 1    
   108   55   56 1    
   109   55   59 1    
   110   55  132 1    
   111   56   57 1    
   112   56  133 1    
   113   56  134 1    
   114   57   58 1    
   115   58  135 1    
   116   58  136 1    
   117   59   60 am   BACKBONE|DICT|INTERRES
   118   59  137 1    
   119   60   61 2    
   120   60   62 1    
   121   62   63 1    
   122   62   64 1    
   123   62  138 1    
   124   63  139 1    
   125   63  140 1    
   126   63  141 1    
   127   64   65 am   BACKBONE|DICT|INTERRES
   128   64  142 1    
   129   65   66 2    
   130   65   67 1    
   131   67   68 1    
   132   67   69 1    
   133   67  143 1    
   134   68  144 1    
   135   68  145 1    
   136   68  146 1    
   137   69   70 am   BACKBONE|DICT|INTERRES
   138   69  147 1    
   139   70   71 2    
   140   70   72 1    
   141   72   73 1    
   142   72   74 1    
   143   72  148 1    
   144   73  149 1    
   145   73  150 1    
   146   73  151 1    
   147   74   75 am   BACKBONE|DICT|INTERRES
   148   74  152 1    
   149   75   76 2    
   150   75   77 1    
   151   77   78 1    
   152   77   79 1    
   153   77  153 1    
   154   78  154 1    
   155   78  155 1    
   156   78  156 1    
   157   79   80 am   BACKBONE|DICT|INTERRES
   158   79  157 1    
   159   80   81 2    
@<TRIPOS>SUBSTRUCTURE
     1 UNK         1 GROUP             0       ****    0 ROOT    
