@<TRIPOS>MOLECULE
3R207
157   159    1
SMALL
USER_CHARGES


@<TRIPOS>ATOM
      1 CA        -49.6732  -29.5142    7.5387 C.3       0 UNK        -0.1975 
      2 C         -49.7211  -28.7856    6.2061 C.2       0 UNK         0.4852 
      3 O         -48.6716  -28.4762    5.6408 O.2       0 UNK        -0.5216 
      4 N         -50.9263  -28.5041    5.6903 N.am      1 UNK        -0.4461 
      5 CA        -51.1543  -27.8132    4.4143 C.3       1 UNK         0.0864 
      6 C6        -52.4396  -28.3192    3.6937 C.3       14 UNK        -0.0898 
      7 S7        -54.0618  -27.8464    4.3974 S.3       14 UNK        -0.2598 
      8 C8        -54.5470  -29.2987    5.3924 C.3       14 UNK         0.0286 
      9 C9        -53.8984  -29.3349    6.7729 C.ar      14 UNK        -0.0844 
     10 C10       -53.7068  -28.1613    7.5105 C.ar      14 UNK        -0.0881 
     11 C11       -53.0799  -28.1990    8.7555 C.ar      14 UNK        -0.0643 
     12 C12       -52.6823  -29.4249    9.2914 C.ar      14 UNK        -0.0930 
     13 C13       -52.8982  -30.6123    8.5851 C.ar      14 UNK        -0.0827 
     14 C14       -53.5015  -30.5578    7.3235 C.ar      14 UNK        -0.1249 
     15 C15       -52.4395  -31.9493    9.1543 C.3       14 UNK         0.0141 
     16 S16       -53.2295  -32.3376   10.7484 S.3       14 UNK        -0.2313 
     17 C17       -51.8954  -31.9021   11.9155 C.3       14 UNK        -0.0915 
     18 CA        -52.4138  -31.6949   13.3673 C.3       13 UNK         0.0968 
     19 C         -51.2643  -31.5821   14.4157 C.2       13 UNK         0.5732 
     20 N         -51.4893  -30.9550   15.5635 N.am      13 UNK        -0.7310 
     21 O         -50.1675  -32.0970   14.2104 O.2       13 UNK        -0.5035 
     22 N         -53.4475  -30.6469   13.4769 N.am      13 UNK        -0.4233 
     23 C         -53.2715  -29.3343   13.2749 C.2       13 UNK         0.4989 
     24 O         -52.2080  -28.8184   12.9241 O.2       13 UNK        -0.4996 
     25 CA        -54.4992  -28.4473   13.5242 C.3       12 UNK         0.0216 
     26 CB        -54.9490  -28.4900   14.9981 C.3       12 UNK        -0.1964 
     27 N         -54.1881  -27.0683   13.1556 N.am      12 UNK        -0.4276 
     28 C         -55.0727  -26.1692   12.7105 C.2       12 UNK         0.5020 
     29 O         -56.2739  -26.4067   12.5655 O.2       12 UNK        -0.5489 
     30 CA        -54.5123  -24.7736   12.3724 C.3       11 UNK         0.0294 
     31 CB        -55.5934  -23.7901   11.8758 C.3       11 UNK        -0.2019 
     32 N         -53.7427  -24.1856   13.4762 N.am      11 UNK        -0.4493 
     33 C         -54.1704  -23.8836   14.7100 C.2       11 UNK         0.4932 
     34 O         -55.3194  -24.0657   15.1159 O.2       11 UNK        -0.5029 
     35 CA        -53.1024  -23.2693   15.6357 C.3       10 UNK         0.0280 
     36 CB        -53.7028  -22.5843   16.8825 C.3       10 UNK        -0.1976 
     37 N         -52.0752  -24.2502   16.0103 N.am      10 UNK        -0.4242 
     38 C         -52.2487  -25.3845   16.7080 C.2       10 UNK         0.5072 
     39 O         -53.3303  -25.7504   17.1693 O.2       10 UNK        -0.5224 
     40 CA        -51.0167  -26.2746   16.9487 C.3       9 UNK         0.0343 
     41 CB        -51.2672  -27.7032   16.4383 C.3       9 UNK        -0.2003 
     42 N         -49.7925  -25.7619   16.3258 N.am      9 UNK        -0.4272 
     43 C         -48.8357  -25.0881   16.9782 C.2       9 UNK         0.4988 
     44 O         -48.9227  -24.7408   18.1567 O.2       9 UNK        -0.5108 
     45 CA        -47.5522  -24.7623   16.1959 C.3       8 UNK         0.0248 
     46 CB        -46.6702  -26.0142   16.0594 C.3       8 UNK        -0.2001 
     47 N         -47.7941  -24.1905   14.8706 N.am      8 UNK        -0.4140 
     48 C         -48.3316  -22.9832   14.6455 C.2       8 UNK         0.5028 
     49 O         -48.7333  -22.2304   15.5329 O.2       8 UNK        -0.5428 
     50 CA        -48.4496  -22.5457   13.1775 C.3       7 UNK         0.0264 
     51 CB        -47.0974  -22.0587   12.6298 C.3       7 UNK        -0.1988 
     52 N         -48.9590  -23.6292   12.3396 N.am      7 UNK        -0.4454 
     53 C         -50.2501  -23.9831   12.2863 C.2       7 UNK         0.5027 
     54 O         -51.1479  -23.3908   12.8835 O.2       7 UNK        -0.5083 
     55 CA        -50.6085  -25.2193   11.4433 C.3       6 UNK         0.0844 
     56 C56       -50.9935  -24.7880   10.0051 C.3       14 UNK        -0.0967 
     57 S57       -51.2528  -26.1773    8.8578 S.3       14 UNK        -0.2604 
     58 C58       -52.7877  -26.9087    9.4952 C.3       14 UNK         0.0134 
     59 N         -49.5598  -26.2394   11.4902 N.am      6 UNK        -0.4116 
     60 C         -49.2249  -26.9241   12.5936 C.2       5 UNK         0.5034 
     61 O         -49.7416  -26.7401   13.6942 O.2       5 UNK        -0.5045 
     62 CA        -48.0717  -27.9326   12.4715 C.3       5 UNK         0.0224 
     63 CB        -48.6039  -29.2849   11.9702 C.3       5 UNK        -0.1978 
     64 N         -46.9866  -27.4744   11.5986 N.am      5 UNK        -0.4737 
     65 C         -46.3108  -26.3243   11.7352 C.2       4 UNK         0.5027 
     66 O         -46.4949  -25.5280   12.6573 O.2       4 UNK        -0.5211 
     67 CA        -45.3096  -25.9587   10.6230 C.3       4 UNK         0.0297 
     68 CB        -44.9250  -27.1450    9.7091 C.3       4 UNK        -0.1993 
     69 N         -45.7879  -24.8304    9.8116 N.am      4 UNK        -0.4486 
     70 C         -46.9626  -24.7385    9.1677 C.2       3 UNK         0.4961 
     71 O         -47.8414  -25.6004    9.2304 O.2       3 UNK        -0.5105 
     72 CA        -47.2180  -23.4478    8.3574 C.3       3 UNK         0.0299 
     73 CB        -45.9371  -22.8668    7.7166 C.3       3 UNK        -0.1972 
     74 N         -48.2715  -23.6069    7.3429 N.am      3 UNK        -0.4305 
     75 C         -48.2842  -24.4765    6.3211 C.2       2 UNK         0.5006 
     76 O         -47.3609  -25.2461    6.0428 O.2       2 UNK        -0.5106 
     77 CA        -49.5301  -24.4586    5.4296 C.3       2 UNK         0.0296 
     78 CB        -49.2826  -23.6108    4.1662 C.3       2 UNK        -0.2002 
     79 N         -49.8585  -25.8375    5.0803 N.am      2 UNK        -0.4032 
     80 C         -51.0122  -26.2757    4.5625 C.2       1 UNK         0.5000 
     81 O         -51.9242  -25.5191    4.2236 O.2       1 UNK        -0.5238 
     82 H82       -50.0179  -28.8652    8.3423 H         1 UNK         0.0889 
     83 H83       -48.6554  -29.8262    7.7712 H         1 UNK         0.0889 
     84 H84       -50.2981  -30.4051    7.5093 H         1 UNK         0.0889 
     85 H85       -51.7615  -28.7333    6.2157 H         1 UNK         0.3028 
     86 H86       -50.3366  -28.0973    3.7477 H         1 UNK         0.0864 
     87 H87       -52.4301  -27.9520    2.6661 H         1 UNK         0.0720 
     88 H88       -52.4007  -29.4057    3.6031 H         1 UNK         0.0720 
     89 H89       -55.6290  -29.2765    5.5280 H         1 UNK         0.0814 
     90 H90       -54.3271  -30.2089    4.8323 H         1 UNK         0.0814 
     91 H91       -54.0125  -27.2065    7.1048 H         1 UNK         0.1469 
     92 H92       -52.1907  -29.4462   10.2527 H         1 UNK         0.1381 
     93 H93       -53.6575  -31.4706    6.7645 H         1 UNK         0.1206 
     94 H94       -52.6720  -32.7575    8.4593 H         1 UNK         0.0813 
     95 H95       -51.3539  -31.9482    9.2606 H         1 UNK         0.0813 
     96 H96       -51.1711  -32.7177   11.8809 H         1 UNK         0.0638 
     97 H97       -51.3638  -31.0159   11.5705 H         1 UNK         0.0638 
     98 H98       -52.9219  -32.6184   13.6466 H         1 UNK         0.0568 
     99 H99       -50.7488  -30.9001   16.2435 H         1 UNK         0.3450 
    100 H100      -52.3883  -30.5475   15.7578 H         1 UNK         0.3450 
    101 H101      -54.3593  -30.9745   13.7595 H         1 UNK         0.2987 
    102 H102      -55.3035  -28.8200   12.8861 H         1 UNK         0.0766 
    103 H103      -55.8311  -27.8694   15.1580 H         1 UNK         0.0798 
    104 H104      -54.1687  -28.1263   15.6668 H         1 UNK         0.0798 
    105 H105      -55.2102  -29.5005   15.3130 H         1 UNK         0.0798 
    106 H106      -53.2033  -26.8401   13.2020 H         1 UNK         0.3198 
    107 H107      -53.8112  -24.9164   11.5506 H         1 UNK         0.0843 
    108 H108      -56.3586  -23.6117   12.6320 H         1 UNK         0.0831 
    109 H109      -56.0978  -24.1799   10.9908 H         1 UNK         0.0831 
    110 H110      -55.1600  -22.8278   11.6035 H         1 UNK         0.0831 
    111 H111      -52.7753  -23.9423   13.2611 H         1 UNK         0.3133 
    112 H112      -52.5920  -22.4944   15.0616 H         1 UNK         0.0566 
    113 H113      -54.2505  -23.2845   17.5138 H         1 UNK         0.0814 
    114 H114      -52.9270  -22.1206   17.4916 H         1 UNK         0.0814 
    115 H115      -54.4014  -21.7985   16.5928 H         1 UNK         0.0814 
    116 H116      -51.1429  -24.0555   15.6724 H         1 UNK         0.3091 
    117 H117      -50.8802  -26.3353   18.0304 H         1 UNK         0.0702 
    118 H118      -52.0855  -28.1749   16.9830 H         1 UNK         0.0785 
    119 H119      -51.5288  -27.7143   15.3802 H         1 UNK         0.0785 
    120 H120      -50.3869  -28.3321   16.5705 H         1 UNK         0.0785 
    121 H121      -49.6493  -26.0242   15.3506 H         1 UNK         0.2998 
    122 H122      -46.9945  -24.0224   16.7741 H         1 UNK         0.0697 
    123 H123      -47.1599  -26.7905   15.4713 H         1 UNK         0.0825 
    124 H124      -46.4416  -26.4403   17.0373 H         1 UNK         0.0825 
    125 H125      -45.7208  -25.7801   15.5774 H         1 UNK         0.0825 
    126 H126      -47.4503  -24.7239   14.0750 H         1 UNK         0.3029 
    127 H127      -49.1502  -21.7083   13.1341 H         1 UNK         0.0897 
    128 H128      -47.1927  -21.6949   11.6067 H         1 UNK         0.0792 
    129 H129      -46.3440  -22.8469   12.6359 H         1 UNK         0.0792 
    130 H130      -46.7100  -21.2349   13.2308 H         1 UNK         0.0792 
    131 H131      -48.2741  -24.2164   11.8825 H         1 UNK         0.3086 
    132 H132      -51.4898  -25.6643   11.9068 H         1 UNK         0.0583 
    133 H133      -50.2087  -24.1653    9.5724 H         1 UNK         0.1020 
    134 H134      -51.8933  -24.1699   10.0154 H         1 UNK         0.1020 
    135 H135      -52.6911  -27.1099   10.5621 H         1 UNK         0.0694 
    136 H136      -53.6126  -26.2053    9.3741 H         1 UNK         0.0694 
    137 H137      -49.0381  -26.3833   10.6301 H         1 UNK         0.2989 
    138 H138      -47.6544  -28.0757   13.4698 H         1 UNK         0.1055 
    139 H139      -49.0128  -29.2119   10.9614 H         1 UNK         0.0806 
    140 H140      -49.4038  -29.6488   12.6175 H         1 UNK         0.0806 
    141 H141      -47.8230  -30.0454   11.9655 H         1 UNK         0.0806 
    142 H142      -46.7901  -28.0397   10.7855 H         1 UNK         0.3061 
    143 H143      -44.4036  -25.6224   11.1296 H         1 UNK         0.0734 
    144 H144      -44.1312  -26.8600    9.0185 H         1 UNK         0.0832 
    145 H145      -44.5504  -27.9886   10.2907 H         1 UNK         0.0832 
    146 H146      -45.7649  -27.4967    9.1085 H         1 UNK         0.0832 
    147 H147      -45.1498  -24.0507    9.7382 H         1 UNK         0.3156 
    148 H148      -47.5969  -22.7136    9.0698 H         1 UNK         0.0589 
    149 H149      -45.4256  -23.6029    7.0948 H         1 UNK         0.0808 
    150 H150      -46.1670  -22.0066    7.0876 H         1 UNK         0.0808 
    151 H151      -45.2296  -22.5219    8.4711 H         1 UNK         0.0808 
    152 H152      -49.0877  -23.0269    7.4758 H         1 UNK         0.3098 
    153 H153      -50.3662  -24.0392    5.9935 H         1 UNK         0.0720 
    154 H154      -48.4832  -24.0295    3.5536 H         1 UNK         0.0791 
    155 H155      -48.9933  -22.5927    4.4299 H         1 UNK         0.0791 
    156 H156      -50.1766  -23.5398    3.5468 H         1 UNK         0.0791 
    157 H157      -49.1534  -26.5237    5.3419 H         1 UNK         0.3028 
@<TRIPOS>BOND
     1    1    2 1    
     2    1   82 1    
     3    1   83 1    
     4    1   84 1    
     5    2    3 2    
     6    2    4 am   BACKBONE|DICT|INTERRES
     7    4    5 1    
     8    4   85 1    
     9    5    6 1    
    10    5   80 1    
    11    5   86 1    
    12    6    7 1    
    13    6   87 1    
    14    6   88 1    
    15    7    8 1    
    16    8    9 1    
    17    8   89 1    
    18    8   90 1    
    19    9   10 ar   
    20    9   14 ar   
    21   10   11 ar   
    22   10   91 1    
    23   11   12 ar   
    24   11   58 1    
    25   12   13 ar   
    26   12   92 1    
    27   13   14 ar   
    28   13   15 1    
    29   14   93 1    
    30   15   16 1    
    31   15   94 1    
    32   15   95 1    
    33   16   17 1    
    34   17   18 1    
    35   17   96 1    
    36   17   97 1    
    37   18   19 1    
    38   18   22 1    
    39   18   98 1    
    40   19   20 am   BACKBONE|DICT|INTERRES
    41   19   21 2    
    42   20   99 1    
    43   20  100 1    
    44   22   23 am   BACKBONE|DICT|INTERRES
    45   22  101 1    
    46   23   24 2    
    47   23   25 1    
    48   25   26 1    
    49   25   27 1    
    50   25  102 1    
    51   26  103 1    
    52   26  104 1    
    53   26  105 1    
    54   27   28 am   BACKBONE|DICT|INTERRES
    55   27  106 1    
    56   28   29 2    
    57   28   30 1    
    58   30   31 1    
    59   30   32 1    
    60   30  107 1    
    61   31  108 1    
    62   31  109 1    
    63   31  110 1    
    64   32   33 am   BACKBONE|DICT|INTERRES
    65   32  111 1    
    66   33   34 2    
    67   33   35 1    
    68   35   36 1    
    69   35   37 1    
    70   35  112 1    
    71   36  113 1    
    72   36  114 1    
    73   36  115 1    
    74   37   38 am   BACKBONE|DICT|INTERRES
    75   37  116 1    
    76   38   39 2    
    77   38   40 1    
    78   40   41 1    
    79   40   42 1    
    80   40  117 1    
    81   41  118 1    
    82   41  119 1    
    83   41  120 1    
    84   42   43 am   BACKBONE|DICT|INTERRES
    85   42  121 1    
    86   43   44 2    
    87   43   45 1    
    88   45   46 1    
    89   45   47 1    
    90   45  122 1    
    91   46  123 1    
    92   46  124 1    
    93   46  125 1    
    94   47   48 am   BACKBONE|DICT|INTERRES
    95   47  126 1    
    96   48   49 2    
    97   48   50 1    
    98   50   51 1    
    99   50   52 1    
   100   50  127 1    
   101   51  128 1    
   102   51  129 1    
   103   51  130 1    
   104   52   53 am   BACKBONE|DICT|INTERRES
   105   52  131 1    
   106   53   54 2    
   107   53   55 1    
   108   55   56 1    
   109   55   59 1    
   110   55  132 1    
   111   56   57 1    
   112   56  133 1    
   113   56  134 1    
   114   57   58 1    
   115   58  135 1    
   116   58  136 1    
   117   59   60 am   BACKBONE|DICT|INTERRES
   118   59  137 1    
   119   60   61 2    
   120   60   62 1    
   121   62   63 1    
   122   62   64 1    
   123   62  138 1    
   124   63  139 1    
   125   63  140 1    
   126   63  141 1    
   127   64   65 am   BACKBONE|DICT|INTERRES
   128   64  142 1    
   129   65   66 2    
   130   65   67 1    
   131   67   68 1    
   132   67   69 1    
   133   67  143 1    
   134   68  144 1    
   135   68  145 1    
   136   68  146 1    
   137   69   70 am   BACKBONE|DICT|INTERRES
   138   69  147 1    
   139   70   71 2    
   140   70   72 1    
   141   72   73 1    
   142   72   74 1    
   143   72  148 1    
   144   73  149 1    
   145   73  150 1    
   146   73  151 1    
   147   74   75 am   BACKBONE|DICT|INTERRES
   148   74  152 1    
   149   75   76 2    
   150   75   77 1    
   151   77   78 1    
   152   77   79 1    
   153   77  153 1    
   154   78  154 1    
   155   78  155 1    
   156   78  156 1    
   157   79   80 am   BACKBONE|DICT|INTERRES
   158   79  157 1    
   159   80   81 2    
@<TRIPOS>SUBSTRUCTURE
     1 UNK         1 GROUP             0       ****    0 ROOT    
