@<TRIPOS>MOLECULE
3R207
157   159    1
SMALL
USER_CHARGES


@<TRIPOS>ATOM
      1 CA        -49.4010  -23.7444    2.0434 C.3       0 UNK        -0.1975 
      2 C         -49.2850  -24.6518    3.2588 C.2       0 UNK         0.4852 
      3 O         -48.1899  -24.8090    3.7975 O.2       0 UNK        -0.5216 
      4 N         -50.4098  -25.2334    3.7028 N.am      1 UNK        -0.4461 
      5 CA        -50.5252  -26.1688    4.8333 C.3       1 UNK         0.0864 
      6 C6        -49.9583  -27.5775    4.4928 C.3       14 UNK        -0.0898 
      7 S7        -50.9344  -28.9117    5.2673 S.3       14 UNK        -0.2598 
      8 C8        -49.7753  -29.5378    6.5332 C.3       14 UNK         0.0286 
      9 C9        -50.4093  -30.0288    7.8374 C.ar      14 UNK        -0.0844 
     10 C10       -49.5828  -30.6590    8.7720 C.ar      14 UNK        -0.0881 
     11 C11       -50.0805  -31.0830   10.0078 C.ar      14 UNK        -0.0643 
     12 C12       -51.4305  -30.8833   10.3099 C.ar      14 UNK        -0.0930 
     13 C13       -52.2764  -30.2658    9.3833 C.ar      14 UNK        -0.0827 
     14 C14       -51.7618  -29.8409    8.1546 C.ar      14 UNK        -0.1249 
     15 C15       -53.7528  -30.0629    9.6893 C.3       14 UNK         0.0141 
     16 S16       -54.0503  -28.4793   10.5339 S.3       14 UNK        -0.2313 
     17 C17       -54.0492  -28.9965   12.2837 C.3       14 UNK        -0.0915 
     18 CA        -55.4942  -29.1205   12.8370 C.3       13 UNK         0.0968 
     19 C         -55.5382  -29.8527   14.2106 C.2       13 UNK         0.5732 
     20 N         -56.1378  -29.2985   15.2591 N.am      13 UNK        -0.7310 
     21 O         -55.0338  -30.9671   14.3238 O.2       13 UNK        -0.5035 
     22 N         -56.1837  -27.8222   12.8304 N.am      13 UNK        -0.4233 
     23 C         -57.5070  -27.6599   12.7014 C.2       13 UNK         0.4989 
     24 O         -58.2873  -28.5866   12.4739 O.2       13 UNK        -0.4996 
     25 CA        -58.0516  -26.2221   12.8602 C.3       12 UNK         0.0216 
     26 CB        -59.5381  -26.1944   13.2773 C.3       12 UNK        -0.1964 
     27 N         -57.2501  -25.3800   13.7616 N.am      12 UNK        -0.4276 
     28 C         -56.9480  -25.6370   15.0423 C.2       12 UNK         0.5020 
     29 O         -57.3386  -26.6287   15.6638 O.2       12 UNK        -0.5489 
     30 CA        -56.0093  -24.6371   15.7364 C.3       11 UNK         0.0294 
     31 CB        -56.7582  -23.8515   16.8250 C.3       11 UNK        -0.2019 
     32 N         -54.8570  -25.3190   16.3304 N.am      11 UNK        -0.4493 
     33 C         -53.9423  -26.0134   15.6407 C.2       11 UNK         0.4932 
     34 O         -53.9440  -26.1218   14.4131 O.2       11 UNK        -0.5029 
     35 CA        -52.8542  -26.7111   16.4660 C.3       10 UNK         0.0280 
     36 CB        -52.8196  -28.2242   16.1971 C.3       10 UNK        -0.1976 
     37 N         -51.5461  -26.1341   16.1647 N.am      10 UNK        -0.4242 
     38 C         -51.0382  -25.0723   16.8044 C.2       10 UNK         0.5072 
     39 O         -51.6474  -24.4387   17.6684 O.2       10 UNK        -0.5224 
     40 CA        -49.5933  -24.6728   16.4691 C.3       9 UNK         0.0343 
     41 CB        -48.6025  -25.6952   17.0507 C.3       9 UNK        -0.2003 
     42 N         -49.3489  -24.5067   15.0367 N.am      9 UNK        -0.4272 
     43 C         -49.7810  -23.4667   14.3089 C.2       9 UNK         0.4988 
     44 O         -50.4639  -22.5475   14.7624 O.2       9 UNK        -0.5108 
     45 CA        -49.3639  -23.4310   12.8278 C.3       8 UNK         0.0248 
     46 CB        -47.9119  -22.9493   12.6762 C.3       8 UNK        -0.2001 
     47 N         -49.5202  -24.7286   12.1736 N.am      8 UNK        -0.4140 
     48 C         -50.7019  -25.3013   11.9082 C.2       8 UNK         0.5028 
     49 O         -51.7870  -24.7493   12.0899 O.2       8 UNK        -0.5428 
     50 CA        -50.6678  -26.7310   11.3471 C.3       7 UNK         0.0264 
     51 CB        -50.5465  -26.7002    9.8189 C.3       7 UNK        -0.1988 
     52 N         -49.5836  -27.5409   11.9077 N.am      7 UNK        -0.4454 
     53 C         -49.5281  -27.9488   13.1829 C.2       7 UNK         0.5027 
     54 O         -50.3871  -27.6870   14.0245 O.2       7 UNK        -0.5083 
     55 CA        -48.2776  -28.7390   13.6152 C.3       6 UNK         0.0844 
     56 C56       -48.3871  -30.2502   13.2787 C.3       14 UNK        -0.0967 
     57 S57       -47.8326  -30.6922   11.5909 S.3       14 UNK        -0.2604 
     58 C58       -49.1571  -31.7894   10.9896 C.3       14 UNK         0.0134 
     59 N         -47.0374  -28.1364   13.1205 N.am      6 UNK        -0.4116 
     60 C         -46.5860  -26.9176   13.4408 C.2       5 UNK         0.5034 
     61 O         -47.1358  -26.1697   14.2468 O.2       5 UNK        -0.5045 
     62 CA        -45.3351  -26.4300   12.6928 C.3       5 UNK         0.0224 
     63 CB        -44.0592  -26.9504   13.3731 C.3       5 UNK        -0.1978 
     64 N         -45.3228  -26.7955   11.2709 N.am      5 UNK        -0.4737 
     65 C         -46.2463  -26.4070   10.3815 C.2       4 UNK         0.5027 
     66 O         -47.2471  -25.7520   10.6775 O.2       4 UNK        -0.5211 
     67 CA        -46.0410  -26.8661    8.9307 C.3       4 UNK         0.0297 
     68 CB        -46.9026  -28.1022    8.6342 C.3       4 UNK        -0.1993 
     69 N         -46.3845  -25.7936    7.9960 N.am      4 UNK        -0.4486 
     70 C         -45.6153  -24.7136    7.7841 C.2       3 UNK         0.4961 
     71 O         -44.4953  -24.5707    8.2775 O.2       3 UNK        -0.5105 
     72 CA        -46.1631  -23.6029    6.8664 C.3       3 UNK         0.0299 
     73 CB        -45.5480  -23.7170    5.4628 C.3       3 UNK        -0.1972 
     74 N         -47.6232  -23.6113    6.7612 N.am      3 UNK        -0.4305 
     75 C         -48.4522  -23.2544    7.7548 C.2       2 UNK         0.5006 
     76 O         -48.0626  -22.7462    8.8063 O.2       2 UNK        -0.5106 
     77 CA        -49.9663  -23.4927    7.5699 C.3       2 UNK         0.0296 
     78 CB        -50.7193  -22.1527    7.5106 C.3       2 UNK        -0.2002 
     79 N         -50.3511  -24.2992    6.4054 N.am      2 UNK        -0.4032 
     80 C         -49.9848  -25.5654    6.1536 C.2       1 UNK         0.5000 
     81 O         -49.2133  -26.2006    6.8743 O.2       1 UNK        -0.5238 
     82 H82       -48.7717  -24.1188    1.2365 H         1 UNK         0.0889 
     83 H83       -49.0694  -22.7374    2.2949 H         1 UNK         0.0889 
     84 H84       -50.4248  -23.6831    1.6748 H         1 UNK         0.0889 
     85 H85       -51.2752  -25.0474    3.2139 H         1 UNK         0.3028 
     86 H86       -51.6007  -26.2712    4.9885 H         1 UNK         0.0864 
     87 H87       -48.8972  -27.6632    4.7344 H         1 UNK         0.0720 
     88 H88       -50.0186  -27.7505    3.4172 H         1 UNK         0.0720 
     89 H89       -49.0671  -28.7527    6.7897 H         1 UNK         0.0814 
     90 H90       -49.1901  -30.3438    6.0884 H         1 UNK         0.0814 
     91 H91       -48.5365  -30.8119    8.5439 H         1 UNK         0.1469 
     92 H92       -51.8245  -31.2165   11.2597 H         1 UNK         0.1381 
     93 H93       -52.4265  -29.3488    7.4600 H         1 UNK         0.1206 
     94 H94       -54.1404  -30.8923   10.2827 H         1 UNK         0.0813 
     95 H95       -54.3252  -30.0707    8.7605 H         1 UNK         0.0813 
     96 H96       -53.4797  -28.2652   12.8582 H         1 UNK         0.0638 
     97 H97       -53.5063  -29.9377   12.3775 H         1 UNK         0.0638 
     98 H98       -56.0323  -29.7853   12.1587 H         1 UNK         0.0568 
     99 H99       -56.5685  -28.3807   15.2053 H         1 UNK         0.3450 
    100 H100      -56.1663  -29.8084   16.1267 H         1 UNK         0.3450 
    101 H101      -55.6057  -27.0227   13.0554 H         1 UNK         0.2987 
    102 H102      -57.9787  -25.7667   11.8715 H         1 UNK         0.0766 
    103 H103      -59.6977  -26.6906   14.2354 H         1 UNK         0.0798 
    104 H104      -60.1633  -26.7008   12.5409 H         1 UNK         0.0798 
    105 H105      -59.9075  -25.1726   13.3636 H         1 UNK         0.0798 
    106 H106      -56.8541  -24.5508   13.3389 H         1 UNK         0.3198 
    107 H107      -55.6295  -23.9271   14.9985 H         1 UNK         0.0843 
    108 H108      -57.1423  -24.5095   17.6058 H         1 UNK         0.0831 
    109 H109      -57.6104  -23.3170   16.4027 H         1 UNK         0.0831 
    110 H110      -56.1132  -23.1097   17.2964 H         1 UNK         0.0831 
    111 H111      -54.7880  -25.2958   17.3375 H         1 UNK         0.3133 
    112 H112      -53.0692  -26.5801   17.5290 H         1 UNK         0.0566 
    113 H113      -53.7459  -28.6951   16.5245 H         1 UNK         0.0814 
    114 H114      -52.6932  -28.4491   15.1381 H         1 UNK         0.0814 
    115 H115      -52.0052  -28.7056   16.7385 H         1 UNK         0.0814 
    116 H116      -51.0214  -26.5777   15.4133 H         1 UNK         0.3091 
    117 H117      -49.3976  -23.7140   16.9543 H         1 UNK         0.0702 
    118 H118      -47.5719  -25.3650   16.9191 H         1 UNK         0.0785 
    119 H119      -48.7024  -26.6718   16.5751 H         1 UNK         0.0785 
    120 H120      -48.7641  -25.8333   18.1207 H         1 UNK         0.0785 
    121 H121      -48.7362  -25.1907   14.6003 H         1 UNK         0.2998 
    122 H122      -50.0105  -22.7165   12.3140 H         1 UNK         0.0697 
    123 H123      -47.2076  -23.6226   13.1651 H         1 UNK         0.0825 
    124 H124      -47.7807  -21.9609   13.1182 H         1 UNK         0.0825 
    125 H125      -47.6279  -22.8769   11.6257 H         1 UNK         0.0825 
    126 H126      -48.6722  -25.2105   11.8857 H         1 UNK         0.3029 
    127 H127      -51.6110  -27.2123   11.6096 H         1 UNK         0.0897 
    128 H128      -49.6431  -26.1811    9.4990 H         1 UNK         0.0792 
    129 H129      -51.3979  -26.1888    9.3689 H         1 UNK         0.0792 
    130 H130      -50.5171  -27.7050    9.4040 H         1 UNK         0.0792 
    131 H131      -48.8184  -27.7695   11.2904 H         1 UNK         0.3086 
    132 H132      -48.2409  -28.6621   14.7044 H         1 UNK         0.0583 
    133 H133      -47.7580  -30.8104   13.9721 H         1 UNK         0.1020 
    134 H134      -49.4004  -30.6149   13.4586 H         1 UNK         0.1020 
    135 H135      -48.6952  -32.6367   10.4810 H         1 UNK         0.0694 
    136 H136      -49.7154  -32.2126   11.8256 H         1 UNK         0.0694 
    137 H137      -46.5306  -28.6763   12.4341 H         1 UNK         0.2989 
    138 H138      -45.3316  -25.3392   12.7499 H         1 UNK         0.1055 
    139 H139      -44.0412  -26.6762   14.4291 H         1 UNK         0.0806 
    140 H140      -43.1646  -26.5265   12.9165 H         1 UNK         0.0806 
    141 H141      -43.9828  -28.0371   13.3175 H         1 UNK         0.0806 
    142 H142      -44.5347  -27.3393   10.9483 H         1 UNK         0.3061 
    143 H143      -44.9925  -27.1334    8.7825 H         1 UNK         0.0734 
    144 H144      -46.7631  -28.4439    7.6088 H         1 UNK         0.0832 
    145 H145      -46.6374  -28.9315    9.2907 H         1 UNK         0.0832 
    146 H146      -47.9636  -27.8975    8.7795 H         1 UNK         0.0832 
    147 H147      -47.3159  -25.8252    7.5918 H         1 UNK         0.3156 
    148 H148      -45.8593  -22.6439    7.2912 H         1 UNK         0.0589 
    149 H149      -45.7781  -24.6774    4.9997 H         1 UNK         0.0808 
    150 H150      -45.9116  -22.9299    4.8019 H         1 UNK         0.0808 
    151 H151      -44.4616  -23.6294    5.5055 H         1 UNK         0.0808 
    152 H152      -48.0113  -24.0281    5.9231 H         1 UNK         0.3098 
    153 H153      -50.3040  -24.0285    8.4586 H         1 UNK         0.0720 
    154 H154      -51.7989  -22.3028    7.4903 H         1 UNK         0.0791 
    155 H155      -50.4415  -21.5735    6.6290 H         1 UNK         0.0791 
    156 H156      -50.4990  -21.5394    8.3857 H         1 UNK         0.0791 
    157 H157      -50.9521  -23.8457    5.7326 H         1 UNK         0.3028 
@<TRIPOS>BOND
     1    1    2 1    
     2    1   82 1    
     3    1   83 1    
     4    1   84 1    
     5    2    3 2    
     6    2    4 am   BACKBONE|DICT|INTERRES
     7    4    5 1    
     8    4   85 1    
     9    5    6 1    
    10    5   80 1    
    11    5   86 1    
    12    6    7 1    
    13    6   87 1    
    14    6   88 1    
    15    7    8 1    
    16    8    9 1    
    17    8   89 1    
    18    8   90 1    
    19    9   10 ar   
    20    9   14 ar   
    21   10   11 ar   
    22   10   91 1    
    23   11   12 ar   
    24   11   58 1    
    25   12   13 ar   
    26   12   92 1    
    27   13   14 ar   
    28   13   15 1    
    29   14   93 1    
    30   15   16 1    
    31   15   94 1    
    32   15   95 1    
    33   16   17 1    
    34   17   18 1    
    35   17   96 1    
    36   17   97 1    
    37   18   19 1    
    38   18   22 1    
    39   18   98 1    
    40   19   20 am   BACKBONE|DICT|INTERRES
    41   19   21 2    
    42   20   99 1    
    43   20  100 1    
    44   22   23 am   BACKBONE|DICT|INTERRES
    45   22  101 1    
    46   23   24 2    
    47   23   25 1    
    48   25   26 1    
    49   25   27 1    
    50   25  102 1    
    51   26  103 1    
    52   26  104 1    
    53   26  105 1    
    54   27   28 am   BACKBONE|DICT|INTERRES
    55   27  106 1    
    56   28   29 2    
    57   28   30 1    
    58   30   31 1    
    59   30   32 1    
    60   30  107 1    
    61   31  108 1    
    62   31  109 1    
    63   31  110 1    
    64   32   33 am   BACKBONE|DICT|INTERRES
    65   32  111 1    
    66   33   34 2    
    67   33   35 1    
    68   35   36 1    
    69   35   37 1    
    70   35  112 1    
    71   36  113 1    
    72   36  114 1    
    73   36  115 1    
    74   37   38 am   BACKBONE|DICT|INTERRES
    75   37  116 1    
    76   38   39 2    
    77   38   40 1    
    78   40   41 1    
    79   40   42 1    
    80   40  117 1    
    81   41  118 1    
    82   41  119 1    
    83   41  120 1    
    84   42   43 am   BACKBONE|DICT|INTERRES
    85   42  121 1    
    86   43   44 2    
    87   43   45 1    
    88   45   46 1    
    89   45   47 1    
    90   45  122 1    
    91   46  123 1    
    92   46  124 1    
    93   46  125 1    
    94   47   48 am   BACKBONE|DICT|INTERRES
    95   47  126 1    
    96   48   49 2    
    97   48   50 1    
    98   50   51 1    
    99   50   52 1    
   100   50  127 1    
   101   51  128 1    
   102   51  129 1    
   103   51  130 1    
   104   52   53 am   BACKBONE|DICT|INTERRES
   105   52  131 1    
   106   53   54 2    
   107   53   55 1    
   108   55   56 1    
   109   55   59 1    
   110   55  132 1    
   111   56   57 1    
   112   56  133 1    
   113   56  134 1    
   114   57   58 1    
   115   58  135 1    
   116   58  136 1    
   117   59   60 am   BACKBONE|DICT|INTERRES
   118   59  137 1    
   119   60   61 2    
   120   60   62 1    
   121   62   63 1    
   122   62   64 1    
   123   62  138 1    
   124   63  139 1    
   125   63  140 1    
   126   63  141 1    
   127   64   65 am   BACKBONE|DICT|INTERRES
   128   64  142 1    
   129   65   66 2    
   130   65   67 1    
   131   67   68 1    
   132   67   69 1    
   133   67  143 1    
   134   68  144 1    
   135   68  145 1    
   136   68  146 1    
   137   69   70 am   BACKBONE|DICT|INTERRES
   138   69  147 1    
   139   70   71 2    
   140   70   72 1    
   141   72   73 1    
   142   72   74 1    
   143   72  148 1    
   144   73  149 1    
   145   73  150 1    
   146   73  151 1    
   147   74   75 am   BACKBONE|DICT|INTERRES
   148   74  152 1    
   149   75   76 2    
   150   75   77 1    
   151   77   78 1    
   152   77   79 1    
   153   77  153 1    
   154   78  154 1    
   155   78  155 1    
   156   78  156 1    
   157   79   80 am   BACKBONE|DICT|INTERRES
   158   79  157 1    
   159   80   81 2    
@<TRIPOS>SUBSTRUCTURE
     1 UNK         1 GROUP             0       ****    0 ROOT    
