@<TRIPOS>MOLECULE
3R207
157   159    1
SMALL
USER_CHARGES


@<TRIPOS>ATOM
      1 CA        -47.8860  -32.8283    4.6287 C.3       0 UNK        -0.1975 
      2 C         -48.1566  -31.4071    5.1005 C.2       0 UNK         0.4852 
      3 O         -48.6083  -30.5778    4.3104 O.2       0 UNK        -0.5216 
      4 N         -47.8918  -31.1273    6.3829 N.am      1 UNK        -0.4461 
      5 CA        -48.0473  -29.8149    7.0223 C.3       1 UNK         0.0864 
      6 C6        -47.9117  -29.9188    8.5660 C.3       14 UNK        -0.0898 
      7 S7        -48.9562  -31.2206    9.3167 S.3       14 UNK        -0.2598 
      8 C8        -49.7495  -30.3537   10.7085 C.3       14 UNK         0.0286 
      9 C9        -51.1422  -29.8552   10.3510 C.ar      14 UNK        -0.0844 
     10 C10       -51.3005  -28.7898    9.4627 C.ar      14 UNK        -0.0881 
     11 C11       -52.5716  -28.2808    9.1788 C.ar      14 UNK        -0.0643 
     12 C12       -53.6878  -28.8590    9.7835 C.ar      14 UNK        -0.0930 
     13 C13       -53.5539  -29.9473   10.6514 C.ar      14 UNK        -0.0827 
     14 C14       -52.2741  -30.4398   10.9294 C.ar      14 UNK        -0.1249 
     15 C15       -54.7755  -30.5750   11.3185 C.3       14 UNK         0.0141 
     16 S16       -56.1888  -30.7671   10.1821 S.3       14 UNK        -0.2313 
     17 C17       -57.4942  -29.8038   11.0162 C.3       14 UNK        -0.0915 
     18 CA        -57.4384  -28.2820   10.6947 C.3       13 UNK         0.0968 
     19 C         -58.8660  -27.6580   10.6793 C.2       13 UNK         0.5732 
     20 N         -59.2267  -26.7818   11.6103 N.am      13 UNK        -0.7310 
     21 O         -59.6602  -27.9699    9.7951 O.2       13 UNK        -0.5035 
     22 N         -56.4988  -27.5808   11.5864 N.am      13 UNK        -0.4233 
     23 C         -55.9355  -26.3927   11.3447 C.2       13 UNK         0.4989 
     24 O         -56.0102  -25.8153   10.2602 O.2       13 UNK        -0.4996 
     25 CA        -55.1801  -25.7034   12.5017 C.3       12 UNK         0.0216 
     26 CB        -56.1583  -24.8970   13.3770 C.3       12 UNK        -0.1964 
     27 N         -54.3214  -26.5563   13.3401 N.am      12 UNK        -0.4276 
     28 C         -54.6518  -27.6102   14.1032 C.2       12 UNK         0.5020 
     29 O         -55.7853  -28.0867   14.1747 O.2       12 UNK        -0.5489 
     30 CA        -53.5300  -28.2343   14.9405 C.3       11 UNK         0.0294 
     31 CB        -52.6417  -29.1506   14.0862 C.3       11 UNK        -0.2019 
     32 N         -52.6906  -27.2105   15.5550 N.am      11 UNK        -0.4493 
     33 C         -52.8046  -26.7872   16.8201 C.2       11 UNK         0.4932 
     34 O         -53.7072  -27.1362   17.5830 O.2       11 UNK        -0.5029 
     35 CA        -51.6945  -25.8386   17.3164 C.3       10 UNK         0.0280 
     36 CB        -51.6006  -25.7677   18.8549 C.3       10 UNK        -0.1976 
     37 N         -50.3858  -26.1506   16.7246 N.am      10 UNK        -0.4242 
     38 C         -49.7089  -27.3109   16.7961 C.2       10 UNK         0.5072 
     39 O         -50.0553  -28.2653   17.4936 O.2       10 UNK        -0.5224 
     40 CA        -48.4590  -27.4676   15.9071 C.3       9 UNK         0.0343 
     41 CB        -48.7307  -28.4948   14.7939 C.3       9 UNK        -0.2003 
     42 N         -48.0155  -26.2123   15.2953 N.am      9 UNK        -0.4272 
     43 C         -47.3550  -25.2469   15.9504 C.2       9 UNK         0.4988 
     44 O         -46.9653  -25.3526   17.1138 O.2       9 UNK        -0.5108 
     45 CA        -47.1261  -23.9234   15.2005 C.3       8 UNK         0.0248 
     46 CB        -45.8246  -23.9837   14.3872 C.3       8 UNK        -0.2001 
     47 N         -48.2463  -23.5341   14.3335 N.am      8 UNK        -0.4140 
     48 C         -49.4869  -23.2674   14.7723 C.2       8 UNK         0.5028 
     49 O         -49.8277  -23.3610   15.9503 O.2       8 UNK        -0.5428 
     50 CA        -50.5359  -22.8543   13.7320 C.3       7 UNK         0.0264 
     51 CB        -50.3523  -21.3835   13.3244 C.3       7 UNK        -0.1988 
     52 N         -50.4866  -23.6999   12.5441 N.am      7 UNK        -0.4454 
     53 C         -50.9999  -24.9356   12.4539 C.2       7 UNK         0.5027 
     54 O         -51.6180  -25.5057   13.3574 O.2       7 UNK        -0.5083 
     55 CA        -50.7632  -25.6558   11.1129 C.3       6 UNK         0.0844 
     56 C56       -51.8319  -25.2051   10.0802 C.3       14 UNK        -0.0967 
     57 S57       -51.5253  -25.8091    8.3870 S.3       14 UNK        -0.2604 
     58 C58       -52.7668  -27.1246    8.2066 C.3       14 UNK         0.0134 
     59 N         -49.3874  -25.4577   10.6406 N.am      6 UNK        -0.4116 
     60 C         -48.2852  -25.8739   11.2842 C.2       5 UNK         0.5034 
     61 O         -48.3035  -26.4975   12.3440 O.2       5 UNK        -0.5045 
     62 CA        -46.9257  -25.4945   10.6744 C.3       5 UNK         0.0224 
     63 CB        -46.3996  -26.6250    9.7800 C.3       5 UNK        -0.1978 
     64 N         -46.9524  -24.2332    9.9280 N.am      5 UNK        -0.4737 
     65 C         -47.1929  -23.0355   10.4851 C.2       4 UNK         0.5027 
     66 O         -47.4196  -22.8774   11.6847 O.2       4 UNK        -0.5211 
     67 CA        -47.2406  -21.8163    9.5480 C.3       4 UNK         0.0297 
     68 CB        -45.8546  -21.1609    9.4517 C.3       4 UNK        -0.1993 
     69 N         -47.7266  -22.1374    8.2033 N.am      4 UNK        -0.4486 
     70 C         -48.9425  -22.6298    7.9309 C.2       3 UNK         0.4961 
     71 O         -49.8052  -22.8216    8.7884 O.2       3 UNK        -0.5105 
     72 CA        -49.2387  -23.0213    6.4722 C.3       3 UNK         0.0299 
     73 CB        -48.2958  -22.3692    5.4346 C.3       3 UNK        -0.1972 
     74 N         -49.2646  -24.4801    6.3152 N.am      3 UNK        -0.4305 
     75 C         -48.2674  -25.3425    6.5621 C.2       2 UNK         0.5006 
     76 O         -47.1421  -24.9976    6.9346 O.2       2 UNK        -0.5106 
     77 CA        -48.5769  -26.8415    6.3794 C.3       2 UNK         0.0296 
     78 CB        -49.5051  -27.1160    5.1757 C.3       2 UNK        -0.2002 
     79 N         -47.3068  -27.5460    6.2152 N.am      2 UNK        -0.4032 
     80 C         -46.9922  -28.8243    6.4640 C.2       1 UNK         0.5000 
     81 O         -45.8412  -29.2321    6.2930 O.2       1 UNK        -0.5238 
     82 H82       -48.8039  -33.2799    4.2531 H         1 UNK         0.0889 
     83 H83       -47.5020  -33.4583    5.4310 H         1 UNK         0.0889 
     84 H84       -47.1535  -32.8222    3.8220 H         1 UNK         0.0889 
     85 H85       -47.5198  -31.8507    6.9811 H         1 UNK         0.3028 
     86 H86       -49.0532  -29.4658    6.7902 H         1 UNK         0.0864 
     87 H87       -46.8791  -30.1360    8.8477 H         1 UNK         0.0720 
     88 H88       -48.1495  -28.9582    9.0224 H         1 UNK         0.0720 
     89 H89       -49.1322  -29.5210   11.0495 H         1 UNK         0.0814 
     90 H90       -49.8042  -31.0443   11.5513 H         1 UNK         0.0814 
     91 H91       -50.4304  -28.3455    9.0039 H         1 UNK         0.1469 
     92 H92       -54.6693  -28.4656    9.5638 H         1 UNK         0.1381 
     93 H93       -52.1569  -31.2690   11.6138 H         1 UNK         0.1206 
     94 H94       -54.5270  -31.5596   11.7172 H         1 UNK         0.0813 
     95 H95       -55.0613  -29.9629   12.1726 H         1 UNK         0.0813 
     96 H96       -58.4347  -30.2430   10.6775 H         1 UNK         0.0638 
     97 H97       -57.4637  -29.9829   12.0924 H         1 UNK         0.0638 
     98 H98       -57.0744  -28.1649    9.6724 H         1 UNK         0.0568 
     99 H99       -60.1530  -26.3858   11.5805 H         1 UNK         0.3450 
    100 H100      -58.5913  -26.5263   12.3477 H         1 UNK         0.3450 
    101 H101      -56.3897  -27.9567   12.5276 H         1 UNK         0.2987 
    102 H102      -54.5038  -24.9847   12.0372 H         1 UNK         0.0766 
    103 H103      -55.6242  -24.2941   14.1115 H         1 UNK         0.0798 
    104 H104      -56.8508  -25.5430   13.9174 H         1 UNK         0.0798 
    105 H105      -56.7550  -24.2134   12.7711 H         1 UNK         0.0798 
    106 H106      -53.3477  -26.2627   13.3700 H         1 UNK         0.3198 
    107 H107      -53.9920  -28.8481   15.7173 H         1 UNK         0.0843 
    108 H108      -53.2140  -29.9946   13.7037 H         1 UNK         0.0831 
    109 H109      -51.8213  -29.5648   14.6727 H         1 UNK         0.0831 
    110 H110      -52.2099  -28.6247   13.2333 H         1 UNK         0.0831 
    111 H111      -51.9657  -26.8018   14.9762 H         1 UNK         0.3133 
    112 H112      -51.9629  -24.8449   16.9555 H         1 UNK         0.0566 
    113 H113      -50.8138  -25.0829   19.1715 H         1 UNK         0.0814 
    114 H114      -52.5350  -25.4083   19.2876 H         1 UNK         0.0814 
    115 H115      -51.3935  -26.7440   19.2942 H         1 UNK         0.0814 
    116 H116      -49.9863  -25.3973   16.1755 H         1 UNK         0.3091 
    117 H117      -47.6546  -27.8527   16.5373 H         1 UNK         0.0702 
    118 H118      -47.8460  -28.6559   14.1776 H         1 UNK         0.0785 
    119 H119      -49.5405  -28.1727   14.1376 H         1 UNK         0.0785 
    120 H120      -49.0146  -29.4619   15.2111 H         1 UNK         0.0785 
    121 H121      -48.2469  -26.0810   14.3148 H         1 UNK         0.2998 
    122 H122      -47.0157  -23.1381   15.9512 H         1 UNK         0.0697 
    123 H123      -45.8505  -24.7835   13.6489 H         1 UNK         0.0825 
    124 H124      -44.9691  -24.1715   15.0373 H         1 UNK         0.0825 
    125 H125      -45.6349  -23.0459   13.8645 H         1 UNK         0.0825 
    126 H126      -48.0297  -23.3861   13.3491 H         1 UNK         0.3029 
    127 H127      -51.5218  -22.9591   14.1914 H         1 UNK         0.0897 
    128 H128      -51.1355  -21.0628   12.6373 H         1 UNK         0.0792 
    129 H129      -50.3992  -20.7293   14.1961 H         1 UNK         0.0792 
    130 H130      -49.3905  -21.2118   12.8390 H         1 UNK         0.0792 
    131 H131      -49.9730  -23.3362   11.7527 H         1 UNK         0.3086 
    132 H132      -50.8912  -26.7241   11.2954 H         1 UNK         0.0583 
    133 H133      -52.8241  -25.5288   10.3978 H         1 UNK         0.1020 
    134 H134      -51.8789  -24.1157   10.0204 H         1 UNK         0.1020 
    135 H135      -53.7582  -26.6827    8.3219 H         1 UNK         0.0694 
    136 H136      -52.7166  -27.5147    7.1894 H         1 UNK         0.0694 
    137 H137      -49.2862  -24.9109    9.7960 H         1 UNK         0.2989 
    138 H138      -46.2222  -25.3714   11.4982 H         1 UNK         0.1055 
    139 H139      -46.2986  -27.5536   10.3438 H         1 UNK         0.0806 
    140 H140      -45.4184  -26.3865    9.3692 H         1 UNK         0.0806 
    141 H141      -47.0722  -26.8208    8.9482 H         1 UNK         0.0806 
    142 H142      -46.8125  -24.2882    8.9242 H         1 UNK         0.3061 
    143 H143      -47.9323  -21.0943    9.9874 H         1 UNK         0.0734 
    144 H144      -45.4814  -20.8935   10.4414 H         1 UNK         0.0832 
    145 H145      -45.1216  -21.8288    8.9971 H         1 UNK         0.0832 
    146 H146      -45.8877  -20.2446    8.8620 H         1 UNK         0.0832 
    147 H147      -47.0685  -22.0470    7.4427 H         1 UNK         0.3156 
    148 H148      -50.2499  -22.6690    6.2629 H         1 UNK         0.0589 
    149 H149      -47.2654  -22.7140    5.5254 H         1 UNK         0.0808 
    150 H150      -48.6238  -22.5935    4.4195 H         1 UNK         0.0808 
    151 H151      -48.2931  -21.2828    5.5340 H         1 UNK         0.0808 
    152 H152      -50.1664  -24.8660    6.0725 H         1 UNK         0.3098 
    153 H153      -49.0570  -27.1796    7.2981 H         1 UNK         0.0720 
    154 H154      -50.5060  -26.7174    5.3439 H         1 UNK         0.0791 
    155 H155      -49.6261  -28.1805    4.9824 H         1 UNK         0.0791 
    156 H156      -49.1178  -26.6644    4.2613 H         1 UNK         0.0791 
    157 H157      -46.5542  -26.9236    5.9499 H         1 UNK         0.3028 
@<TRIPOS>BOND
     1    1    2 1    
     2    1   82 1    
     3    1   83 1    
     4    1   84 1    
     5    2    3 2    
     6    2    4 am   BACKBONE|DICT|INTERRES
     7    4    5 1    
     8    4   85 1    
     9    5    6 1    
    10    5   80 1    
    11    5   86 1    
    12    6    7 1    
    13    6   87 1    
    14    6   88 1    
    15    7    8 1    
    16    8    9 1    
    17    8   89 1    
    18    8   90 1    
    19    9   10 ar   
    20    9   14 ar   
    21   10   11 ar   
    22   10   91 1    
    23   11   12 ar   
    24   11   58 1    
    25   12   13 ar   
    26   12   92 1    
    27   13   14 ar   
    28   13   15 1    
    29   14   93 1    
    30   15   16 1    
    31   15   94 1    
    32   15   95 1    
    33   16   17 1    
    34   17   18 1    
    35   17   96 1    
    36   17   97 1    
    37   18   19 1    
    38   18   22 1    
    39   18   98 1    
    40   19   20 am   BACKBONE|DICT|INTERRES
    41   19   21 2    
    42   20   99 1    
    43   20  100 1    
    44   22   23 am   BACKBONE|DICT|INTERRES
    45   22  101 1    
    46   23   24 2    
    47   23   25 1    
    48   25   26 1    
    49   25   27 1    
    50   25  102 1    
    51   26  103 1    
    52   26  104 1    
    53   26  105 1    
    54   27   28 am   BACKBONE|DICT|INTERRES
    55   27  106 1    
    56   28   29 2    
    57   28   30 1    
    58   30   31 1    
    59   30   32 1    
    60   30  107 1    
    61   31  108 1    
    62   31  109 1    
    63   31  110 1    
    64   32   33 am   BACKBONE|DICT|INTERRES
    65   32  111 1    
    66   33   34 2    
    67   33   35 1    
    68   35   36 1    
    69   35   37 1    
    70   35  112 1    
    71   36  113 1    
    72   36  114 1    
    73   36  115 1    
    74   37   38 am   BACKBONE|DICT|INTERRES
    75   37  116 1    
    76   38   39 2    
    77   38   40 1    
    78   40   41 1    
    79   40   42 1    
    80   40  117 1    
    81   41  118 1    
    82   41  119 1    
    83   41  120 1    
    84   42   43 am   BACKBONE|DICT|INTERRES
    85   42  121 1    
    86   43   44 2    
    87   43   45 1    
    88   45   46 1    
    89   45   47 1    
    90   45  122 1    
    91   46  123 1    
    92   46  124 1    
    93   46  125 1    
    94   47   48 am   BACKBONE|DICT|INTERRES
    95   47  126 1    
    96   48   49 2    
    97   48   50 1    
    98   50   51 1    
    99   50   52 1    
   100   50  127 1    
   101   51  128 1    
   102   51  129 1    
   103   51  130 1    
   104   52   53 am   BACKBONE|DICT|INTERRES
   105   52  131 1    
   106   53   54 2    
   107   53   55 1    
   108   55   56 1    
   109   55   59 1    
   110   55  132 1    
   111   56   57 1    
   112   56  133 1    
   113   56  134 1    
   114   57   58 1    
   115   58  135 1    
   116   58  136 1    
   117   59   60 am   BACKBONE|DICT|INTERRES
   118   59  137 1    
   119   60   61 2    
   120   60   62 1    
   121   62   63 1    
   122   62   64 1    
   123   62  138 1    
   124   63  139 1    
   125   63  140 1    
   126   63  141 1    
   127   64   65 am   BACKBONE|DICT|INTERRES
   128   64  142 1    
   129   65   66 2    
   130   65   67 1    
   131   67   68 1    
   132   67   69 1    
   133   67  143 1    
   134   68  144 1    
   135   68  145 1    
   136   68  146 1    
   137   69   70 am   BACKBONE|DICT|INTERRES
   138   69  147 1    
   139   70   71 2    
   140   70   72 1    
   141   72   73 1    
   142   72   74 1    
   143   72  148 1    
   144   73  149 1    
   145   73  150 1    
   146   73  151 1    
   147   74   75 am   BACKBONE|DICT|INTERRES
   148   74  152 1    
   149   75   76 2    
   150   75   77 1    
   151   77   78 1    
   152   77   79 1    
   153   77  153 1    
   154   78  154 1    
   155   78  155 1    
   156   78  156 1    
   157   79   80 am   BACKBONE|DICT|INTERRES
   158   79  157 1    
   159   80   81 2    
@<TRIPOS>SUBSTRUCTURE
     1 UNK         1 GROUP             0       ****    0 ROOT    
