@<TRIPOS>MOLECULE
3R207
157   159    1
SMALL
USER_CHARGES


@<TRIPOS>ATOM
      1 CA        -49.4552  -30.1917   10.0233 C.3       0 UNK        -0.1975 
      2 C         -49.2045  -30.1779    8.5247 C.2       0 UNK         0.4852 
      3 O         -48.2700  -30.8276    8.0551 O.2       0 UNK        -0.5216 
      4 N         -50.0346  -29.4433    7.7719 N.am      1 UNK        -0.4461 
      5 CA        -49.9508  -29.3273    6.3101 C.3       1 UNK         0.0864 
      6 C6        -51.2515  -28.7539    5.6981 C.3       14 UNK        -0.0898 
      7 S7        -52.7232  -29.7668    6.0755 S.3       14 UNK        -0.2598 
      8 C8        -54.0764  -28.5828    5.7754 C.3       14 UNK         0.0286 
      9 C9        -54.3584  -27.7205    6.9981 C.ar      14 UNK        -0.0844 
     10 C10       -53.6565  -26.5284    7.1982 C.ar      14 UNK        -0.0881 
     11 C11       -53.8776  -25.7542    8.3400 C.ar      14 UNK        -0.0643 
     12 C12       -54.8625  -26.1442    9.2514 C.ar      14 UNK        -0.0930 
     13 C13       -55.5921  -27.3196    9.0511 C.ar      14 UNK        -0.0827 
     14 C14       -55.3266  -28.1118    7.9296 C.ar      14 UNK        -0.1249 
     15 C15       -56.6642  -27.7225   10.0518 C.3       14 UNK         0.0141 
     16 S16       -55.9194  -28.3941   11.5651 S.3       14 UNK        -0.2313 
     17 C17       -57.3726  -28.4773   12.6745 C.3       14 UNK        -0.0915 
     18 CA        -57.3266  -29.6811   13.6553 C.3       13 UNK         0.0968 
     19 C         -57.7254  -31.0142   12.9520 C.2       13 UNK         0.5732 
     20 N         -56.8437  -31.9968   12.8040 N.am      13 UNK        -0.7310 
     21 O         -58.8736  -31.1622   12.5399 O.2       13 UNK        -0.5035 
     22 N         -56.0460  -29.7004   14.3692 N.am      13 UNK        -0.4233 
     23 C         -55.7192  -30.4418   15.4321 C.2       13 UNK         0.4989 
     24 O         -56.5266  -31.1014   16.0886 O.2       13 UNK        -0.4996 
     25 CA        -54.2160  -30.4553   15.7859 C.3       12 UNK         0.0216 
     26 CB        -53.8031  -31.6934   16.6095 C.3       12 UNK        -0.1964 
     27 N         -53.3568  -30.2987   14.5983 N.am      12 UNK        -0.4276 
     28 C         -53.3184  -31.0994   13.5171 C.2       12 UNK         0.5020 
     29 O         -53.9688  -32.1419   13.4285 O.2       12 UNK        -0.5489 
     30 CA        -52.4830  -30.6340   12.3061 C.3       11 UNK         0.0294 
     31 CB        -53.0861  -31.1153   10.9717 C.3       11 UNK        -0.2019 
     32 N         -52.3616  -29.1756   12.2608 N.am      11 UNK        -0.4493 
     33 C         -51.3521  -28.4759   12.7892 C.2       11 UNK         0.4932 
     34 O         -50.3655  -28.9962   13.3116 O.2       11 UNK        -0.5029 
     35 CA        -51.4588  -26.9401   12.7537 C.3       10 UNK         0.0280 
     36 CB        -52.8178  -26.3996   12.2557 C.3       10 UNK        -0.1976 
     37 N         -51.1094  -26.3599   14.0561 N.am      10 UNK        -0.4242 
     38 C         -51.7188  -26.6136   15.2251 C.2       10 UNK         0.5072 
     39 O         -52.7190  -27.3291   15.3248 O.2       10 UNK        -0.5224 
     40 CA        -51.1111  -26.0216   16.5123 C.3       9 UNK         0.0343 
     41 CB        -50.7010  -27.1501   17.4752 C.3       9 UNK        -0.2003 
     42 N         -49.9520  -25.1470   16.3037 N.am      9 UNK        -0.4272 
     43 C         -50.0086  -23.8486   15.9769 C.2       9 UNK         0.4988 
     44 O         -51.0607  -23.2565   15.7328 O.2       9 UNK        -0.5108 
     45 CA        -48.6818  -23.0667   15.9404 C.3       8 UNK         0.0248 
     46 CB        -47.4361  -23.9059   16.2971 C.3       8 UNK        -0.2001 
     47 N         -48.5036  -22.5087   14.6044 N.am      8 UNK        -0.4140 
     48 C         -48.4102  -21.2094   14.2926 C.2       8 UNK         0.5028 
     49 O         -48.4209  -20.3029   15.1273 O.2       8 UNK        -0.5428 
     50 CA        -48.2661  -20.8415   12.7992 C.3       7 UNK         0.0264 
     51 CB        -46.8179  -20.4281   12.4884 C.3       7 UNK        -0.1988 
     52 N         -48.6571  -21.9149   11.8806 N.am      7 UNK        -0.4454 
     53 C         -49.9044  -22.3829   11.7331 C.2       7 UNK         0.5027 
     54 O         -50.8900  -21.8556   12.2492 O.2       7 UNK        -0.5083 
     55 CA        -50.0906  -23.6832   10.9230 C.3       6 UNK         0.0844 
     56 C56       -50.6186  -23.3916    9.5000 C.3       14 UNK        -0.0967 
     57 S57       -51.2709  -24.9087    8.7264 S.3       14 UNK        -0.2604 
     58 C58       -53.0441  -24.5068    8.5943 C.3       14 UNK         0.0134 
     59 N         -48.8978  -24.5429   10.9036 N.am      6 UNK        -0.4116 
     60 C         -48.3368  -25.1165   11.9785 C.2       5 UNK         0.5034 
     61 O         -48.7516  -24.9709   13.1279 O.2       5 UNK        -0.5045 
     62 CA        -47.0943  -25.9803   11.7376 C.3       5 UNK         0.0224 
     63 CB        -47.4810  -27.3529   11.1635 C.3       5 UNK        -0.1978 
     64 N         -46.1570  -25.3014   10.8441 N.am      5 UNK        -0.4737 
     65 C         -45.3047  -24.3472   11.2453 C.2       4 UNK         0.5027 
     66 O         -45.1541  -24.0158   12.4209 O.2       4 UNK        -0.5211 
     67 CA        -44.4958  -23.6238   10.1539 C.3       4 UNK         0.0297 
     68 CB        -43.1459  -24.3249    9.9336 C.3       4 UNK        -0.1993 
     69 N         -45.2045  -23.5217    8.8756 N.am      4 UNK        -0.4486 
     70 C         -46.3327  -22.8242    8.6812 C.2       3 UNK         0.4961 
     71 O         -46.8916  -22.1633    9.5553 O.2       3 UNK        -0.5105 
     72 CA        -46.9742  -22.9264    7.2869 C.3       3 UNK         0.0299 
     73 CB        -46.3699  -21.8784    6.3393 C.3       3 UNK        -0.1972 
     74 N         -46.8685  -24.2595    6.6811 N.am      3 UNK        -0.4305 
     75 C         -47.3473  -25.3891    7.2203 C.2       2 UNK         0.5006 
     76 O         -47.8857  -25.4526    8.3286 O.2       2 UNK        -0.5106 
     77 CA        -47.1416  -26.6722    6.4139 C.3       2 UNK         0.0296 
     78 CB        -45.8156  -27.3502    6.8026 C.3       2 UNK        -0.2002 
     79 N         -48.2574  -27.5719    6.6862 N.am      2 UNK        -0.4032 
     80 C         -48.7325  -28.4990    5.8441 C.2       1 UNK         0.5000 
     81 O         -48.2526  -28.7153    4.7292 O.2       1 UNK        -0.5238 
     82 H82       -49.9123  -31.1352   10.3192 H         1 UNK         0.0889 
     83 H83       -50.1144  -29.3791   10.3231 H         1 UNK         0.0889 
     84 H84       -48.5171  -30.0845   10.5667 H         1 UNK         0.0889 
     85 H85       -50.8084  -28.9568    8.2022 H         1 UNK         0.3028 
     86 H86       -49.8125  -30.3342    5.9095 H         1 UNK         0.0864 
     87 H87       -51.1682  -28.6894    4.6112 H         1 UNK         0.0720 
     88 H88       -51.4053  -27.7365    6.0536 H         1 UNK         0.0720 
     89 H89       -53.8405  -27.9581    4.9123 H         1 UNK         0.0814 
     90 H90       -54.9738  -29.1415    5.5052 H         1 UNK         0.0814 
     91 H91       -52.9156  -26.2061    6.4811 H         1 UNK         0.1469 
     92 H92       -55.0535  -25.5435   10.1303 H         1 UNK         0.1381 
     93 H93       -55.8760  -29.0311    7.7786 H         1 UNK         0.1206 
     94 H94       -57.2735  -26.8522   10.3005 H         1 UNK         0.0813 
     95 H95       -57.3395  -28.4637    9.6213 H         1 UNK         0.0813 
     96 H96       -58.2918  -28.4888   12.0857 H         1 UNK         0.0638 
     97 H97       -57.4017  -27.5471   13.2440 H         1 UNK         0.0638 
     98 H98       -58.0973  -29.5141   14.4096 H         1 UNK         0.0568 
     99 H99       -57.1365  -32.8465   12.3501 H         1 UNK         0.3450 
    100 H100      -55.8861  -31.9104   13.1296 H         1 UNK         0.3450 
    101 H101      -55.3055  -29.1953   13.9070 H         1 UNK         0.2987 
    102 H102      -54.0439  -29.5739   16.4057 H         1 UNK         0.0766 
    103 H103      -52.7402  -31.6728   16.8499 H         1 UNK         0.0798 
    104 H104      -54.0092  -32.6224   16.0769 H         1 UNK         0.0798 
    105 H105      -54.3470  -31.7338   17.5540 H         1 UNK         0.0798 
    106 H106      -52.8139  -29.4422   14.5777 H         1 UNK         0.3198 
    107 H107      -51.4950  -31.0874   12.4095 H         1 UNK         0.0843 
    108 H108      -54.1151  -30.7762   10.8472 H         1 UNK         0.0831 
    109 H109      -53.0952  -32.2046   10.9163 H         1 UNK         0.0831 
    110 H110      -52.5118  -30.7559   10.1180 H         1 UNK         0.0831 
    111 H111      -53.1447  -28.6719   11.8661 H         1 UNK         0.3133 
    112 H112      -50.7029  -26.6142   12.0425 H         1 UNK         0.0566 
    113 H113      -53.0071  -26.7129   11.2292 H         1 UNK         0.0814 
    114 H114      -52.8344  -25.3101   12.2604 H         1 UNK         0.0814 
    115 H115      -53.6512  -26.7381   12.8720 H         1 UNK         0.0814 
    116 H116      -50.2658  -25.7942   14.0619 H         1 UNK         0.3091 
    117 H117      -51.9007  -25.4408   16.9939 H         1 UNK         0.0702 
    118 H118      -51.5496  -27.7938   17.7120 H         1 UNK         0.0785 
    119 H119      -49.9232  -27.7831   17.0459 H         1 UNK         0.0785 
    120 H120      -50.3292  -26.7519   18.4195 H         1 UNK         0.0785 
    121 H121      -49.0438  -25.5591   16.4617 H         1 UNK         0.2998 
    122 H122      -48.7738  -22.2679   16.6788 H         1 UNK         0.0697 
    123 H123      -47.2774  -24.7252   15.5942 H         1 UNK         0.0825 
    124 H124      -47.5109  -24.3264   17.3009 H         1 UNK         0.0825 
    125 H125      -46.5377  -23.2885   16.2815 H         1 UNK         0.0825 
    126 H126      -48.5339  -23.1913   13.8533 H         1 UNK         0.3029 
    127 H127      -48.9168  -19.9846   12.6128 H         1 UNK         0.0897 
    128 H128      -46.7168  -20.0798   11.4602 H         1 UNK         0.0792 
    129 H129      -46.1239  -21.2579   12.6304 H         1 UNK         0.0792 
    130 H130      -46.4933  -19.6145   13.1385 H         1 UNK         0.0792 
    131 H131      -47.9171  -22.3280   11.3216 H         1 UNK         0.3086 
    132 H132      -50.8647  -24.2390   11.4536 H         1 UNK         0.0583 
    133 H133      -51.4039  -22.6330    9.5191 H         1 UNK         0.1020 
    134 H134      -49.8255  -22.9850    8.8719 H         1 UNK         0.1020 
    135 H135      -53.3698  -24.0164    9.5132 H         1 UNK         0.0694 
    136 H136      -53.1961  -23.7926    7.7839 H         1 UNK         0.0694 
    137 H137      -48.5171  -24.7571    9.9852 H         1 UNK         0.2989 
    138 H138      -46.6104  -26.1451   12.7034 H         1 UNK         0.1055 
    139 H139      -48.1354  -27.8866   11.8542 H         1 UNK         0.0806 
    140 H140      -46.6021  -27.9775   11.0038 H         1 UNK         0.0806 
    141 H141      -48.0099  -27.2709   10.2141 H         1 UNK         0.0806 
    142 H142      -46.2686  -25.4705    9.8530 H         1 UNK         0.3061 
    143 H143      -44.3019  -22.6092   10.5091 H         1 UNK         0.0734 
    144 H144      -42.5239  -23.7775    9.2251 H         1 UNK         0.0832 
    145 H145      -42.5859  -24.3927   10.8674 H         1 UNK         0.0832 
    146 H146      -43.2735  -25.3405    9.5567 H         1 UNK         0.0832 
    147 H147      -44.8204  -24.0348    8.0957 H         1 UNK         0.3156 
    148 H148      -48.0366  -22.7045    7.3976 H         1 UNK         0.0589 
    149 H149      -45.3116  -22.0632    6.1509 H         1 UNK         0.0808 
    150 H150      -46.8858  -21.8661    5.3790 H         1 UNK         0.0808 
    151 H151      -46.4550  -20.8761    6.7620 H         1 UNK         0.0808 
    152 H152      -46.4261  -24.3069    5.7740 H         1 UNK         0.3098 
    153 H153      -47.1288  -26.4190    5.3516 H         1 UNK         0.0720 
    154 H154      -45.7970  -27.6205    7.8595 H         1 UNK         0.0791 
    155 H155      -44.9660  -26.6923    6.6161 H         1 UNK         0.0791 
    156 H156      -45.6523  -28.2599    6.2244 H         1 UNK         0.0791 
    157 H157      -48.7272  -27.4061    7.5670 H         1 UNK         0.3028 
@<TRIPOS>BOND
     1    1    2 1    
     2    1   82 1    
     3    1   83 1    
     4    1   84 1    
     5    2    3 2    
     6    2    4 am   BACKBONE|DICT|INTERRES
     7    4    5 1    
     8    4   85 1    
     9    5    6 1    
    10    5   80 1    
    11    5   86 1    
    12    6    7 1    
    13    6   87 1    
    14    6   88 1    
    15    7    8 1    
    16    8    9 1    
    17    8   89 1    
    18    8   90 1    
    19    9   10 ar   
    20    9   14 ar   
    21   10   11 ar   
    22   10   91 1    
    23   11   12 ar   
    24   11   58 1    
    25   12   13 ar   
    26   12   92 1    
    27   13   14 ar   
    28   13   15 1    
    29   14   93 1    
    30   15   16 1    
    31   15   94 1    
    32   15   95 1    
    33   16   17 1    
    34   17   18 1    
    35   17   96 1    
    36   17   97 1    
    37   18   19 1    
    38   18   22 1    
    39   18   98 1    
    40   19   20 am   BACKBONE|DICT|INTERRES
    41   19   21 2    
    42   20   99 1    
    43   20  100 1    
    44   22   23 am   BACKBONE|DICT|INTERRES
    45   22  101 1    
    46   23   24 2    
    47   23   25 1    
    48   25   26 1    
    49   25   27 1    
    50   25  102 1    
    51   26  103 1    
    52   26  104 1    
    53   26  105 1    
    54   27   28 am   BACKBONE|DICT|INTERRES
    55   27  106 1    
    56   28   29 2    
    57   28   30 1    
    58   30   31 1    
    59   30   32 1    
    60   30  107 1    
    61   31  108 1    
    62   31  109 1    
    63   31  110 1    
    64   32   33 am   BACKBONE|DICT|INTERRES
    65   32  111 1    
    66   33   34 2    
    67   33   35 1    
    68   35   36 1    
    69   35   37 1    
    70   35  112 1    
    71   36  113 1    
    72   36  114 1    
    73   36  115 1    
    74   37   38 am   BACKBONE|DICT|INTERRES
    75   37  116 1    
    76   38   39 2    
    77   38   40 1    
    78   40   41 1    
    79   40   42 1    
    80   40  117 1    
    81   41  118 1    
    82   41  119 1    
    83   41  120 1    
    84   42   43 am   BACKBONE|DICT|INTERRES
    85   42  121 1    
    86   43   44 2    
    87   43   45 1    
    88   45   46 1    
    89   45   47 1    
    90   45  122 1    
    91   46  123 1    
    92   46  124 1    
    93   46  125 1    
    94   47   48 am   BACKBONE|DICT|INTERRES
    95   47  126 1    
    96   48   49 2    
    97   48   50 1    
    98   50   51 1    
    99   50   52 1    
   100   50  127 1    
   101   51  128 1    
   102   51  129 1    
   103   51  130 1    
   104   52   53 am   BACKBONE|DICT|INTERRES
   105   52  131 1    
   106   53   54 2    
   107   53   55 1    
   108   55   56 1    
   109   55   59 1    
   110   55  132 1    
   111   56   57 1    
   112   56  133 1    
   113   56  134 1    
   114   57   58 1    
   115   58  135 1    
   116   58  136 1    
   117   59   60 am   BACKBONE|DICT|INTERRES
   118   59  137 1    
   119   60   61 2    
   120   60   62 1    
   121   62   63 1    
   122   62   64 1    
   123   62  138 1    
   124   63  139 1    
   125   63  140 1    
   126   63  141 1    
   127   64   65 am   BACKBONE|DICT|INTERRES
   128   64  142 1    
   129   65   66 2    
   130   65   67 1    
   131   67   68 1    
   132   67   69 1    
   133   67  143 1    
   134   68  144 1    
   135   68  145 1    
   136   68  146 1    
   137   69   70 am   BACKBONE|DICT|INTERRES
   138   69  147 1    
   139   70   71 2    
   140   70   72 1    
   141   72   73 1    
   142   72   74 1    
   143   72  148 1    
   144   73  149 1    
   145   73  150 1    
   146   73  151 1    
   147   74   75 am   BACKBONE|DICT|INTERRES
   148   74  152 1    
   149   75   76 2    
   150   75   77 1    
   151   77   78 1    
   152   77   79 1    
   153   77  153 1    
   154   78  154 1    
   155   78  155 1    
   156   78  156 1    
   157   79   80 am   BACKBONE|DICT|INTERRES
   158   79  157 1    
   159   80   81 2    
@<TRIPOS>SUBSTRUCTURE
     1 UNK         1 GROUP             0       ****    0 ROOT    
