@<TRIPOS>MOLECULE
3R207
157   159    1
SMALL
USER_CHARGES


@<TRIPOS>ATOM
      1 CA        -46.8852  -27.7672   10.8811 C.3       0 UNK        -0.1975 
      2 C         -47.4697  -28.4660    9.6633 C.2       0 UNK         0.4852 
      3 O         -47.0050  -29.5424    9.2859 O.2       0 UNK        -0.5216 
      4 N         -48.4764  -27.8539    9.0278 N.am      1 UNK        -0.4461 
      5 CA        -49.1629  -28.3352    7.8236 C.3       1 UNK         0.0864 
      6 C6        -50.6136  -27.7812    7.7816 C.3       14 UNK        -0.0898 
      7 S7        -51.7916  -28.9216    6.9929 S.3       14 UNK        -0.2598 
      8 C8        -53.0153  -27.7485    6.3139 C.3       14 UNK         0.0286 
      9 C9        -53.6349  -26.8144    7.3543 C.ar      14 UNK        -0.0844 
     10 C10       -53.7950  -25.4581    7.0546 C.ar      14 UNK        -0.0881 
     11 C11       -54.3817  -24.5875    7.9770 C.ar      14 UNK        -0.0643 
     12 C12       -54.8103  -25.0828    9.2117 C.ar      14 UNK        -0.0930 
     13 C13       -54.6685  -26.4376    9.5302 C.ar      14 UNK        -0.0827 
     14 C14       -54.0780  -27.2955    8.5923 C.ar      14 UNK        -0.1249 
     15 C15       -55.1451  -26.9190   10.9021 C.3       14 UNK         0.0141 
     16 S16       -55.7153  -28.6527   10.9723 S.3       14 UNK        -0.2313 
     17 C17       -54.1657  -29.5492   11.3348 C.3       14 UNK        -0.0915 
     18 CA        -54.3018  -30.5318   12.5309 C.3       13 UNK         0.0968 
     19 C         -53.0409  -31.4294   12.7054 C.2       13 UNK         0.5732 
     20 N         -52.5866  -31.7241   13.9186 N.am      13 UNK        -0.7310 
     21 O         -52.4680  -31.8904   11.7213 O.2       13 UNK        -0.5035 
     22 N         -54.6784  -29.8422   13.7757 N.am      13 UNK        -0.4233 
     23 C         -55.7104  -30.1822   14.5579 C.2       13 UNK         0.4989 
     24 O         -56.5262  -31.0609   14.2707 O.2       13 UNK        -0.4996 
     25 CA        -55.8517  -29.4201   15.8935 C.3       12 UNK         0.0216 
     26 CB        -56.7818  -30.1373   16.8951 C.3       12 UNK        -0.1964 
     27 N         -54.5709  -29.0963   16.5362 N.am      12 UNK        -0.4276 
     28 C         -53.5868  -29.9459   16.8772 C.2       12 UNK         0.5020 
     29 O         -53.6380  -31.1595   16.6718 O.2       12 UNK        -0.5489 
     30 CA        -52.3144  -29.3512   17.5138 C.3       11 UNK         0.0294 
     31 CB        -51.0439  -29.9682   16.9001 C.3       11 UNK        -0.2019 
     32 N         -52.2555  -27.9009   17.3342 N.am      11 UNK        -0.4493 
     33 C         -52.4674  -26.9806   18.2848 C.2       11 UNK         0.4932 
     34 O         -52.6554  -27.2501   19.4709 O.2       11 UNK        -0.5029 
     35 CA        -52.5050  -25.5060   17.8339 C.3       10 UNK         0.0280 
     36 CB        -51.1619  -24.8212   18.1309 C.3       10 UNK        -0.1976 
     37 N         -52.8322  -25.3402   16.4127 N.am      10 UNK        -0.4242 
     38 C         -54.0146  -25.6661   15.8638 C.2       10 UNK         0.5072 
     39 O         -54.9772  -26.0693   16.5164 O.2       10 UNK        -0.5224 
     40 CA        -54.1237  -25.6303   14.3284 C.3       9 UNK         0.0343 
     41 CB        -54.7315  -24.3006   13.8590 C.3       9 UNK        -0.2003 
     42 N         -52.8414  -25.8592   13.6540 N.am      9 UNK        -0.4272 
     43 C         -52.1243  -26.9901   13.7606 C.2       9 UNK         0.4988 
     44 O         -52.5406  -27.9877   14.3492 O.2       9 UNK        -0.5108 
     45 CA        -50.7049  -27.0308   13.1621 C.3       8 UNK         0.0248 
     46 CB        -50.6858  -27.9307   11.9202 C.3       8 UNK        -0.2001 
     47 N         -50.1403  -25.7218   12.8204 N.am      8 UNK        -0.4140 
     48 C         -49.9340  -24.7105   13.6804 C.2       8 UNK         0.5028 
     49 O         -50.1243  -24.7975   14.8941 O.2       8 UNK        -0.5428 
     50 CA        -49.5323  -23.3501   13.0744 C.3       7 UNK         0.0264 
     51 CB        -48.0045  -23.1928   13.0965 C.3       7 UNK        -0.1988 
     52 N         -50.0159  -23.1519   11.7014 N.am      7 UNK        -0.4454 
     53 C         -51.2952  -23.2597   11.3045 C.2       7 UNK         0.5027 
     54 O         -52.2300  -23.3974   12.0931 O.2       7 UNK        -0.5083 
     55 CA        -51.5967  -23.3033    9.7910 C.3       6 UNK         0.0844 
     56 C56       -52.5569  -22.1589    9.3815 C.3       14 UNK        -0.0967 
     57 S57       -52.9955  -22.2024    7.6084 S.3       14 UNK        -0.2604 
     58 C58       -54.5705  -23.1169    7.6284 C.3       14 UNK         0.0134 
     59 N         -50.4149  -23.3724    8.9260 N.am      6 UNK        -0.4116 
     60 C         -49.5177  -24.3644    8.8795 C.2       5 UNK         0.5034 
     61 O         -49.5002  -25.3152    9.6667 O.2       5 UNK        -0.5045 
     62 CA        -48.4506  -24.2896    7.7726 C.3       5 UNK         0.0224 
     63 CB        -48.5986  -23.0820    6.8179 C.3       5 UNK        -0.1978 
     64 N         -47.0885  -24.3453    8.3090 N.am      5 UNK        -0.4737 
     65 C         -46.5275  -23.5009    9.1882 C.2       4 UNK         0.5027 
     66 O         -47.1377  -22.5958    9.7585 O.2       4 UNK        -0.5211 
     67 CA        -45.0239  -23.6857    9.4673 C.3       4 UNK         0.0297 
     68 CB        -44.7982  -24.3020   10.8564 C.3       4 UNK        -0.1993 
     69 N         -44.3533  -24.5110    8.4565 N.am      4 UNK        -0.4486 
     70 C         -44.0031  -24.0994    7.2307 C.2       3 UNK         0.4961 
     71 O         -44.1502  -22.9455    6.8277 O.2       3 UNK        -0.5105 
     72 CA        -43.3971  -25.1563    6.2873 C.3       3 UNK         0.0299 
     73 CB        -42.1656  -25.8490    6.9085 C.3       3 UNK        -0.1972 
     74 N         -44.3712  -26.1389    5.7859 N.am      3 UNK        -0.4305 
     75 C         -45.0858  -27.0263    6.4918 C.2       2 UNK         0.5006 
     76 O         -45.0349  -27.1290    7.7206 O.2       2 UNK        -0.5106 
     77 CA        -45.9957  -27.9704    5.6899 C.3       2 UNK         0.0296 
     78 CB        -45.1958  -29.1825    5.1859 C.3       2 UNK        -0.2002 
     79 N         -47.0632  -28.4424    6.5685 N.am      2 UNK        -0.4032 
     80 C         -48.3269  -28.0044    6.5630 C.2       1 UNK         0.5000 
     81 O         -48.7999  -27.3134    5.6582 O.2       1 UNK        -0.5238 
     82 H82       -45.8097  -27.6455   10.7557 H         1 UNK         0.0889 
     83 H83       -47.0593  -28.3631   11.7765 H         1 UNK         0.0889 
     84 H84       -47.3258  -26.7819   11.0346 H         1 UNK         0.0889 
     85 H85       -48.8009  -26.9495    9.3663 H         1 UNK         0.3028 
     86 H86       -49.2172  -29.4243    7.8903 H         1 UNK         0.0864 
     87 H87       -50.9889  -27.6307    8.7941 H         1 UNK         0.0720 
     88 H88       -50.6647  -26.7970    7.3130 H         1 UNK         0.0720 
     89 H89       -53.8150  -28.3158    5.8364 H         1 UNK         0.0814 
     90 H90       -52.5315  -27.1738    5.5223 H         1 UNK         0.0814 
     91 H91       -53.4668  -25.0729    6.0987 H         1 UNK         0.1469 
     92 H92       -55.2593  -24.4086    9.9283 H         1 UNK         0.1381 
     93 H93       -53.9572  -28.3443    8.8174 H         1 UNK         0.1206 
     94 H94       -54.3441  -26.7656   11.6210 H         1 UNK         0.0813 
     95 H95       -55.9753  -26.2951   11.2363 H         1 UNK         0.0813 
     96 H96       -53.8887  -30.0885   10.4275 H         1 UNK         0.0638 
     97 H97       -53.3629  -28.8380   11.5211 H         1 UNK         0.0638 
     98 H98       -55.0891  -31.2361   12.2586 H         1 UNK         0.0568 
     99 H99       -53.0685  -31.4144   14.7550 H         1 UNK         0.3450 
    100 H100      -51.7749  -32.3139   14.0016 H         1 UNK         0.3450 
    101 H101      -54.0135  -29.1449   14.1004 H         1 UNK         0.2987 
    102 H102      -56.3139  -28.4644   15.6419 H         1 UNK         0.0766 
    103 H103      -56.4025  -31.1248   17.1605 H         1 UNK         0.0798 
    104 H104      -56.8927  -29.5624   17.8145 H         1 UNK         0.0798 
    105 H105      -57.7806  -30.2723   16.4782 H         1 UNK         0.0798 
    106 H106      -54.4343  -28.1111   16.7324 H         1 UNK         0.3198 
    107 H107      -52.3403  -29.6034   18.5758 H         1 UNK         0.0843 
    108 H108      -51.0095  -31.0458   17.0660 H         1 UNK         0.0831 
    109 H109      -50.1432  -29.5461   17.3456 H         1 UNK         0.0831 
    110 H110      -50.9951  -29.8025   15.8229 H         1 UNK         0.0831 
    111 H111      -52.1424  -27.5940   16.3748 H         1 UNK         0.3133 
    112 H112      -53.2804  -25.0034   18.4158 H         1 UNK         0.0566 
    113 H113      -51.1839  -23.7658   17.8588 H         1 UNK         0.0814 
    114 H114      -50.9218  -24.8770   19.1936 H         1 UNK         0.0814 
    115 H115      -50.3410  -25.2903   17.5868 H         1 UNK         0.0814 
    116 H116      -52.0735  -25.0443   15.8066 H         1 UNK         0.3091 
    117 H117      -54.8004  -26.4353   14.0342 H         1 UNK         0.0702 
    118 H118      -54.8675  -24.2851   12.7775 H         1 UNK         0.0785 
    119 H119      -54.1008  -23.4524   14.1284 H         1 UNK         0.0785 
    120 H120      -55.7105  -24.1371   14.3115 H         1 UNK         0.0785 
    121 H121      -52.4574  -25.0699   13.1425 H         1 UNK         0.2998 
    122 H122      -50.0562  -27.4775   13.9182 H         1 UNK         0.0697 
    123 H123      -51.3002  -27.5214   11.1178 H         1 UNK         0.0825 
    124 H124      -51.0606  -28.9287   12.1515 H         1 UNK         0.0825 
    125 H125      -49.6743  -28.0567   11.5440 H         1 UNK         0.0825 
    126 H126      -49.9612  -25.5496   11.8380 H         1 UNK         0.3029 
    127 H127      -49.9748  -22.5698   13.6968 H         1 UNK         0.0897 
    128 H128      -47.6987  -22.2129   12.7291 H         1 UNK         0.0792 
    129 H129      -47.6149  -23.2955   14.1104 H         1 UNK         0.0792 
    130 H130      -47.5166  -23.9487   12.4800 H         1 UNK         0.0792 
    131 H131      -49.3064  -23.0407   10.9882 H         1 UNK         0.3086 
    132 H132      -52.1253  -24.2455    9.6389 H         1 UNK         0.0583 
    133 H133      -53.4731  -22.1927    9.9748 H         1 UNK         0.1020 
    134 H134      -52.1012  -21.1892    9.5910 H         1 UNK         0.1020 
    135 H135      -55.2630  -22.6349    8.3203 H         1 UNK         0.0694 
    136 H136      -55.0292  -23.0426    6.6413 H         1 UNK         0.0694 
    137 H137      -50.3354  -22.6308    8.2459 H         1 UNK         0.2989 
    138 H138      -48.5859  -25.1874    7.1730 H         1 UNK         0.1055 
    139 H139      -47.8488  -23.1200    6.0273 H         1 UNK         0.0806 
    140 H140      -48.4778  -22.1284    7.3337 H         1 UNK         0.0806 
    141 H141      -49.5725  -23.0790    6.3257 H         1 UNK         0.0806 
    142 H142      -46.4999  -25.0830    7.9482 H         1 UNK         0.3061 
    143 H143      -44.5683  -22.6931    9.4590 H         1 UNK         0.0734 
    144 H144      -45.2231  -23.6685   11.6358 H         1 UNK         0.0832 
    145 H145      -45.2606  -25.2842   10.9442 H         1 UNK         0.0832 
    146 H146      -43.7357  -24.4096   11.0751 H         1 UNK         0.0832 
    147 H147      -44.2787  -25.5061    8.6439 H         1 UNK         0.3156 
    148 H148      -43.0450  -24.6159    5.4069 H         1 UNK         0.0589 
    149 H149      -42.4226  -26.4686    7.7679 H         1 UNK         0.0808 
    150 H150      -41.6659  -26.4874    6.1799 H         1 UNK         0.0808 
    151 H151      -41.4346  -25.1133    7.2468 H         1 UNK         0.0808 
    152 H152      -44.5062  -26.1241    4.7838 H         1 UNK         0.3098 
    153 H153      -46.4075  -27.4306    4.8346 H         1 UNK         0.0720 
    154 H154      -45.8324  -29.8722    4.6312 H         1 UNK         0.0791 
    155 H155      -44.7404  -29.7364    6.0082 H         1 UNK         0.0791 
    156 H156      -44.3926  -28.8734    4.5156 H         1 UNK         0.0791 
    157 H157      -46.7552  -28.9286    7.4068 H         1 UNK         0.3028 
@<TRIPOS>BOND
     1    1    2 1    
     2    1   82 1    
     3    1   83 1    
     4    1   84 1    
     5    2    3 2    
     6    2    4 am   BACKBONE|DICT|INTERRES
     7    4    5 1    
     8    4   85 1    
     9    5    6 1    
    10    5   80 1    
    11    5   86 1    
    12    6    7 1    
    13    6   87 1    
    14    6   88 1    
    15    7    8 1    
    16    8    9 1    
    17    8   89 1    
    18    8   90 1    
    19    9   10 ar   
    20    9   14 ar   
    21   10   11 ar   
    22   10   91 1    
    23   11   12 ar   
    24   11   58 1    
    25   12   13 ar   
    26   12   92 1    
    27   13   14 ar   
    28   13   15 1    
    29   14   93 1    
    30   15   16 1    
    31   15   94 1    
    32   15   95 1    
    33   16   17 1    
    34   17   18 1    
    35   17   96 1    
    36   17   97 1    
    37   18   19 1    
    38   18   22 1    
    39   18   98 1    
    40   19   20 am   BACKBONE|DICT|INTERRES
    41   19   21 2    
    42   20   99 1    
    43   20  100 1    
    44   22   23 am   BACKBONE|DICT|INTERRES
    45   22  101 1    
    46   23   24 2    
    47   23   25 1    
    48   25   26 1    
    49   25   27 1    
    50   25  102 1    
    51   26  103 1    
    52   26  104 1    
    53   26  105 1    
    54   27   28 am   BACKBONE|DICT|INTERRES
    55   27  106 1    
    56   28   29 2    
    57   28   30 1    
    58   30   31 1    
    59   30   32 1    
    60   30  107 1    
    61   31  108 1    
    62   31  109 1    
    63   31  110 1    
    64   32   33 am   BACKBONE|DICT|INTERRES
    65   32  111 1    
    66   33   34 2    
    67   33   35 1    
    68   35   36 1    
    69   35   37 1    
    70   35  112 1    
    71   36  113 1    
    72   36  114 1    
    73   36  115 1    
    74   37   38 am   BACKBONE|DICT|INTERRES
    75   37  116 1    
    76   38   39 2    
    77   38   40 1    
    78   40   41 1    
    79   40   42 1    
    80   40  117 1    
    81   41  118 1    
    82   41  119 1    
    83   41  120 1    
    84   42   43 am   BACKBONE|DICT|INTERRES
    85   42  121 1    
    86   43   44 2    
    87   43   45 1    
    88   45   46 1    
    89   45   47 1    
    90   45  122 1    
    91   46  123 1    
    92   46  124 1    
    93   46  125 1    
    94   47   48 am   BACKBONE|DICT|INTERRES
    95   47  126 1    
    96   48   49 2    
    97   48   50 1    
    98   50   51 1    
    99   50   52 1    
   100   50  127 1    
   101   51  128 1    
   102   51  129 1    
   103   51  130 1    
   104   52   53 am   BACKBONE|DICT|INTERRES
   105   52  131 1    
   106   53   54 2    
   107   53   55 1    
   108   55   56 1    
   109   55   59 1    
   110   55  132 1    
   111   56   57 1    
   112   56  133 1    
   113   56  134 1    
   114   57   58 1    
   115   58  135 1    
   116   58  136 1    
   117   59   60 am   BACKBONE|DICT|INTERRES
   118   59  137 1    
   119   60   61 2    
   120   60   62 1    
   121   62   63 1    
   122   62   64 1    
   123   62  138 1    
   124   63  139 1    
   125   63  140 1    
   126   63  141 1    
   127   64   65 am   BACKBONE|DICT|INTERRES
   128   64  142 1    
   129   65   66 2    
   130   65   67 1    
   131   67   68 1    
   132   67   69 1    
   133   67  143 1    
   134   68  144 1    
   135   68  145 1    
   136   68  146 1    
   137   69   70 am   BACKBONE|DICT|INTERRES
   138   69  147 1    
   139   70   71 2    
   140   70   72 1    
   141   72   73 1    
   142   72   74 1    
   143   72  148 1    
   144   73  149 1    
   145   73  150 1    
   146   73  151 1    
   147   74   75 am   BACKBONE|DICT|INTERRES
   148   74  152 1    
   149   75   76 2    
   150   75   77 1    
   151   77   78 1    
   152   77   79 1    
   153   77  153 1    
   154   78  154 1    
   155   78  155 1    
   156   78  156 1    
   157   79   80 am   BACKBONE|DICT|INTERRES
   158   79  157 1    
   159   80   81 2    
@<TRIPOS>SUBSTRUCTURE
     1 UNK         1 GROUP             0       ****    0 ROOT    
