@<TRIPOS>MOLECULE
3R207
157   159    1
SMALL
USER_CHARGES


@<TRIPOS>ATOM
      1 CA        -47.1371  -29.9075   11.2958 C.3       0 UNK        -0.1975 
      2 C         -47.2045  -29.5868    9.8098 C.2       0 UNK         0.4852 
      3 O         -46.1645  -29.5036    9.1550 O.2       0 UNK        -0.5216 
      4 N         -48.4164  -29.3942    9.2698 N.am      1 UNK        -0.4461 
      5 CA        -48.6706  -29.0788    7.8597 C.3       1 UNK         0.0864 
      6 C6        -50.1850  -29.0571    7.5526 C.3       14 UNK        -0.0898 
      7 S7        -50.5381  -29.1872    5.7664 S.3       14 UNK        -0.2598 
      8 C8        -52.3003  -29.6494    5.7820 C.3       14 UNK         0.0286 
      9 C9        -53.1415  -28.6130    6.5114 C.ar      14 UNK        -0.0844 
     10 C10       -53.4444  -27.3943    5.8992 C.ar      14 UNK        -0.0881 
     11 C11       -54.1692  -26.4168    6.5866 C.ar      14 UNK        -0.0643 
     12 C12       -54.6166  -26.6770    7.8876 C.ar      14 UNK        -0.0930 
     13 C13       -54.2997  -27.8852    8.5153 C.ar      14 UNK        -0.0827 
     14 C14       -53.5763  -28.8550    7.8170 C.ar      14 UNK        -0.1249 
     15 C15       -54.6739  -28.1257    9.9679 C.3       14 UNK         0.0141 
     16 S16       -56.3666  -28.7630   10.1426 S.3       14 UNK        -0.2313 
     17 C17       -56.2717  -29.4225   11.8386 C.3       14 UNK        -0.0915 
     18 CA        -56.5035  -28.3292   12.9217 C.3       13 UNK         0.0968 
     19 C         -57.9437  -28.3911   13.5031 C.2       13 UNK         0.5732 
     20 N         -58.9065  -27.7698   12.8361 N.am      13 UNK        -0.7310 
     21 O         -58.2018  -29.0311   14.5214 O.2       13 UNK        -0.5035 
     22 N         -55.4471  -28.3828   13.9405 N.am      13 UNK        -0.4233 
     23 C         -55.2626  -27.5143   14.9398 C.2       13 UNK         0.4989 
     24 O         -55.9667  -26.5228   15.1300 O.2       13 UNK        -0.4996 
     25 CA        -54.0617  -27.7684   15.8685 C.3       12 UNK         0.0216 
     26 CB        -54.3718  -28.8563   16.9148 C.3       12 UNK        -0.1964 
     27 N         -52.8022  -28.0315   15.1575 N.am      12 UNK        -0.4276 
     28 C         -52.4469  -29.0846   14.4062 C.2       12 UNK         0.5020 
     29 O         -53.1748  -30.0580   14.2056 O.2       12 UNK        -0.5489 
     30 CA        -51.0686  -29.0340   13.7271 C.3       11 UNK         0.0294 
     31 CB        -51.2086  -28.4290   12.3213 C.3       11 UNK        -0.2019 
     32 N         -50.0976  -28.2482   14.4976 N.am      11 UNK        -0.4493 
     33 C         -49.0137  -28.7515   15.1061 C.2       11 UNK         0.4932 
     34 O         -48.6801  -29.9349   15.0387 O.2       11 UNK        -0.5029 
     35 CA        -48.1370  -27.7845   15.9298 C.3       10 UNK         0.0280 
     36 CB        -46.9306  -27.3081   15.1038 C.3       10 UNK        -0.1976 
     37 N         -48.8567  -26.6164   16.4441 N.am      10 UNK        -0.4242 
     38 C         -49.8011  -26.6517   17.3950 C.2       10 UNK         0.5072 
     39 O         -50.1079  -27.6704   18.0150 O.2       10 UNK        -0.5224 
     40 CA        -50.5568  -25.3387   17.6933 C.3       9 UNK         0.0343 
     41 CB        -49.9706  -24.6601   18.9421 C.3       9 UNK        -0.2003 
     42 N         -50.6132  -24.3579   16.5962 N.am      9 UNK        -0.4272 
     43 C         -51.0465  -24.5994   15.3516 C.2       9 UNK         0.4988 
     44 O         -51.3408  -25.7256   14.9435 O.2       9 UNK        -0.5108 
     45 CA        -51.1160  -23.4029   14.3900 C.3       8 UNK         0.0248 
     46 CB        -49.7060  -22.9903   13.9442 C.3       8 UNK        -0.2001 
     47 N         -51.9007  -23.7771   13.2128 N.am      8 UNK        -0.4140 
     48 C         -53.2363  -23.7676   13.1603 C.2       8 UNK         0.5028 
     49 O         -53.9418  -23.1702   13.9759 O.2       8 UNK        -0.5428 
     50 CA        -53.8894  -24.5968   12.0340 C.3       7 UNK         0.0264 
     51 CB        -55.4239  -24.4592   12.0069 C.3       7 UNK        -0.1988 
     52 N         -53.3733  -24.3201   10.6890 N.am      7 UNK        -0.4454 
     53 C         -52.1925  -24.7196   10.1946 C.2       7 UNK         0.5027 
     54 O         -51.3268  -25.2573   10.8870 O.2       7 UNK        -0.5083 
     55 CA        -51.9566  -24.5776    8.6738 C.3       6 UNK         0.0844 
     56 C56       -52.9757  -23.6650    7.9222 C.3       14 UNK        -0.0967 
     57 S57       -52.9679  -23.9634    6.1226 S.3       14 UNK        -0.2604 
     58 C58       -54.4150  -25.0626    5.9370 C.3       14 UNK         0.0134 
     59 N         -50.5479  -24.2911    8.3907 N.am      6 UNK        -0.4116 
     60 C         -49.9037  -23.1358    8.6020 C.2       5 UNK         0.5034 
     61 O         -50.4364  -22.1003    9.0062 O.2       5 UNK        -0.5045 
     62 CA        -48.3897  -23.1823    8.3361 C.3       5 UNK         0.0224 
     63 CB        -47.6967  -21.8046    8.4160 C.3       5 UNK        -0.1978 
     64 N         -47.7558  -24.1708    9.2138 N.am      5 UNK        -0.4737 
     65 C         -47.6287  -24.1244   10.5489 C.2       4 UNK         0.5027 
     66 O         -47.8971  -23.1442   11.2405 O.2       4 UNK        -0.5211 
     67 CA        -47.1083  -25.4002   11.2312 C.3       4 UNK         0.0297 
     68 CB        -48.2787  -26.3343   11.5790 C.3       4 UNK        -0.1993 
     69 N         -46.1507  -26.1142   10.3852 N.am      4 UNK        -0.4486 
     70 C         -44.8567  -25.7854   10.2644 C.2       3 UNK         0.4961 
     71 O         -44.3035  -24.9142   10.9359 O.2       3 UNK        -0.5105 
     72 CA        -44.0406  -26.5483    9.2068 C.3       3 UNK         0.0299 
     73 CB        -43.3365  -27.7611    9.8365 C.3       3 UNK        -0.1972 
     74 N         -44.8656  -26.9804    8.0736 N.am      3 UNK        -0.4305 
     75 C         -45.2779  -26.1550    7.0971 C.2       2 UNK         0.5006 
     76 O         -44.9466  -24.9717    7.0217 O.2       2 UNK        -0.5106 
     77 CA        -46.2321  -26.7212    6.0283 C.3       2 UNK         0.0296 
     78 CB        -45.4450  -27.1544    4.7809 C.3       2 UNK        -0.2002 
     79 N         -47.0535  -27.8405    6.4943 N.am      2 UNK        -0.4032 
     80 C         -47.9850  -27.7578    7.4534 C.2       1 UNK         0.5000 
     81 O         -48.2774  -26.7114    8.0392 O.2       1 UNK        -0.5238 
     82 H82       -46.7502  -30.9155   11.4419 H         1 UNK         0.0889 
     83 H83       -48.1139  -29.8467   11.7754 H         1 UNK         0.0889 
     84 H84       -46.4669  -29.2121   11.8004 H         1 UNK         0.0889 
     85 H85       -49.2356  -29.4603    9.8550 H         1 UNK         0.3028 
     86 H86       -48.2246  -29.8931    7.2841 H         1 UNK         0.0864 
     87 H87       -50.6713  -29.9019    8.0432 H         1 UNK         0.0720 
     88 H88       -50.6583  -28.1583    7.9543 H         1 UNK         0.0720 
     89 H89       -52.4126  -30.6328    6.2414 H         1 UNK         0.0814 
     90 H90       -52.6525  -29.7500    4.7544 H         1 UNK         0.0814 
     91 H91       -53.0828  -27.1919    4.9001 H         1 UNK         0.1469 
     92 H92       -55.1743  -25.9257    8.4289 H         1 UNK         0.1381 
     93 H93       -53.3240  -29.7880    8.3023 H         1 UNK         0.1206 
     94 H94       -54.5757  -27.2016   10.5375 H         1 UNK         0.0813 
     95 H95       -53.9684  -28.8297   10.4106 H         1 UNK         0.0813 
     96 H96       -55.2992  -29.9031   11.9588 H         1 UNK         0.0638 
     97 H97       -56.9905  -30.2400   11.9247 H         1 UNK         0.0638 
     98 H98       -56.3943  -27.3444   12.4642 H         1 UNK         0.0568 
     99 H99       -59.8507  -27.8113   13.1862 H         1 UNK         0.3450 
    100 H100      -58.7094  -27.2727   11.9817 H         1 UNK         0.3450 
    101 H101      -54.8058  -29.1703   13.8955 H         1 UNK         0.2987 
    102 H102      -53.8907  -26.8378   16.4125 H         1 UNK         0.0766 
    103 H103      -55.2514  -28.5894   17.5020 H         1 UNK         0.0798 
    104 H104      -53.5422  -28.9817   17.6109 H         1 UNK         0.0798 
    105 H105      -54.5731  -29.8242   16.4552 H         1 UNK         0.0798 
    106 H106      -52.1663  -27.2343   15.1560 H         1 UNK         0.3198 
    107 H107      -50.7259  -30.0653   13.6188 H         1 UNK         0.0843 
    108 H108      -51.5746  -27.4030   12.3619 H         1 UNK         0.0831 
    109 H109      -51.9098  -29.0041   11.7160 H         1 UNK         0.0831 
    110 H110      -50.2567  -28.4244   11.7940 H         1 UNK         0.0831 
    111 H111      -50.3157  -27.2640   14.6274 H         1 UNK         0.3133 
    112 H112      -47.7571  -28.3470   16.7854 H         1 UNK         0.0566 
    113 H113      -46.2160  -26.7682   15.7254 H         1 UNK         0.0814 
    114 H114      -47.2310  -26.6464   14.2921 H         1 UNK         0.0814 
    115 H115      -46.3982  -28.1510   14.6604 H         1 UNK         0.0814 
    116 H116      -48.6645  -25.7297   16.0024 H         1 UNK         0.3091 
    117 H117      -51.5886  -25.6191   17.9150 H         1 UNK         0.0702 
    118 H118      -50.5724  -23.8049   19.2504 H         1 UNK         0.0785 
    119 H119      -48.9516  -24.3112   18.7701 H         1 UNK         0.0785 
    120 H120      -49.9403  -25.3511   19.7861 H         1 UNK         0.0785 
    121 H121      -50.3667  -23.4087   16.8391 H         1 UNK         0.2998 
    122 H122      -51.5916  -22.5621   14.8991 H         1 UNK         0.0697 
    123 H123      -49.7425  -22.2013   13.1925 H         1 UNK         0.0825 
    124 H124      -49.1564  -23.8292   13.5176 H         1 UNK         0.0825 
    125 H125      -49.1202  -22.6099   14.7815 H         1 UNK         0.0825 
    126 H126      -51.4220  -24.3231   12.5001 H         1 UNK         0.3029 
    127 H127      -53.6642  -25.6398   12.2687 H         1 UNK         0.0897 
    128 H128      -55.7323  -23.4352   11.7928 H         1 UNK         0.0792 
    129 H129      -55.8591  -24.7351   12.9686 H         1 UNK         0.0792 
    130 H130      -55.8722  -25.1096   11.2558 H         1 UNK         0.0792 
    131 H131      -54.0053  -23.8278   10.0762 H         1 UNK         0.3086 
    132 H132      -52.0952  -25.5924    8.3015 H         1 UNK         0.0583 
    133 H133      -53.9987  -23.8211    8.2618 H         1 UNK         0.1020 
    134 H134      -52.7715  -22.6092    8.1028 H         1 UNK         0.1020 
    135 H135      -55.3011  -24.5853    6.3585 H         1 UNK         0.0694 
    136 H136      -54.6204  -25.1983    4.8741 H         1 UNK         0.0694 
    137 H137      -49.9927  -25.0962    8.1299 H         1 UNK         0.2989 
    138 H138      -48.2620  -23.5493    7.3161 H         1 UNK         0.1055 
    139 H139      -47.8307  -21.3294    9.3879 H         1 UNK         0.0806 
    140 H140      -48.1057  -21.1243    7.6682 H         1 UNK         0.0806 
    141 H141      -46.6263  -21.8897    8.2283 H         1 UNK         0.0806 
    142 H142      -47.5864  -25.0719    8.7764 H         1 UNK         0.3061 
    143 H143      -46.6156  -25.1098   12.1617 H         1 UNK         0.0734 
    144 H144      -48.8332  -26.6376   10.6903 H         1 UNK         0.0832 
    145 H145      -47.9371  -27.2339   12.0873 H         1 UNK         0.0832 
    146 H146      -48.9892  -25.8415   12.2429 H         1 UNK         0.0832 
    147 H147      -46.5241  -26.8211    9.7682 H         1 UNK         0.3156 
    148 H148      -43.2673  -25.8733    8.8334 H         1 UNK         0.0589 
    149 H149      -44.0442  -28.4556   10.2893 H         1 UNK         0.0808 
    150 H150      -42.6497  -27.4440   10.6224 H         1 UNK         0.0808 
    151 H151      -42.7517  -28.3100    9.0982 H         1 UNK         0.0808 
    152 H152      -45.1974  -27.9394    8.0927 H         1 UNK         0.3098 
    153 H153      -46.9094  -25.9143    5.7400 H         1 UNK         0.0720 
    154 H154      -46.1129  -27.4717    3.9797 H         1 UNK         0.0791 
    155 H155      -44.7638  -27.9782    4.9984 H         1 UNK         0.0791 
    156 H156      -44.8454  -26.3300    4.3920 H         1 UNK         0.0791 
    157 H157      -46.8664  -28.7408    6.0763 H         1 UNK         0.3028 
@<TRIPOS>BOND
     1    1    2 1    
     2    1   82 1    
     3    1   83 1    
     4    1   84 1    
     5    2    3 2    
     6    2    4 am   BACKBONE|DICT|INTERRES
     7    4    5 1    
     8    4   85 1    
     9    5    6 1    
    10    5   80 1    
    11    5   86 1    
    12    6    7 1    
    13    6   87 1    
    14    6   88 1    
    15    7    8 1    
    16    8    9 1    
    17    8   89 1    
    18    8   90 1    
    19    9   10 ar   
    20    9   14 ar   
    21   10   11 ar   
    22   10   91 1    
    23   11   12 ar   
    24   11   58 1    
    25   12   13 ar   
    26   12   92 1    
    27   13   14 ar   
    28   13   15 1    
    29   14   93 1    
    30   15   16 1    
    31   15   94 1    
    32   15   95 1    
    33   16   17 1    
    34   17   18 1    
    35   17   96 1    
    36   17   97 1    
    37   18   19 1    
    38   18   22 1    
    39   18   98 1    
    40   19   20 am   BACKBONE|DICT|INTERRES
    41   19   21 2    
    42   20   99 1    
    43   20  100 1    
    44   22   23 am   BACKBONE|DICT|INTERRES
    45   22  101 1    
    46   23   24 2    
    47   23   25 1    
    48   25   26 1    
    49   25   27 1    
    50   25  102 1    
    51   26  103 1    
    52   26  104 1    
    53   26  105 1    
    54   27   28 am   BACKBONE|DICT|INTERRES
    55   27  106 1    
    56   28   29 2    
    57   28   30 1    
    58   30   31 1    
    59   30   32 1    
    60   30  107 1    
    61   31  108 1    
    62   31  109 1    
    63   31  110 1    
    64   32   33 am   BACKBONE|DICT|INTERRES
    65   32  111 1    
    66   33   34 2    
    67   33   35 1    
    68   35   36 1    
    69   35   37 1    
    70   35  112 1    
    71   36  113 1    
    72   36  114 1    
    73   36  115 1    
    74   37   38 am   BACKBONE|DICT|INTERRES
    75   37  116 1    
    76   38   39 2    
    77   38   40 1    
    78   40   41 1    
    79   40   42 1    
    80   40  117 1    
    81   41  118 1    
    82   41  119 1    
    83   41  120 1    
    84   42   43 am   BACKBONE|DICT|INTERRES
    85   42  121 1    
    86   43   44 2    
    87   43   45 1    
    88   45   46 1    
    89   45   47 1    
    90   45  122 1    
    91   46  123 1    
    92   46  124 1    
    93   46  125 1    
    94   47   48 am   BACKBONE|DICT|INTERRES
    95   47  126 1    
    96   48   49 2    
    97   48   50 1    
    98   50   51 1    
    99   50   52 1    
   100   50  127 1    
   101   51  128 1    
   102   51  129 1    
   103   51  130 1    
   104   52   53 am   BACKBONE|DICT|INTERRES
   105   52  131 1    
   106   53   54 2    
   107   53   55 1    
   108   55   56 1    
   109   55   59 1    
   110   55  132 1    
   111   56   57 1    
   112   56  133 1    
   113   56  134 1    
   114   57   58 1    
   115   58  135 1    
   116   58  136 1    
   117   59   60 am   BACKBONE|DICT|INTERRES
   118   59  137 1    
   119   60   61 2    
   120   60   62 1    
   121   62   63 1    
   122   62   64 1    
   123   62  138 1    
   124   63  139 1    
   125   63  140 1    
   126   63  141 1    
   127   64   65 am   BACKBONE|DICT|INTERRES
   128   64  142 1    
   129   65   66 2    
   130   65   67 1    
   131   67   68 1    
   132   67   69 1    
   133   67  143 1    
   134   68  144 1    
   135   68  145 1    
   136   68  146 1    
   137   69   70 am   BACKBONE|DICT|INTERRES
   138   69  147 1    
   139   70   71 2    
   140   70   72 1    
   141   72   73 1    
   142   72   74 1    
   143   72  148 1    
   144   73  149 1    
   145   73  150 1    
   146   73  151 1    
   147   74   75 am   BACKBONE|DICT|INTERRES
   148   74  152 1    
   149   75   76 2    
   150   75   77 1    
   151   77   78 1    
   152   77   79 1    
   153   77  153 1    
   154   78  154 1    
   155   78  155 1    
   156   78  156 1    
   157   79   80 am   BACKBONE|DICT|INTERRES
   158   79  157 1    
   159   80   81 2    
@<TRIPOS>SUBSTRUCTURE
     1 UNK         1 GROUP             0       ****    0 ROOT    
