@<TRIPOS>MOLECULE
3R207
157   159    1
SMALL
USER_CHARGES


@<TRIPOS>ATOM
      1 CA        -46.2674  -29.5782   12.7801 C.3       0 UNK        -0.1975 
      2 C         -46.3945  -29.5397   11.2645 C.2       0 UNK         0.4852 
      3 O         -45.4647  -29.9368   10.5607 O.2       0 UNK        -0.5216 
      4 N         -47.5394  -29.0665   10.7577 N.am      1 UNK        -0.4461 
      5 CA        -47.8235  -28.8844    9.3320 C.3       1 UNK         0.0864 
      6 C6        -49.3187  -28.5429    9.1188 C.3       14 UNK        -0.0898 
      7 S7        -49.8416  -28.4830    7.3739 S.3       14 UNK        -0.2598 
      8 C8        -51.2539  -29.6343    7.3628 C.3       14 UNK         0.0286 
      9 C9        -52.5262  -29.0434    7.9657 C.ar      14 UNK        -0.0844 
     10 C10       -53.0846  -27.8749    7.4360 C.ar      14 UNK        -0.0881 
     11 C11       -54.3121  -27.3867    7.9042 C.ar      14 UNK        -0.0643 
     12 C12       -54.9852  -28.0970    8.9049 C.ar      14 UNK        -0.0930 
     13 C13       -54.4435  -29.2693    9.4434 C.ar      14 UNK        -0.0827 
     14 C14       -53.2044  -29.7250    8.9811 C.ar      14 UNK        -0.1249 
     15 C15       -55.2358  -30.0968   10.4517 C.3       14 UNK         0.0141 
     16 S16       -55.0991  -29.4743   12.1572 S.3       14 UNK        -0.2313 
     17 C17       -56.3470  -28.1367   12.1576 C.3       14 UNK        -0.0915 
     18 CA        -56.7484  -27.6559   13.5778 C.3       13 UNK         0.0968 
     19 C         -57.6233  -28.6990   14.3362 C.2       13 UNK         0.5732 
     20 N         -57.2034  -29.2308   15.4792 N.am      13 UNK        -0.7310 
     21 O         -58.7187  -29.0209   13.8816 O.2       13 UNK        -0.5035 
     22 N         -55.5745  -27.1789   14.3167 N.am      13 UNK        -0.4233 
     23 C         -55.5876  -26.3468   15.3625 C.2       13 UNK         0.4989 
     24 O         -56.6017  -25.7792   15.7722 O.2       13 UNK        -0.4996 
     25 CA        -54.2314  -26.1202   16.0657 C.3       12 UNK         0.0216 
     26 CB        -54.3964  -25.6599   17.5297 C.3       12 UNK        -0.1964 
     27 N         -53.3083  -27.2677   15.9911 N.am      12 UNK        -0.4276 
     28 C         -53.5407  -28.5157   16.4294 C.2       12 UNK         0.5020 
     29 O         -54.6285  -28.8894   16.8723 O.2       12 UNK        -0.5489 
     30 CA        -52.3926  -29.5252   16.2863 C.3       11 UNK         0.0294 
     31 CB        -52.6578  -30.8348   17.0615 C.3       11 UNK        -0.2019 
     32 N         -52.1845  -29.8004   14.8668 N.am      11 UNK        -0.4493 
     33 C         -51.1030  -30.3808   14.3296 C.2       11 UNK         0.4932 
     34 O         -50.1453  -30.8002   14.9795 O.2       11 UNK        -0.5029 
     35 CA        -51.0770  -30.4744   12.7937 C.3       10 UNK         0.0280 
     36 CB        -51.9391  -31.6455   12.2955 C.3       10 UNK        -0.1976 
     37 N         -51.5178  -29.2157   12.1836 N.am      10 UNK        -0.4242 
     38 C         -50.7672  -28.1051   12.1891 C.2       10 UNK         0.5072 
     39 O         -49.5749  -28.1010   12.5056 O.2       10 UNK        -0.5224 
     40 CA        -51.4298  -26.7903   11.7308 C.3       9 UNK         0.0343 
     41 CB        -52.9462  -26.7376   11.9904 C.3       9 UNK        -0.2003 
     42 N         -50.7796  -25.6235   12.3291 N.am      9 UNK        -0.4272 
     43 C         -50.7198  -25.3205   13.6372 C.2       9 UNK         0.4988 
     44 O         -51.2150  -26.0037   14.5361 O.2       9 UNK        -0.5108 
     45 CA        -50.0009  -24.0132   13.9941 C.3       8 UNK         0.0248 
     46 CB        -48.4992  -24.2749   14.1766 C.3       8 UNK        -0.2001 
     47 N         -50.2171  -23.0188   12.9392 N.am      8 UNK        -0.4140 
     48 C         -51.2419  -22.1554   12.9282 C.2       8 UNK         0.5028 
     49 O         -51.9850  -21.9516   13.8892 O.2       8 UNK        -0.5428 
     50 CA        -51.5104  -21.4314   11.6000 C.3       7 UNK         0.0264 
     51 CB        -50.3639  -20.4722   11.2371 C.3       7 UNK        -0.1988 
     52 N         -51.7267  -22.3777   10.5036 N.am      7 UNK        -0.4454 
     53 C         -52.7915  -23.1799   10.3564 C.2       7 UNK         0.5027 
     54 O         -53.7589  -23.1566   11.1173 O.2       7 UNK        -0.5083 
     55 CA        -52.7995  -24.1928    9.1824 C.3       6 UNK         0.0844 
     56 C56       -53.7436  -23.7211    8.0476 C.3       14 UNK        -0.0967 
     57 S57       -53.8444  -24.8876    6.6455 S.3       14 UNK        -0.2604 
     58 C58       -54.9888  -26.1676    7.2724 C.3       14 UNK         0.0134 
     59 N         -51.4666  -24.6055    8.7182 N.am      6 UNK        -0.4116 
     60 C         -50.5345  -23.8643    8.1087 C.2       5 UNK         0.5034 
     61 O         -50.6583  -22.6678    7.8409 O.2       5 UNK        -0.5045 
     62 CA        -49.2078  -24.5722    7.8083 C.3       5 UNK         0.0224 
     63 CB        -48.9708  -24.6725    6.2935 C.3       5 UNK        -0.1978 
     64 N         -48.0634  -23.9138    8.4432 N.am      5 UNK        -0.4737 
     65 C         -47.9280  -23.6486    9.7513 C.2       4 UNK         0.5027 
     66 O         -48.8004  -23.8538   10.6027 O.2       4 UNK        -0.5211 
     67 CA        -46.5425  -23.1362   10.1642 C.3       4 UNK         0.0297 
     68 CB        -46.4760  -22.6440   11.6242 C.3       4 UNK        -0.1993 
     69 N         -45.5818  -24.2146    9.9324 N.am      4 UNK        -0.4486 
     70 C         -44.2493  -24.0842    9.8825 C.2       3 UNK         0.4961 
     71 O         -43.6606  -23.0143   10.0432 O.2       3 UNK        -0.5105 
     72 CA        -43.4199  -25.3550    9.6002 C.3       3 UNK         0.0299 
     73 CB        -43.0025  -26.0226   10.9205 C.3       3 UNK        -0.1972 
     74 N         -44.1113  -26.3402    8.7645 N.am      3 UNK        -0.4305 
     75 C         -44.4995  -26.1367    7.4981 C.2       2 UNK         0.5006 
     76 O         -44.2028  -25.1319    6.8504 O.2       2 UNK        -0.5106 
     77 CA        -45.3810  -27.2117    6.8288 C.3       2 UNK         0.0296 
     78 CB        -44.5344  -28.0629    5.8676 C.3       2 UNK        -0.2002 
     79 N         -46.1496  -28.1120    7.7039 N.am      2 UNK        -0.4032 
     80 C         -46.9166  -27.7805    8.7537 C.2       1 UNK         0.5000 
     81 O         -46.9480  -26.6616    9.2670 O.2       1 UNK        -0.5238 
     82 H82       -45.4500  -28.9347   13.1041 H         1 UNK         0.0889 
     83 H83       -46.0568  -30.5938   13.1137 H         1 UNK         0.0889 
     84 H84       -47.1800  -29.2429   13.2734 H         1 UNK         0.0889 
     85 H85       -48.2481  -28.7110   11.3980 H         1 UNK         0.3028 
     86 H86       -47.6094  -29.8293    8.8281 H         1 UNK         0.0864 
     87 H87       -49.9360  -29.2752    9.6406 H         1 UNK         0.0720 
     88 H88       -49.5435  -27.5758    9.5652 H         1 UNK         0.0720 
     89 H89       -51.4633  -29.9093    6.3282 H         1 UNK         0.0814 
     90 H90       -50.9695  -30.5593    7.8671 H         1 UNK         0.0814 
     91 H91       -52.5756  -27.3707    6.6264 H         1 UNK         0.1469 
     92 H92       -55.9563  -27.7583    9.2381 H         1 UNK         0.1381 
     93 H93       -52.7963  -30.6474    9.3691 H         1 UNK         0.1206 
     94 H94       -56.2849  -30.1412   10.1558 H         1 UNK         0.0813 
     95 H95       -54.8838  -31.1294   10.4388 H         1 UNK         0.0813 
     96 H96       -55.9412  -27.2939   11.5972 H         1 UNK         0.0638 
     97 H97       -57.2285  -28.4637   11.6033 H         1 UNK         0.0638 
     98 H98       -57.4013  -26.7923   13.4390 H         1 UNK         0.0568 
     99 H99       -56.3036  -28.9859   15.8818 H         1 UNK         0.3450 
    100 H100      -57.7920  -29.8977   15.9510 H         1 UNK         0.3450 
    101 H101      -54.7038  -27.6158   14.0670 H         1 UNK         0.2987 
    102 H102      -53.7482  -25.3083   15.5197 H         1 UNK         0.0766 
    103 H103      -53.4297  -25.4735   17.9974 H         1 UNK         0.0798 
    104 H104      -54.9661  -24.7318   17.5894 H         1 UNK         0.0798 
    105 H105      -54.9218  -26.4041   18.1293 H         1 UNK         0.0798 
    106 H106      -52.4009  -27.0447   15.5816 H         1 UNK         0.3198 
    107 H107      -51.4929  -29.0568   16.6917 H         1 UNK         0.0843 
    108 H108      -52.8736  -30.6296   18.1108 H         1 UNK         0.0831 
    109 H109      -51.7950  -31.5000   17.0373 H         1 UNK         0.0831 
    110 H110      -53.5106  -31.3781   16.6527 H         1 UNK         0.0831 
    111 H111      -52.9295  -29.5107   14.2510 H         1 UNK         0.3133 
    112 H112      -50.0469  -30.6690   12.4859 H         1 UNK         0.0566 
    113 H113      -52.9908  -31.5239   12.5537 H         1 UNK         0.0814 
    114 H114      -51.6059  -32.5849   12.7388 H         1 UNK         0.0814 
    115 H115      -51.8661  -31.7599   11.2147 H         1 UNK         0.0814 
    116 H116      -52.4709  -29.1684   11.8508 H         1 UNK         0.3091 
    117 H117      -51.2788  -26.7094   10.6567 H         1 UNK         0.0702 
    118 H118      -53.3354  -25.7220   11.9373 H         1 UNK         0.0785 
    119 H119      -53.1971  -27.1240   12.9760 H         1 UNK         0.0785 
    120 H120      -53.4813  -27.3169   11.2417 H         1 UNK         0.0785 
    121 H121      -50.2477  -25.0406   11.6937 H         1 UNK         0.2998 
    122 H122      -50.4016  -23.6467   14.9416 H         1 UNK         0.0697 
    123 H123      -48.0692  -24.7652   13.3025 H         1 UNK         0.0825 
    124 H124      -48.3239  -24.9311   15.0300 H         1 UNK         0.0825 
    125 H125      -47.9513  -23.3505   14.3587 H         1 UNK         0.0825 
    126 H126      -49.6701  -23.1367   12.0889 H         1 UNK         0.3029 
    127 H127      -52.4208  -20.8403   11.7221 H         1 UNK         0.0897 
    128 H128      -50.1645  -19.7752   12.0523 H         1 UNK         0.0792 
    129 H129      -49.4360  -21.0039   11.0257 H         1 UNK         0.0792 
    130 H130      -50.6124  -19.8778   10.3576 H         1 UNK         0.0792 
    131 H131      -51.0091  -22.4249    9.7881 H         1 UNK         0.3086 
    132 H132      -53.2378  -25.1039    9.5907 H         1 UNK         0.0583 
    133 H133      -54.7506  -23.5473    8.4322 H         1 UNK         0.1020 
    134 H134      -53.4078  -22.7600    7.6536 H         1 UNK         0.1020 
    135 H135      -55.6886  -25.7129    7.9751 H         1 UNK         0.0694 
    136 H136      -55.5890  -26.5207    6.4331 H         1 UNK         0.0694 
    137 H137      -51.2563  -25.5792    8.8729 H         1 UNK         0.2989 
    138 H138      -49.2497  -25.5854    8.2095 H         1 UNK         0.1055 
    139 H139      -49.8022  -25.1812    5.8031 H         1 UNK         0.0806 
    140 H140      -48.0693  -25.2414    6.0690 H         1 UNK         0.0806 
    141 H141      -48.8728  -23.6880    5.8340 H         1 UNK         0.0806 
    142 H142      -47.2805  -23.7083    7.8400 H         1 UNK         0.3061 
    143 H143      -46.3019  -22.2971    9.5082 H         1 UNK         0.0734 
    144 H144      -47.3148  -21.9917   11.8684 H         1 UNK         0.0832 
    145 H145      -46.4829  -23.4772   12.3237 H         1 UNK         0.0832 
    146 H146      -45.5654  -22.0737   11.8063 H         1 UNK         0.0832 
    147 H147      -45.9985  -25.1292    9.7508 H         1 UNK         0.3156 
    148 H148      -42.5156  -25.0473    9.0711 H         1 UNK         0.0589 
    149 H149      -43.8667  -26.3771   11.4842 H         1 UNK         0.0808 
    150 H150      -42.3428  -26.8727   10.7456 H         1 UNK         0.0808 
    151 H151      -42.4626  -25.3214   11.5586 H         1 UNK         0.0808 
    152 H152      -44.4185  -27.1880    9.2195 H         1 UNK         0.3098 
    153 H153      -46.1169  -26.6704    6.2323 H         1 UNK         0.0720 
    154 H154      -45.1581  -28.7219    5.2631 H         1 UNK         0.0791 
    155 H155      -43.9713  -27.4341    5.1760 H         1 UNK         0.0791 
    156 H156      -43.8144  -28.6804    6.4063 H         1 UNK         0.0791 
    157 H157      -46.1798  -29.0748    7.4007 H         1 UNK         0.3028 
@<TRIPOS>BOND
     1    1    2 1    
     2    1   82 1    
     3    1   83 1    
     4    1   84 1    
     5    2    3 2    
     6    2    4 am   BACKBONE|DICT|INTERRES
     7    4    5 1    
     8    4   85 1    
     9    5    6 1    
    10    5   80 1    
    11    5   86 1    
    12    6    7 1    
    13    6   87 1    
    14    6   88 1    
    15    7    8 1    
    16    8    9 1    
    17    8   89 1    
    18    8   90 1    
    19    9   10 ar   
    20    9   14 ar   
    21   10   11 ar   
    22   10   91 1    
    23   11   12 ar   
    24   11   58 1    
    25   12   13 ar   
    26   12   92 1    
    27   13   14 ar   
    28   13   15 1    
    29   14   93 1    
    30   15   16 1    
    31   15   94 1    
    32   15   95 1    
    33   16   17 1    
    34   17   18 1    
    35   17   96 1    
    36   17   97 1    
    37   18   19 1    
    38   18   22 1    
    39   18   98 1    
    40   19   20 am   BACKBONE|DICT|INTERRES
    41   19   21 2    
    42   20   99 1    
    43   20  100 1    
    44   22   23 am   BACKBONE|DICT|INTERRES
    45   22  101 1    
    46   23   24 2    
    47   23   25 1    
    48   25   26 1    
    49   25   27 1    
    50   25  102 1    
    51   26  103 1    
    52   26  104 1    
    53   26  105 1    
    54   27   28 am   BACKBONE|DICT|INTERRES
    55   27  106 1    
    56   28   29 2    
    57   28   30 1    
    58   30   31 1    
    59   30   32 1    
    60   30  107 1    
    61   31  108 1    
    62   31  109 1    
    63   31  110 1    
    64   32   33 am   BACKBONE|DICT|INTERRES
    65   32  111 1    
    66   33   34 2    
    67   33   35 1    
    68   35   36 1    
    69   35   37 1    
    70   35  112 1    
    71   36  113 1    
    72   36  114 1    
    73   36  115 1    
    74   37   38 am   BACKBONE|DICT|INTERRES
    75   37  116 1    
    76   38   39 2    
    77   38   40 1    
    78   40   41 1    
    79   40   42 1    
    80   40  117 1    
    81   41  118 1    
    82   41  119 1    
    83   41  120 1    
    84   42   43 am   BACKBONE|DICT|INTERRES
    85   42  121 1    
    86   43   44 2    
    87   43   45 1    
    88   45   46 1    
    89   45   47 1    
    90   45  122 1    
    91   46  123 1    
    92   46  124 1    
    93   46  125 1    
    94   47   48 am   BACKBONE|DICT|INTERRES
    95   47  126 1    
    96   48   49 2    
    97   48   50 1    
    98   50   51 1    
    99   50   52 1    
   100   50  127 1    
   101   51  128 1    
   102   51  129 1    
   103   51  130 1    
   104   52   53 am   BACKBONE|DICT|INTERRES
   105   52  131 1    
   106   53   54 2    
   107   53   55 1    
   108   55   56 1    
   109   55   59 1    
   110   55  132 1    
   111   56   57 1    
   112   56  133 1    
   113   56  134 1    
   114   57   58 1    
   115   58  135 1    
   116   58  136 1    
   117   59   60 am   BACKBONE|DICT|INTERRES
   118   59  137 1    
   119   60   61 2    
   120   60   62 1    
   121   62   63 1    
   122   62   64 1    
   123   62  138 1    
   124   63  139 1    
   125   63  140 1    
   126   63  141 1    
   127   64   65 am   BACKBONE|DICT|INTERRES
   128   64  142 1    
   129   65   66 2    
   130   65   67 1    
   131   67   68 1    
   132   67   69 1    
   133   67  143 1    
   134   68  144 1    
   135   68  145 1    
   136   68  146 1    
   137   69   70 am   BACKBONE|DICT|INTERRES
   138   69  147 1    
   139   70   71 2    
   140   70   72 1    
   141   72   73 1    
   142   72   74 1    
   143   72  148 1    
   144   73  149 1    
   145   73  150 1    
   146   73  151 1    
   147   74   75 am   BACKBONE|DICT|INTERRES
   148   74  152 1    
   149   75   76 2    
   150   75   77 1    
   151   77   78 1    
   152   77   79 1    
   153   77  153 1    
   154   78  154 1    
   155   78  155 1    
   156   78  156 1    
   157   79   80 am   BACKBONE|DICT|INTERRES
   158   79  157 1    
   159   80   81 2    
@<TRIPOS>SUBSTRUCTURE
     1 UNK         1 GROUP             0       ****    0 ROOT    
