@<TRIPOS>MOLECULE
3R207
157   159    1
SMALL
USER_CHARGES


@<TRIPOS>ATOM
      1 CA        -52.2228  -26.5593    1.7216 C.3       0 UNK        -0.1975 
      2 C         -52.8858  -27.1670    2.9487 C.2       0 UNK         0.4852 
      3 O         -53.9175  -26.6665    3.3973 O.2       0 UNK        -0.5216 
      4 N         -52.3013  -28.2427    3.4930 N.am      1 UNK        -0.4461 
      5 CA        -52.7743  -28.9422    4.6952 C.3       1 UNK         0.0864 
      6 C6        -52.1419  -30.3542    4.8012 C.3       14 UNK        -0.0898 
      7 S7        -50.3244  -30.3330    5.0472 S.3       14 UNK        -0.2598 
      8 C8        -50.0559  -31.5660    6.3656 C.3       14 UNK         0.0286 
      9 C9        -50.9170  -31.3325    7.6009 C.ar      14 UNK        -0.0844 
     10 C10       -50.6846  -30.2383    8.4428 C.ar      14 UNK        -0.0881 
     11 C11       -51.4844  -30.0312    9.5758 C.ar      14 UNK        -0.0643 
     12 C12       -52.5099  -30.9371    9.8569 C.ar      14 UNK        -0.0930 
     13 C13       -52.7722  -32.0127    9.0095 C.ar      14 UNK        -0.0827 
     14 C14       -51.9617  -32.2157    7.8915 C.ar      14 UNK        -0.1249 
     15 C15       -53.9483  -32.9357    9.2866 C.3       14 UNK         0.0141 
     16 S16       -55.4918  -32.2737    8.5757 S.3       14 UNK        -0.2313 
     17 C17       -56.0610  -31.1019    9.8596 C.3       14 UNK        -0.0915 
     18 CA        -55.8611  -29.5996    9.4943 C.3       13 UNK         0.0968 
     19 C         -56.7208  -29.1638    8.2827 C.2       13 UNK         0.5732 
     20 N         -56.1073  -28.7291    7.1929 N.am      13 UNK        -0.7310 
     21 O         -57.9489  -29.2126    8.3310 O.2       13 UNK        -0.5035 
     22 N         -56.1952  -28.7090   10.6114 N.am      13 UNK        -0.4233 
     23 C         -55.5369  -28.6061   11.7694 C.2       13 UNK         0.4989 
     24 O         -54.5374  -29.2685   12.0536 O.2       13 UNK        -0.4996 
     25 CA        -56.1190  -27.6161   12.7963 C.3       12 UNK         0.0216 
     26 CB        -57.5052  -28.0779   13.2826 C.3       12 UNK        -0.1964 
     27 N         -55.2353  -27.4996   13.9578 N.am      12 UNK        -0.4276 
     28 C         -54.1714  -26.6933   14.0356 C.2       12 UNK         0.5020 
     29 O         -53.8845  -25.8369   13.1945 O.2       12 UNK        -0.5489 
     30 CA        -53.2449  -26.9386   15.2345 C.3       11 UNK         0.0294 
     31 CB        -52.1746  -27.9814   14.8701 C.3       11 UNK        -0.2019 
     32 N         -52.5781  -25.7090   15.6527 N.am      11 UNK        -0.4493 
     33 C         -53.0664  -24.8263   16.5323 C.2       11 UNK         0.4932 
     34 O         -54.1662  -24.9387   17.0774 O.2       11 UNK        -0.5029 
     35 CA        -52.1427  -23.6386   16.8754 C.3       10 UNK         0.0280 
     36 CB        -52.6139  -22.8272   18.1007 C.3       10 UNK        -0.1976 
     37 N         -50.7439  -24.0620   17.0195 N.am      10 UNK        -0.4242 
     38 C         -50.2366  -24.9351   17.9042 C.2       10 UNK         0.5072 
     39 O         -50.8668  -25.4015   18.8544 O.2       10 UNK        -0.5224 
     40 CA        -48.7886  -25.4106   17.6740 C.3       9 UNK         0.0343 
     41 CB        -48.7897  -26.8335   17.0903 C.3       9 UNK        -0.2003 
     42 N         -48.0111  -24.5387   16.7888 N.am      9 UNK        -0.4272 
     43 C         -47.5266  -23.3390   17.1394 C.2       9 UNK         0.4988 
     44 O         -47.6355  -22.8590   18.2683 O.2       9 UNK        -0.5108 
     45 CA        -46.8194  -22.5268   16.0407 C.3       8 UNK         0.0248 
     46 CB        -45.3600  -22.9834   15.8849 C.3       8 UNK        -0.2001 
     47 N         -47.5007  -22.5967   14.7442 N.am      8 UNK        -0.4140 
     48 C         -48.7358  -22.1316   14.5034 C.2       8 UNK         0.5028 
     49 O         -49.4270  -21.5520   15.3410 O.2       8 UNK        -0.5428 
     50 CA        -49.3236  -22.3997   13.1079 C.3       7 UNK         0.0264 
     51 CB        -48.7767  -21.4010   12.0759 C.3       7 UNK        -0.1988 
     52 N         -49.0889  -23.7691   12.6458 N.am      7 UNK        -0.4454 
     53 C         -49.5613  -24.8699   13.2505 C.2       7 UNK         0.5027 
     54 O         -50.2698  -24.8546   14.2554 O.2       7 UNK        -0.5083 
     55 CA        -49.1498  -26.2218   12.6435 C.3       6 UNK         0.0844 
     56 C56       -50.0494  -26.5331   11.4232 C.3       14 UNK        -0.0967 
     57 S57       -49.6633  -28.1160   10.6040 S.3       14 UNK        -0.2604 
     58 C58       -51.3474  -28.8019   10.4700 C.3       14 UNK         0.0134 
     59 N         -47.7160  -26.2429   12.3405 N.am      6 UNK        -0.4116 
     60 C         -46.7409  -26.1541   13.2583 C.2       5 UNK         0.5034 
     61 O         -46.9396  -26.0930   14.4716 O.2       5 UNK        -0.5045 
     62 CA        -45.3005  -26.0625   12.7280 C.3       5 UNK         0.0224 
     63 CB        -44.7615  -27.4578   12.3746 C.3       5 UNK        -0.1978 
     64 N         -45.1857  -25.1799   11.5639 N.am      5 UNK        -0.4737 
     65 C         -45.4292  -23.8611   11.5840 C.2       4 UNK         0.5027 
     66 O         -45.7068  -23.2333   12.6042 O.2       4 UNK        -0.5211 
     67 CA        -45.4213  -23.1328   10.2281 C.3       4 UNK         0.0297 
     68 CB        -44.0059  -22.6394    9.8904 C.3       4 UNK        -0.1993 
     69 N         -45.9360  -23.9547    9.1260 N.am      4 UNK        -0.4486 
     70 C         -47.1694  -24.4754    9.0788 C.2       3 UNK         0.4961 
     71 O         -48.0261  -24.2912    9.9489 O.2       3 UNK        -0.5105 
     72 CA        -47.4729  -25.4006    7.8958 C.3       3 UNK         0.0299 
     73 CB        -46.6656  -26.7108    7.9980 C.3       3 UNK        -0.1972 
     74 N         -48.9001  -25.7039    7.8949 N.am      3 UNK        -0.4305 
     75 C         -49.6036  -26.1395    6.8481 C.2       2 UNK         0.5006 
     76 O         -49.1295  -26.3013    5.7190 O.2       2 UNK        -0.5106 
     77 CA        -51.0858  -26.4429    7.1021 C.3       2 UNK         0.0296 
     78 CB        -51.9219  -25.1561    7.2206 C.3       2 UNK        -0.2002 
     79 N         -51.5600  -27.2492    5.9875 N.am      2 UNK        -0.4032 
     80 C         -52.5771  -28.1171    5.9894 C.2       1 UNK         0.5000 
     81 O         -53.3403  -28.2823    6.9428 O.2       1 UNK        -0.5238 
     82 H82       -51.9437  -25.5248    1.9200 H         1 UNK         0.0889 
     83 H83       -51.3239  -27.1033    1.4317 H         1 UNK         0.0889 
     84 H84       -52.9126  -26.5708    0.8782 H         1 UNK         0.0889 
     85 H85       -51.4570  -28.6155    3.0809 H         1 UNK         0.3028 
     86 H86       -53.8522  -29.0796    4.5828 H         1 UNK         0.0864 
     87 H87       -52.6324  -30.9108    5.5989 H         1 UNK         0.0720 
     88 H88       -52.3504  -30.9197    3.8919 H         1 UNK         0.0720 
     89 H89       -49.0043  -31.5468    6.6549 H         1 UNK         0.0814 
     90 H90       -50.2366  -32.5601    5.9537 H         1 UNK         0.0814 
     91 H91       -49.8987  -29.5386    8.1954 H         1 UNK         0.1469 
     92 H92       -53.1395  -30.7832   10.7198 H         1 UNK         0.1381 
     93 H93       -52.1609  -33.0500    7.2327 H         1 UNK         0.1206 
     94 H94       -53.7580  -33.9170    8.8495 H         1 UNK         0.0813 
     95 H95       -54.0630  -33.1025   10.3587 H         1 UNK         0.0813 
     96 H96       -57.1156  -31.3038   10.0551 H         1 UNK         0.0638 
     97 H97       -55.5468  -31.3400   10.7902 H         1 UNK         0.0638 
     98 H98       -54.8105  -29.4347    9.2490 H         1 UNK         0.0568 
     99 H99       -55.0923  -28.6421    7.1623 H         1 UNK         0.3450 
    100 H100      -56.6592  -28.4417    6.4014 H         1 UNK         0.3450 
    101 H101      -57.0118  -28.1346   10.4519 H         1 UNK         0.2987 
    102 H102      -56.2186  -26.6401   12.3161 H         1 UNK         0.0766 
    103 H103      -58.2250  -28.1106   12.4639 H         1 UNK         0.0798 
    104 H104      -57.9083  -27.3968   14.0326 H         1 UNK         0.0798 
    105 H105      -57.4680  -29.0755   13.7228 H         1 UNK         0.0798 
    106 H106      -55.3481  -28.2093   14.6674 H         1 UNK         0.3198 
    107 H107      -53.8347  -27.3249   16.0691 H         1 UNK         0.0843 
    108 H108      -51.5093  -28.1801   15.7106 H         1 UNK         0.0831 
    109 H109      -51.5655  -27.6539   14.0278 H         1 UNK         0.0831 
    110 H110      -52.6324  -28.9302   14.5864 H         1 UNK         0.0831 
    111 H111      -51.7064  -25.4778   15.1786 H         1 UNK         0.3133 
    112 H112      -52.1669  -22.9739   16.0106 H         1 UNK         0.0566 
    113 H113      -53.6050  -22.4053   17.9300 H         1 UNK         0.0814 
    114 H114      -52.6748  -23.4428   18.9985 H         1 UNK         0.0814 
    115 H115      -51.9393  -21.9964   18.3078 H         1 UNK         0.0814 
    116 H116      -50.1385  -23.7831   16.2572 H         1 UNK         0.3091 
    117 H117      -48.2952  -25.4413   18.6477 H         1 UNK         0.0702 
    118 H118      -49.2555  -26.8621   16.1043 H         1 UNK         0.0785 
    119 H119      -49.3405  -27.5222   17.7324 H         1 UNK         0.0785 
    120 H120      -47.7761  -27.2224   16.9917 H         1 UNK         0.0785 
    121 H121      -47.8186  -24.8936   15.8569 H         1 UNK         0.2998 
    122 H122      -46.8161  -21.4807   16.3540 H         1 UNK         0.0697 
    123 H123      -44.8229  -22.3564   15.1729 H         1 UNK         0.0825 
    124 H124      -44.8276  -22.9247   16.8351 H         1 UNK         0.0825 
    125 H125      -45.2948  -24.0146   15.5359 H         1 UNK         0.0825 
    126 H126      -46.9728  -23.0025   13.9739 H         1 UNK         0.3029 
    127 H127      -50.4049  -22.2601   13.1743 H         1 UNK         0.0897 
    128 H128      -49.2157  -21.5658   11.0916 H         1 UNK         0.0792 
    129 H129      -49.0078  -20.3757   12.3676 H         1 UNK         0.0792 
    130 H130      -47.6940  -21.4735   11.9757 H         1 UNK         0.0792 
    131 H131      -48.5440  -23.8813   11.7948 H         1 UNK         0.3086 
    132 H132      -49.3272  -26.9899   13.3989 H         1 UNK         0.0583 
    133 H133      -51.0940  -26.5431   11.7437 H         1 UNK         0.1020 
    134 H134      -49.9898  -25.7430   10.6759 H         1 UNK         0.1020 
    135 H135      -51.6979  -29.0324   11.4779 H         1 UNK         0.0694 
    136 H136      -52.0184  -28.0359   10.0786 H         1 UNK         0.0694 
    137 H137      -47.4667  -26.2513   11.3635 H         1 UNK         0.2989 
    138 H138      -44.6826  -25.6468   13.5273 H         1 UNK         0.1055 
    139 H139      -44.8243  -28.1279   13.2334 H         1 UNK         0.0806 
    140 H140      -45.3235  -27.9180   11.5609 H         1 UNK         0.0806 
    141 H141      -43.7136  -27.4144   12.0769 H         1 UNK         0.0806 
    142 H142      -44.9525  -25.6092   10.6805 H         1 UNK         0.3061 
    143 H143      -46.0728  -22.2616   10.3199 H         1 UNK         0.0734 
    144 H144      -43.9997  -22.0421    8.9785 H         1 UNK         0.0832 
    145 H145      -43.6132  -22.0091   10.6898 H         1 UNK         0.0832 
    146 H146      -43.3082  -23.4670    9.7565 H         1 UNK         0.0832 
    147 H147      -45.2962  -24.1513    8.3692 H         1 UNK         0.3156 
    148 H148      -47.2138  -24.8732    6.9754 H         1 UNK         0.0589 
    149 H149      -46.8715  -27.3705    7.1548 H         1 UNK         0.0808 
    150 H150      -45.5917  -26.5219    7.9963 H         1 UNK         0.0808 
    151 H151      -46.9022  -27.2591    8.9109 H         1 UNK         0.0808 
    152 H152      -49.3581  -25.5125    8.7761 H         1 UNK         0.3098 
    153 H153      -51.1667  -27.0251    8.0214 H         1 UNK         0.0720 
    154 H154      -51.5819  -24.5391    8.0531 H         1 UNK         0.0791 
    155 H155      -51.8579  -24.5516    6.3150 H         1 UNK         0.0791 
    156 H156      -52.9736  -25.3834    7.3963 H         1 UNK         0.0791 
    157 H157      -50.9485  -27.2177    5.1804 H         1 UNK         0.3028 
@<TRIPOS>BOND
     1    1    2 1    
     2    1   82 1    
     3    1   83 1    
     4    1   84 1    
     5    2    3 2    
     6    2    4 am   BACKBONE|DICT|INTERRES
     7    4    5 1    
     8    4   85 1    
     9    5    6 1    
    10    5   80 1    
    11    5   86 1    
    12    6    7 1    
    13    6   87 1    
    14    6   88 1    
    15    7    8 1    
    16    8    9 1    
    17    8   89 1    
    18    8   90 1    
    19    9   10 ar   
    20    9   14 ar   
    21   10   11 ar   
    22   10   91 1    
    23   11   12 ar   
    24   11   58 1    
    25   12   13 ar   
    26   12   92 1    
    27   13   14 ar   
    28   13   15 1    
    29   14   93 1    
    30   15   16 1    
    31   15   94 1    
    32   15   95 1    
    33   16   17 1    
    34   17   18 1    
    35   17   96 1    
    36   17   97 1    
    37   18   19 1    
    38   18   22 1    
    39   18   98 1    
    40   19   20 am   BACKBONE|DICT|INTERRES
    41   19   21 2    
    42   20   99 1    
    43   20  100 1    
    44   22   23 am   BACKBONE|DICT|INTERRES
    45   22  101 1    
    46   23   24 2    
    47   23   25 1    
    48   25   26 1    
    49   25   27 1    
    50   25  102 1    
    51   26  103 1    
    52   26  104 1    
    53   26  105 1    
    54   27   28 am   BACKBONE|DICT|INTERRES
    55   27  106 1    
    56   28   29 2    
    57   28   30 1    
    58   30   31 1    
    59   30   32 1    
    60   30  107 1    
    61   31  108 1    
    62   31  109 1    
    63   31  110 1    
    64   32   33 am   BACKBONE|DICT|INTERRES
    65   32  111 1    
    66   33   34 2    
    67   33   35 1    
    68   35   36 1    
    69   35   37 1    
    70   35  112 1    
    71   36  113 1    
    72   36  114 1    
    73   36  115 1    
    74   37   38 am   BACKBONE|DICT|INTERRES
    75   37  116 1    
    76   38   39 2    
    77   38   40 1    
    78   40   41 1    
    79   40   42 1    
    80   40  117 1    
    81   41  118 1    
    82   41  119 1    
    83   41  120 1    
    84   42   43 am   BACKBONE|DICT|INTERRES
    85   42  121 1    
    86   43   44 2    
    87   43   45 1    
    88   45   46 1    
    89   45   47 1    
    90   45  122 1    
    91   46  123 1    
    92   46  124 1    
    93   46  125 1    
    94   47   48 am   BACKBONE|DICT|INTERRES
    95   47  126 1    
    96   48   49 2    
    97   48   50 1    
    98   50   51 1    
    99   50   52 1    
   100   50  127 1    
   101   51  128 1    
   102   51  129 1    
   103   51  130 1    
   104   52   53 am   BACKBONE|DICT|INTERRES
   105   52  131 1    
   106   53   54 2    
   107   53   55 1    
   108   55   56 1    
   109   55   59 1    
   110   55  132 1    
   111   56   57 1    
   112   56  133 1    
   113   56  134 1    
   114   57   58 1    
   115   58  135 1    
   116   58  136 1    
   117   59   60 am   BACKBONE|DICT|INTERRES
   118   59  137 1    
   119   60   61 2    
   120   60   62 1    
   121   62   63 1    
   122   62   64 1    
   123   62  138 1    
   124   63  139 1    
   125   63  140 1    
   126   63  141 1    
   127   64   65 am   BACKBONE|DICT|INTERRES
   128   64  142 1    
   129   65   66 2    
   130   65   67 1    
   131   67   68 1    
   132   67   69 1    
   133   67  143 1    
   134   68  144 1    
   135   68  145 1    
   136   68  146 1    
   137   69   70 am   BACKBONE|DICT|INTERRES
   138   69  147 1    
   139   70   71 2    
   140   70   72 1    
   141   72   73 1    
   142   72   74 1    
   143   72  148 1    
   144   73  149 1    
   145   73  150 1    
   146   73  151 1    
   147   74   75 am   BACKBONE|DICT|INTERRES
   148   74  152 1    
   149   75   76 2    
   150   75   77 1    
   151   77   78 1    
   152   77   79 1    
   153   77  153 1    
   154   78  154 1    
   155   78  155 1    
   156   78  156 1    
   157   79   80 am   BACKBONE|DICT|INTERRES
   158   79  157 1    
   159   80   81 2    
@<TRIPOS>SUBSTRUCTURE
     1 UNK         1 GROUP             0       ****    0 ROOT    
