@<TRIPOS>MOLECULE
3R207
157   159    1
SMALL
USER_CHARGES


@<TRIPOS>ATOM
      1 CA        -45.8783  -30.5340    7.0730 C.3       0 UNK        -0.1975 
      2 C         -46.4393  -30.1705    5.7064 C.2       0 UNK         0.4852 
      3 O         -45.6744  -29.9740    4.7622 O.2       0 UNK        -0.5216 
      4 N         -47.7706  -30.0729    5.5972 N.am      1 UNK        -0.4461 
      5 CA        -48.5031  -29.6887    4.3821 C.3       1 UNK         0.0864 
      6 C6        -49.9964  -30.1014    4.4559 C.3       14 UNK        -0.0898 
      7 S7        -50.8211  -29.5753    5.9963 S.3       14 UNK        -0.2598 
      8 C8        -51.9770  -28.3052    5.3962 C.3       14 UNK         0.0286 
      9 C9        -52.4350  -27.3908    6.5249 C.ar      14 UNK        -0.0844 
     10 C10       -52.1980  -26.0153    6.4513 C.ar      14 UNK        -0.0881 
     11 C11       -52.6034  -25.1643    7.4840 C.ar      14 UNK        -0.0643 
     12 C12       -53.2412  -25.7024    8.6058 C.ar      14 UNK        -0.0930 
     13 C13       -53.4824  -27.0773    8.6950 C.ar      14 UNK        -0.0827 
     14 C14       -53.0938  -27.9127    7.6433 C.ar      14 UNK        -0.1249 
     15 C15       -54.1616  -27.6578    9.9273 C.3       14 UNK         0.0141 
     16 S16       -52.9947  -28.6391   10.9235 S.3       14 UNK        -0.2313 
     17 C17       -53.6860  -28.4668   12.6003 C.3       14 UNK        -0.0915 
     18 CA        -53.8837  -29.8174   13.3347 C.3       13 UNK         0.0968 
     19 C         -52.5356  -30.4072   13.8349 C.2       13 UNK         0.5732 
     20 N         -52.0050  -29.9281   14.9534 N.am      13 UNK        -0.7310 
     21 O         -51.9852  -31.3189   13.2224 O.2       13 UNK        -0.5035 
     22 N         -54.8719  -29.6754   14.4115 N.am      13 UNK        -0.4233 
     23 C         -55.4117  -30.6740   15.1181 C.2       13 UNK         0.4989 
     24 O         -55.2083  -31.8668   14.8848 O.2       13 UNK        -0.4996 
     25 CA        -56.3250  -30.2574   16.2920 C.3       12 UNK         0.0216 
     26 CB        -57.0196  -31.4608   16.9566 C.3       12 UNK        -0.1964 
     27 N         -55.6046  -29.4976   17.3218 N.am      12 UNK        -0.4276 
     28 C         -55.1713  -28.2370   17.1933 C.2       12 UNK         0.5020 
     29 O         -55.3670  -27.5631   16.1777 O.2       12 UNK        -0.5489 
     30 CA        -54.3784  -27.6503   18.3751 C.3       11 UNK         0.0294 
     31 CB        -53.1434  -28.5096   18.7055 C.3       11 UNK        -0.2019 
     32 N         -53.9190  -26.3098   18.0210 N.am      11 UNK        -0.4493 
     33 C         -54.3964  -25.1569   18.5083 C.2       11 UNK         0.4932 
     34 O         -55.2003  -25.0853   19.4383 O.2       11 UNK        -0.5029 
     35 CA        -53.9004  -23.8552   17.8434 C.3       10 UNK         0.0280 
     36 CB        -52.7630  -23.2305   18.6673 C.3       10 UNK        -0.1976 
     37 N         -53.4365  -24.0690   16.4705 N.am      10 UNK        -0.4242 
     38 C         -54.2330  -24.3656   15.4336 C.2       10 UNK         0.5072 
     39 O         -55.4589  -24.2475   15.4674 O.2       10 UNK        -0.5224 
     40 CA        -53.5660  -24.9114   14.1537 C.3       9 UNK         0.0343 
     41 CB        -53.8832  -24.0282   12.9360 C.3       9 UNK        -0.2003 
     42 N         -52.1119  -25.1158   14.2488 N.am      9 UNK        -0.4272 
     43 C         -51.5098  -26.0578   14.9953 C.2       9 UNK         0.4988 
     44 O         -52.1331  -26.8384   15.7162 O.2       9 UNK        -0.5108 
     45 CA        -49.9721  -26.1450   14.9735 C.3       8 UNK         0.0248 
     46 CB        -49.5066  -27.5623   14.5997 C.3       8 UNK        -0.2001 
     47 N         -49.3643  -25.1905   14.0461 N.am      8 UNK        -0.4140 
     48 C         -48.8619  -23.9954   14.3856 C.2       8 UNK         0.5028 
     49 O         -48.8464  -23.5675   15.5401 O.2       8 UNK        -0.5428 
     50 CA        -48.2857  -23.1144   13.2574 C.3       7 UNK         0.0264 
     51 CB        -46.7523  -23.2187   13.2289 C.3       7 UNK        -0.1988 
     52 N         -48.8057  -23.4243   11.9225 N.am      7 UNK        -0.4454 
     53 C         -50.0900  -23.3204   11.5529 C.2       7 UNK         0.5027 
     54 O         -50.9728  -22.8854   12.2911 O.2       7 UNK        -0.5083 
     55 CA        -50.4614  -23.8540   10.1535 C.3       6 UNK         0.0844 
     56 C56       -50.3201  -22.7289    9.1000 C.3       14 UNK        -0.0967 
     57 S57       -50.6013  -23.2481    7.3740 S.3       14 UNK        -0.2604 
     58 C58       -52.3732  -23.6638    7.3629 C.3       14 UNK         0.0134 
     59 N         -49.7340  -25.0837    9.8089 N.am      6 UNK        -0.4116 
     60 C         -49.7765  -26.2196   10.5240 C.2       5 UNK         0.5034 
     61 O         -50.4323  -26.3516   11.5554 O.2       5 UNK        -0.5045 
     62 CA        -48.8824  -27.3762   10.0608 C.3       5 UNK         0.0224 
     63 CB        -49.5462  -28.1633    8.9233 C.3       5 UNK        -0.1978 
     64 N         -47.5763  -26.8810    9.6287 N.am      5 UNK        -0.4737 
     65 C         -46.5704  -26.5893   10.4651 C.2       4 UNK         0.5027 
     66 O         -46.6020  -26.8129   11.6747 O.2       4 UNK        -0.5211 
     67 CA        -45.3248  -25.9143    9.8595 C.3       4 UNK         0.0297 
     68 CB        -44.2896  -26.9729    9.4481 C.3       4 UNK        -0.1993 
     69 N         -45.6234  -25.0564    8.7089 N.am      4 UNK        -0.4486 
     70 C         -46.3878  -23.9566    8.7538 C.2       3 UNK         0.4961 
     71 O         -46.8758  -23.5065    9.7901 O.2       3 UNK        -0.5105 
     72 CA        -46.7017  -23.2616    7.4158 C.3       3 UNK         0.0299 
     73 CB        -45.6699  -22.1569    7.1400 C.3       3 UNK        -0.1972 
     74 N         -46.7960  -24.1422    6.2420 N.am      3 UNK        -0.4305 
     75 C         -47.5253  -25.2632    6.1311 C.2       2 UNK         0.5006 
     76 O         -48.1551  -25.7637    7.0650 O.2       2 UNK        -0.5106 
     77 CA        -47.5321  -25.9573    4.7595 C.3       2 UNK         0.0296 
     78 CB        -46.1775  -25.8487    4.0224 C.3       2 UNK        -0.2002 
     79 N         -47.8938  -27.3608    4.9433 N.am      2 UNK        -0.4032 
     80 C         -48.3212  -28.2024    3.9932 C.2       1 UNK         0.5000 
     81 O         -48.5455  -27.8578    2.8311 O.2       1 UNK        -0.5238 
     82 H82       -46.6585  -30.5925    7.8329 H         1 UNK         0.0889 
     83 H83       -45.1515  -29.7864    7.3910 H         1 UNK         0.0889 
     84 H84       -45.3753  -31.5003    7.0264 H         1 UNK         0.0889 
     85 H85       -48.3562  -30.2576    6.3999 H         1 UNK         0.3028 
     86 H86       -48.0626  -30.2552    3.5589 H         1 UNK         0.0864 
     87 H87       -50.5502  -29.7441    3.5855 H         1 UNK         0.0720 
     88 H88       -50.0659  -31.1893    4.4123 H         1 UNK         0.0720 
     89 H89       -52.8431  -28.7883    4.9424 H         1 UNK         0.0814 
     90 H90       -51.4938  -27.7240    4.6094 H         1 UNK         0.0814 
     91 H91       -51.6939  -25.5986    5.5901 H         1 UNK         0.1469 
     92 H92       -53.5544  -25.0506    9.4091 H         1 UNK         0.1381 
     93 H93       -53.2773  -28.9764    7.7094 H         1 UNK         0.1206 
     94 H94       -55.0004  -28.2870    9.6285 H         1 UNK         0.0813 
     95 H95       -54.5779  -26.8517   10.5324 H         1 UNK         0.0813 
     96 H96       -54.6419  -27.9468   12.5293 H         1 UNK         0.0638 
     97 H97       -53.0289  -27.8086   13.1681 H         1 UNK         0.0638 
     98 H98       -54.3063  -30.5293   12.6231 H         1 UNK         0.0568 
     99 H99       -51.1437  -30.3235   15.2923 H         1 UNK         0.3450 
    100 H100      -52.4104  -29.1257   15.4129 H         1 UNK         0.3450 
    101 H101      -55.0488  -28.7322   14.7485 H         1 UNK         0.2987 
    102 H102      -57.1055  -29.6168   15.8763 H         1 UNK         0.0766 
    103 H103      -56.3006  -32.1439   17.4098 H         1 UNK         0.0798 
    104 H104      -57.7136  -31.1398   17.7332 H         1 UNK         0.0798 
    105 H105      -57.5961  -32.0312   16.2269 H         1 UNK         0.0798 
    106 H106      -55.3872  -29.9968   18.1722 H         1 UNK         0.3198 
    107 H107      -55.0376  -27.6164   19.2450 H         1 UNK         0.0843 
    108 H108      -53.4251  -29.5009   19.0602 H         1 UNK         0.0831 
    109 H109      -52.5447  -28.0505   19.4920 H         1 UNK         0.0831 
    110 H110      -52.4990  -28.6433   17.8359 H         1 UNK         0.0831 
    111 H111      -53.3234  -26.2805   17.1985 H         1 UNK         0.3133 
    112 H112      -54.7355  -23.1520   17.8204 H         1 UNK         0.0566 
    113 H113      -52.4388  -22.2807   18.2416 H         1 UNK         0.0814 
    114 H114      -53.0870  -23.0318   19.6898 H         1 UNK         0.0814 
    115 H115      -51.8948  -23.8886   18.7230 H         1 UNK         0.0814 
    116 H116      -52.4405  -24.1630   16.3366 H         1 UNK         0.3091 
    117 H117      -54.0225  -25.8863   13.9785 H         1 UNK         0.0702 
    118 H118      -53.4450  -24.4368   12.0251 H         1 UNK         0.0785 
    119 H119      -53.5080  -23.0129   13.0682 H         1 UNK         0.0785 
    120 H120      -54.9594  -23.9578   12.7730 H         1 UNK         0.0785 
    121 H121      -51.5381  -24.5011   13.6837 H         1 UNK         0.2998 
    122 H122      -49.6259  -25.9404   15.9885 H         1 UNK         0.0697 
    123 H123      -49.9528  -27.9044   13.6650 H         1 UNK         0.0825 
    124 H124      -49.7851  -28.2758   15.3750 H         1 UNK         0.0825 
    125 H125      -48.4230  -27.6125   14.4921 H         1 UNK         0.0825 
    126 H126      -49.3953  -25.4549   13.0670 H         1 UNK         0.3029 
    127 H127      -48.5566  -22.0812   13.4849 H         1 UNK         0.0897 
    128 H128      -46.3214  -22.5346   12.4974 H         1 UNK         0.0792 
    129 H129      -46.3235  -22.9670   14.1999 H         1 UNK         0.0792 
    130 H130      -46.4234  -24.2279   12.9767 H         1 UNK         0.0792 
    131 H131      -48.1248  -23.7126   11.2228 H         1 UNK         0.3086 
    132 H132      -51.5152  -24.1281   10.2034 H         1 UNK         0.0583 
    133 H133      -51.0096  -21.9132    9.3268 H         1 UNK         0.1020 
    134 H134      -49.3224  -22.2895    9.1473 H         1 UNK         0.1020 
    135 H135      -52.8923  -23.1180    8.1521 H         1 UNK         0.0694 
    136 H136      -52.8040  -23.3194    6.4219 H         1 UNK         0.0694 
    137 H137      -49.1973  -25.0680    8.9506 H         1 UNK         0.2989 
    138 H138      -48.7466  -28.0553   10.9060 H         1 UNK         0.1055 
    139 H139      -50.4838  -28.6089    9.2561 H         1 UNK         0.0806 
    140 H140      -48.9087  -28.9746    8.5739 H         1 UNK         0.0806 
    141 H141      -49.7844  -27.5272    8.0705 H         1 UNK         0.0806 
    142 H142      -47.5086  -26.5909    8.6574 H         1 UNK         0.3061 
    143 H143      -44.8841  -25.2856   10.6363 H         1 UNK         0.0734 
    144 H144      -44.0344  -27.6161   10.2914 H         1 UNK         0.0832 
    145 H145      -44.6638  -27.6154    8.6504 H         1 UNK         0.0832 
    146 H146      -43.3639  -26.5117    9.1038 H         1 UNK         0.0832 
    147 H147      -45.2654  -25.3498    7.8121 H         1 UNK         0.3156 
    148 H148      -47.6750  -22.7843    7.5247 H         1 UNK         0.0589 
    149 H149      -44.6748  -22.5678    6.9653 H         1 UNK         0.0808 
    150 H150      -45.9466  -21.5615    6.2698 H         1 UNK         0.0808 
    151 H151      -45.5954  -21.4717    7.9858 H         1 UNK         0.0808 
    152 H152      -46.3025  -23.8278    5.4194 H         1 UNK         0.3098 
    153 H153      -48.3075  -25.4758    4.1612 H         1 UNK         0.0720 
    154 H154      -46.1916  -26.3937    3.0787 H         1 UNK         0.0791 
    155 H155      -45.3608  -26.2533    4.6214 H         1 UNK         0.0791 
    156 H156      -45.9320  -24.8158    3.7759 H         1 UNK         0.0791 
    157 H157      -47.8273  -27.6926    5.8957 H         1 UNK         0.3028 
@<TRIPOS>BOND
     1    1    2 1    
     2    1   82 1    
     3    1   83 1    
     4    1   84 1    
     5    2    3 2    
     6    2    4 am   BACKBONE|DICT|INTERRES
     7    4    5 1    
     8    4   85 1    
     9    5    6 1    
    10    5   80 1    
    11    5   86 1    
    12    6    7 1    
    13    6   87 1    
    14    6   88 1    
    15    7    8 1    
    16    8    9 1    
    17    8   89 1    
    18    8   90 1    
    19    9   10 ar   
    20    9   14 ar   
    21   10   11 ar   
    22   10   91 1    
    23   11   12 ar   
    24   11   58 1    
    25   12   13 ar   
    26   12   92 1    
    27   13   14 ar   
    28   13   15 1    
    29   14   93 1    
    30   15   16 1    
    31   15   94 1    
    32   15   95 1    
    33   16   17 1    
    34   17   18 1    
    35   17   96 1    
    36   17   97 1    
    37   18   19 1    
    38   18   22 1    
    39   18   98 1    
    40   19   20 am   BACKBONE|DICT|INTERRES
    41   19   21 2    
    42   20   99 1    
    43   20  100 1    
    44   22   23 am   BACKBONE|DICT|INTERRES
    45   22  101 1    
    46   23   24 2    
    47   23   25 1    
    48   25   26 1    
    49   25   27 1    
    50   25  102 1    
    51   26  103 1    
    52   26  104 1    
    53   26  105 1    
    54   27   28 am   BACKBONE|DICT|INTERRES
    55   27  106 1    
    56   28   29 2    
    57   28   30 1    
    58   30   31 1    
    59   30   32 1    
    60   30  107 1    
    61   31  108 1    
    62   31  109 1    
    63   31  110 1    
    64   32   33 am   BACKBONE|DICT|INTERRES
    65   32  111 1    
    66   33   34 2    
    67   33   35 1    
    68   35   36 1    
    69   35   37 1    
    70   35  112 1    
    71   36  113 1    
    72   36  114 1    
    73   36  115 1    
    74   37   38 am   BACKBONE|DICT|INTERRES
    75   37  116 1    
    76   38   39 2    
    77   38   40 1    
    78   40   41 1    
    79   40   42 1    
    80   40  117 1    
    81   41  118 1    
    82   41  119 1    
    83   41  120 1    
    84   42   43 am   BACKBONE|DICT|INTERRES
    85   42  121 1    
    86   43   44 2    
    87   43   45 1    
    88   45   46 1    
    89   45   47 1    
    90   45  122 1    
    91   46  123 1    
    92   46  124 1    
    93   46  125 1    
    94   47   48 am   BACKBONE|DICT|INTERRES
    95   47  126 1    
    96   48   49 2    
    97   48   50 1    
    98   50   51 1    
    99   50   52 1    
   100   50  127 1    
   101   51  128 1    
   102   51  129 1    
   103   51  130 1    
   104   52   53 am   BACKBONE|DICT|INTERRES
   105   52  131 1    
   106   53   54 2    
   107   53   55 1    
   108   55   56 1    
   109   55   59 1    
   110   55  132 1    
   111   56   57 1    
   112   56  133 1    
   113   56  134 1    
   114   57   58 1    
   115   58  135 1    
   116   58  136 1    
   117   59   60 am   BACKBONE|DICT|INTERRES
   118   59  137 1    
   119   60   61 2    
   120   60   62 1    
   121   62   63 1    
   122   62   64 1    
   123   62  138 1    
   124   63  139 1    
   125   63  140 1    
   126   63  141 1    
   127   64   65 am   BACKBONE|DICT|INTERRES
   128   64  142 1    
   129   65   66 2    
   130   65   67 1    
   131   67   68 1    
   132   67   69 1    
   133   67  143 1    
   134   68  144 1    
   135   68  145 1    
   136   68  146 1    
   137   69   70 am   BACKBONE|DICT|INTERRES
   138   69  147 1    
   139   70   71 2    
   140   70   72 1    
   141   72   73 1    
   142   72   74 1    
   143   72  148 1    
   144   73  149 1    
   145   73  150 1    
   146   73  151 1    
   147   74   75 am   BACKBONE|DICT|INTERRES
   148   74  152 1    
   149   75   76 2    
   150   75   77 1    
   151   77   78 1    
   152   77   79 1    
   153   77  153 1    
   154   78  154 1    
   155   78  155 1    
   156   78  156 1    
   157   79   80 am   BACKBONE|DICT|INTERRES
   158   79  157 1    
   159   80   81 2    
@<TRIPOS>SUBSTRUCTURE
     1 UNK         1 GROUP             0       ****    0 ROOT    
