@<TRIPOS>MOLECULE
3R207
157   159    1
SMALL
USER_CHARGES


@<TRIPOS>ATOM
      1 CA        -49.8860  -31.4118    4.0193 C.3       0 UNK        -0.1975 
      2 C         -49.0400  -30.2879    4.5982 C.2       0 UNK         0.4852 
      3 O         -47.8121  -30.3508    4.5281 O.2       0 UNK        -0.5216 
      4 N         -49.6880  -29.2487    5.1442 N.am      1 UNK        -0.4461 
      5 CA        -49.1268  -28.0726    5.8357 C.3       1 UNK         0.0864 
      6 C6        -48.2869  -28.4203    7.0951 C.3       14 UNK        -0.0898 
      7 S7        -49.2022  -29.4106    8.3226 S.3       14 UNK        -0.2598 
      8 C8        -49.6251  -28.1588    9.5733 C.3       14 UNK         0.0286 
      9 C9        -50.8382  -27.3366    9.1661 C.ar      14 UNK        -0.0844 
     10 C10       -50.6843  -26.1004    8.5288 C.ar      14 UNK        -0.0881 
     11 C11       -51.8026  -25.3169    8.2157 C.ar      14 UNK        -0.0643 
     12 C12       -53.0795  -25.8033    8.5129 C.ar      14 UNK        -0.0930 
     13 C13       -53.2470  -27.0507    9.1210 C.ar      14 UNK        -0.0827 
     14 C14       -52.1220  -27.8091    9.4527 C.ar      14 UNK        -0.1249 
     15 C15       -54.6461  -27.5766    9.4050 C.3       14 UNK         0.0141 
     16 S16       -55.2145  -27.0907   11.0618 S.3       14 UNK        -0.2313 
     17 C17       -54.5678  -28.4433   12.1021 C.3       14 UNK        -0.0915 
     18 CA        -55.6762  -29.0392   13.0138 C.3       13 UNK         0.0968 
     19 C         -56.4821  -30.1457   12.2748 C.2       13 UNK         0.5732 
     20 N         -57.5196  -29.7736   11.5379 N.am      13 UNK        -0.7310 
     21 O         -56.1515  -31.3289   12.3348 O.2       13 UNK        -0.5035 
     22 N         -55.1293  -29.4914   14.3034 N.am      13 UNK        -0.4233 
     23 C         -55.8794  -29.8762   15.3456 C.2       13 UNK         0.4989 
     24 O         -57.1056  -29.7683   15.3877 O.2       13 UNK        -0.4996 
     25 CA        -55.1466  -30.4966   16.5401 C.3       12 UNK         0.0216 
     26 CB        -54.4642  -31.8245   16.1555 C.3       12 UNK        -0.1964 
     27 N         -54.1791  -29.5672   17.1233 N.am      12 UNK        -0.4276 
     28 C         -53.7647  -29.6112   18.3968 C.2       12 UNK         0.5020 
     29 O         -54.1767  -30.4251   19.2250 O.2       12 UNK        -0.5489 
     30 CA        -52.7091  -28.5820   18.8271 C.3       11 UNK         0.0294 
     31 CB        -51.3129  -28.9909   18.3273 C.3       11 UNK        -0.2019 
     32 N         -53.0296  -27.2370   18.3507 N.am      11 UNK        -0.4493 
     33 C         -53.8301  -26.3731   18.9913 C.2       11 UNK         0.4932 
     34 O         -54.3784  -26.6170   20.0665 O.2       11 UNK        -0.5029 
     35 CA        -54.0483  -24.9957   18.3388 C.3       10 UNK         0.0280 
     36 CB        -53.0948  -23.9563   18.9496 C.3       10 UNK        -0.1976 
     37 N         -53.8652  -25.0275   16.8863 N.am      10 UNK        -0.4242 
     38 C         -54.7862  -25.4929   16.0279 C.2       10 UNK         0.5072 
     39 O         -55.9143  -25.8525   16.3658 O.2       10 UNK        -0.5224 
     40 CA        -54.3817  -25.6096   14.5470 C.3       9 UNK         0.0343 
     41 CB        -54.8107  -24.3555   13.7709 C.3       9 UNK        -0.2003 
     42 N         -52.9494  -25.8444   14.3401 N.am      9 UNK        -0.4272 
     43 C         -52.2683  -26.8994   14.8163 C.2       9 UNK         0.4988 
     44 O         -52.8067  -27.8434   15.3940 O.2       9 UNK        -0.5108 
     45 CA        -50.7346  -26.9048   14.6791 C.3       8 UNK         0.0248 
     46 CB        -50.3238  -27.8264   13.5204 C.3       8 UNK        -0.2001 
     47 N         -50.1335  -25.5824   14.4826 N.am      8 UNK        -0.4140 
     48 C         -50.3101  -24.5067   15.2702 C.2       8 UNK         0.5028 
     49 O         -50.9249  -24.5377   16.3374 O.2       8 UNK        -0.5428 
     50 CA        -49.7973  -23.1516   14.7397 C.3       7 UNK         0.0264 
     51 CB        -48.4515  -22.7948   15.3896 C.3       7 UNK        -0.1988 
     52 N         -49.6555  -23.1150   13.2791 N.am      7 UNK        -0.4454 
     53 C         -50.6417  -23.3447   12.3966 C.2       7 UNK         0.5027 
     54 O         -51.8266  -23.4338   12.7195 O.2       7 UNK        -0.5083 
     55 CA        -50.2391  -23.6277   10.9350 C.3       6 UNK         0.0844 
     56 C56       -50.8738  -22.6223    9.9409 C.3       14 UNK        -0.0967 
     57 S57       -50.3392  -22.9021    8.2125 S.3       14 UNK        -0.2604 
     58 C58       -51.6614  -23.9589    7.5309 C.3       14 UNK         0.0134 
     59 N         -48.7929  -23.7849   10.7330 N.am      6 UNK        -0.4116 
     60 C         -48.0498  -24.8199   11.1421 C.2       5 UNK         0.5034 
     61 O         -48.4732  -25.6917   11.9024 O.2       5 UNK        -0.5045 
     62 CA        -46.6075  -24.8939   10.5960 C.3       5 UNK         0.0224 
     63 CB        -45.9318  -26.2456   10.8950 C.3       5 UNK        -0.1978 
     64 N         -46.5445  -24.6454    9.1499 N.am      5 UNK        -0.4737 
     65 C         -46.6055  -23.4438    8.5590 C.2       4 UNK         0.5027 
     66 O         -46.7154  -22.3932    9.1929 O.2       4 UNK        -0.5211 
     67 CA        -46.6061  -23.4170    7.0183 C.3       4 UNK         0.0297 
     68 CB        -46.0758  -22.0874    6.4415 C.3       4 UNK        -0.1993 
     69 N         -45.9383  -24.5719    6.4051 N.am      4 UNK        -0.4486 
     70 C         -44.6337  -24.8897    6.4664 C.2       3 UNK         0.4961 
     71 O         -43.7964  -24.2268    7.0790 O.2       3 UNK        -0.5105 
     72 CA        -44.1712  -26.1745    5.7462 C.3       3 UNK         0.0299 
     73 CB        -43.7747  -27.2474    6.7750 C.3       3 UNK        -0.1972 
     74 N         -45.1716  -26.7432    4.8396 N.am      3 UNK        -0.4305 
     75 C         -45.5675  -26.2074    3.6754 C.2       2 UNK         0.5006 
     76 O         -45.0447  -25.2170    3.1641 O.2       2 UNK        -0.5106 
     77 CA        -46.7794  -26.8636    2.9846 C.3       2 UNK         0.0296 
     78 CB        -46.3167  -27.7978    1.8550 C.3       2 UNK        -0.2002 
     79 N         -47.6518  -27.6111    3.8993 N.am      2 UNK        -0.4032 
     80 C         -48.3316  -27.1008    4.9359 C.2       1 UNK         0.5000 
     81 O         -48.3090  -25.9043    5.2292 O.2       1 UNK        -0.5238 
     82 H82       -49.6811  -31.5261    2.9552 H         1 UNK         0.0889 
     83 H83       -50.9527  -31.2252    4.1420 H         1 UNK         0.0889 
     84 H84       -49.6474  -32.3521    4.5156 H         1 UNK         0.0889 
     85 H85       -50.6985  -29.2670    5.1300 H         1 UNK         0.3028 
     86 H86       -49.9973  -27.5066    6.1699 H         1 UNK         0.0864 
     87 H87       -47.9231  -27.5118    7.5785 H         1 UNK         0.0720 
     88 H88       -47.3939  -28.9827    6.8174 H         1 UNK         0.0720 
     89 H89       -48.7686  -27.5138    9.7686 H         1 UNK         0.0814 
     90 H90       -49.8319  -28.6680   10.5156 H         1 UNK         0.0814 
     91 H91       -49.6936  -25.7344    8.2974 H         1 UNK         0.1469 
     92 H92       -53.9507  -25.2129    8.2638 H         1 UNK         0.1381 
     93 H93       -52.2441  -28.7695    9.9340 H         1 UNK         0.1206 
     94 H94       -54.6828  -28.6610    9.2912 H         1 UNK         0.0813 
     95 H95       -55.3451  -27.1768    8.6688 H         1 UNK         0.0813 
     96 H96       -54.0951  -29.2155   11.4929 H         1 UNK         0.0638 
     97 H97       -53.7609  -28.0174   12.6943 H         1 UNK         0.0638 
     98 H98       -56.3791  -28.2427   13.2673 H         1 UNK         0.0568 
     99 H99       -58.0460  -30.4748   11.0413 H         1 UNK         0.3450 
    100 H100      -57.7771  -28.8022   11.4598 H         1 UNK         0.3450 
    101 H101      -54.1273  -29.6023   14.3513 H         1 UNK         0.2987 
    102 H102      -55.9099  -30.7160   17.2904 H         1 UNK         0.0766 
    103 H103      -55.1659  -32.4962   15.6588 H         1 UNK         0.0798 
    104 H104      -54.0887  -32.3460   17.0361 H         1 UNK         0.0798 
    105 H105      -53.6236  -31.6692   15.4784 H         1 UNK         0.0798 
    106 H106      -53.7825  -28.8630   16.5004 H         1 UNK         0.3198 
    107 H107      -52.6786  -28.5721   19.9192 H         1 UNK         0.0843 
    108 H108      -51.2680  -29.0572   17.2402 H         1 UNK         0.0831 
    109 H109      -51.0328  -29.9687   18.7215 H         1 UNK         0.0831 
    110 H110      -50.5515  -28.2816   18.6522 H         1 UNK         0.0831 
    111 H111      -52.6623  -26.9762   17.4462 H         1 UNK         0.3133 
    112 H112      -55.0713  -24.6817   18.5573 H         1 UNK         0.0566 
    113 H113      -53.2568  -22.9673   18.5206 H         1 UNK         0.0814 
    114 H114      -52.0492  -24.2235   18.7912 H         1 UNK         0.0814 
    115 H115      -53.2489  -23.8718   20.0262 H         1 UNK         0.0814 
    116 H116      -52.9477  -24.7628   16.5384 H         1 UNK         0.3091 
    117 H117      -54.9212  -26.4627   14.1376 H         1 UNK         0.0702 
    118 H118      -54.5948  -24.4554   12.7069 H         1 UNK         0.0785 
    119 H119      -54.2989  -23.4629   14.1329 H         1 UNK         0.0785 
    120 H120      -55.8832  -24.1825   13.8690 H         1 UNK         0.0785 
    121 H121      -52.4433  -25.1106   13.8562 H         1 UNK         0.2998 
    122 H122      -50.3272  -27.3106   15.6068 H         1 UNK         0.0697 
    123 H123      -50.6840  -27.4485   12.5622 H         1 UNK         0.0825 
    124 H124      -50.7319  -28.8298   13.6508 H         1 UNK         0.0825 
    125 H125      -49.2400  -27.9248   13.4545 H         1 UNK         0.0825 
    126 H126      -49.5925  -25.4706   13.6310 H         1 UNK         0.3029 
    127 H127      -50.5320  -22.3942   15.0213 H         1 UNK         0.0897 
    128 H128      -47.6720  -23.5107   15.1251 H         1 UNK         0.0792 
    129 H129      -48.5340  -22.7901   16.4776 H         1 UNK         0.0792 
    130 H130      -48.1149  -21.8026   15.0884 H         1 UNK         0.0792 
    131 H131      -48.7143  -23.0524   12.9195 H         1 UNK         0.3086 
    132 H132      -50.6832  -24.6013   10.7279 H         1 UNK         0.0583 
    133 H133      -51.9635  -22.6696    9.9924 H         1 UNK         0.1020 
    134 H134      -50.6018  -21.6003   10.2114 H         1 UNK         0.1020 
    135 H135      -52.5999  -23.4041    7.5752 H         1 UNK         0.0694 
    136 H136      -51.4546  -24.1290    6.4736 H         1 UNK         0.0694 
    137 H137      -48.3487  -23.1037   10.1255 H         1 UNK         0.2989 
    138 H138      -46.0368  -24.1166   11.1091 H         1 UNK         0.1055 
    139 H139      -46.4562  -27.0763   10.4221 H         1 UNK         0.0806 
    140 H140      -44.8994  -26.2583   10.5447 H         1 UNK         0.0806 
    141 H141      -45.9082  -26.4437   11.9676 H         1 UNK         0.0806 
    142 H142      -46.4728  -25.4562    8.5541 H         1 UNK         0.3061 
    143 H143      -47.6540  -23.4985    6.7253 H         1 UNK         0.0734 
    144 H144      -45.0527  -21.8855    6.7595 H         1 UNK         0.0832 
    145 H145      -46.0956  -22.0916    5.3518 H         1 UNK         0.0832 
    146 H146      -46.6883  -21.2475    6.7719 H         1 UNK         0.0832 
    147 H147      -46.5586  -25.1763    5.8741 H         1 UNK         0.3156 
    148 H148      -43.2873  -25.9179    5.1586 H         1 UNK         0.0589 
    149 H149      -43.3760  -28.1375    6.2877 H         1 UNK         0.0808 
    150 H150      -42.9999  -26.8771    7.4480 H         1 UNK         0.0808 
    151 H151      -44.6217  -27.5514    7.3915 H         1 UNK         0.0808 
    152 H152      -45.6383  -27.5813    5.1530 H         1 UNK         0.3098 
    153 H153      -47.3748  -26.0605    2.5454 H         1 UNK         0.0720 
    154 H154      -45.6842  -27.2668    1.1421 H         1 UNK         0.0791 
    155 H155      -47.1647  -28.1972    1.2983 H         1 UNK         0.0791 
    156 H156      -45.7404  -28.6406    2.2392 H         1 UNK         0.0791 
    157 H157      -47.6712  -28.6231    3.7992 H         1 UNK         0.3028 
@<TRIPOS>BOND
     1    1    2 1    
     2    1   82 1    
     3    1   83 1    
     4    1   84 1    
     5    2    3 2    
     6    2    4 am   BACKBONE|DICT|INTERRES
     7    4    5 1    
     8    4   85 1    
     9    5    6 1    
    10    5   80 1    
    11    5   86 1    
    12    6    7 1    
    13    6   87 1    
    14    6   88 1    
    15    7    8 1    
    16    8    9 1    
    17    8   89 1    
    18    8   90 1    
    19    9   10 ar   
    20    9   14 ar   
    21   10   11 ar   
    22   10   91 1    
    23   11   12 ar   
    24   11   58 1    
    25   12   13 ar   
    26   12   92 1    
    27   13   14 ar   
    28   13   15 1    
    29   14   93 1    
    30   15   16 1    
    31   15   94 1    
    32   15   95 1    
    33   16   17 1    
    34   17   18 1    
    35   17   96 1    
    36   17   97 1    
    37   18   19 1    
    38   18   22 1    
    39   18   98 1    
    40   19   20 am   BACKBONE|DICT|INTERRES
    41   19   21 2    
    42   20   99 1    
    43   20  100 1    
    44   22   23 am   BACKBONE|DICT|INTERRES
    45   22  101 1    
    46   23   24 2    
    47   23   25 1    
    48   25   26 1    
    49   25   27 1    
    50   25  102 1    
    51   26  103 1    
    52   26  104 1    
    53   26  105 1    
    54   27   28 am   BACKBONE|DICT|INTERRES
    55   27  106 1    
    56   28   29 2    
    57   28   30 1    
    58   30   31 1    
    59   30   32 1    
    60   30  107 1    
    61   31  108 1    
    62   31  109 1    
    63   31  110 1    
    64   32   33 am   BACKBONE|DICT|INTERRES
    65   32  111 1    
    66   33   34 2    
    67   33   35 1    
    68   35   36 1    
    69   35   37 1    
    70   35  112 1    
    71   36  113 1    
    72   36  114 1    
    73   36  115 1    
    74   37   38 am   BACKBONE|DICT|INTERRES
    75   37  116 1    
    76   38   39 2    
    77   38   40 1    
    78   40   41 1    
    79   40   42 1    
    80   40  117 1    
    81   41  118 1    
    82   41  119 1    
    83   41  120 1    
    84   42   43 am   BACKBONE|DICT|INTERRES
    85   42  121 1    
    86   43   44 2    
    87   43   45 1    
    88   45   46 1    
    89   45   47 1    
    90   45  122 1    
    91   46  123 1    
    92   46  124 1    
    93   46  125 1    
    94   47   48 am   BACKBONE|DICT|INTERRES
    95   47  126 1    
    96   48   49 2    
    97   48   50 1    
    98   50   51 1    
    99   50   52 1    
   100   50  127 1    
   101   51  128 1    
   102   51  129 1    
   103   51  130 1    
   104   52   53 am   BACKBONE|DICT|INTERRES
   105   52  131 1    
   106   53   54 2    
   107   53   55 1    
   108   55   56 1    
   109   55   59 1    
   110   55  132 1    
   111   56   57 1    
   112   56  133 1    
   113   56  134 1    
   114   57   58 1    
   115   58  135 1    
   116   58  136 1    
   117   59   60 am   BACKBONE|DICT|INTERRES
   118   59  137 1    
   119   60   61 2    
   120   60   62 1    
   121   62   63 1    
   122   62   64 1    
   123   62  138 1    
   124   63  139 1    
   125   63  140 1    
   126   63  141 1    
   127   64   65 am   BACKBONE|DICT|INTERRES
   128   64  142 1    
   129   65   66 2    
   130   65   67 1    
   131   67   68 1    
   132   67   69 1    
   133   67  143 1    
   134   68  144 1    
   135   68  145 1    
   136   68  146 1    
   137   69   70 am   BACKBONE|DICT|INTERRES
   138   69  147 1    
   139   70   71 2    
   140   70   72 1    
   141   72   73 1    
   142   72   74 1    
   143   72  148 1    
   144   73  149 1    
   145   73  150 1    
   146   73  151 1    
   147   74   75 am   BACKBONE|DICT|INTERRES
   148   74  152 1    
   149   75   76 2    
   150   75   77 1    
   151   77   78 1    
   152   77   79 1    
   153   77  153 1    
   154   78  154 1    
   155   78  155 1    
   156   78  156 1    
   157   79   80 am   BACKBONE|DICT|INTERRES
   158   79  157 1    
   159   80   81 2    
@<TRIPOS>SUBSTRUCTURE
     1 UNK         1 GROUP             0       ****    0 ROOT    
