@<TRIPOS>MOLECULE
3R207
157   159    1
SMALL
USER_CHARGES


@<TRIPOS>ATOM
      1 CA        -52.4503  -23.8160   11.7546 C.3       0 UNK        -0.1975 
      2 C         -51.5282  -23.7607   10.5474 C.2       0 UNK         0.4852 
      3 O         -51.0487  -22.6851   10.1855 O.2       0 UNK        -0.5216 
      4 N         -51.2764  -24.9170    9.9220 N.am      1 UNK        -0.4461 
      5 CA        -50.5071  -25.1184    8.6881 C.3       1 UNK         0.0864 
      6 C6        -51.0446  -24.2739    7.4954 C.3       14 UNK        -0.0898 
      7 S7        -50.7328  -25.0244    5.8626 S.3       14 UNK        -0.2598 
      8 C8        -52.2403  -26.0243    5.6121 C.3       14 UNK         0.0286 
      9 C9        -52.3398  -27.1268    6.6547 C.ar      14 UNK        -0.0844 
     10 C10       -51.5343  -28.2634    6.5470 C.ar      14 UNK        -0.0881 
     11 C11       -51.5174  -29.2159    7.5684 C.ar      14 UNK        -0.0643 
     12 C12       -52.3366  -29.0420    8.6870 C.ar      14 UNK        -0.0930 
     13 C13       -53.1440  -27.9063    8.8106 C.ar      14 UNK        -0.0827 
     14 C14       -53.1619  -26.9666    7.7753 C.ar      14 UNK        -0.1249 
     15 C15       -53.9679  -27.6617   10.0703 C.3       14 UNK         0.0141 
     16 S16       -52.9835  -27.8393   11.6000 S.3       14 UNK        -0.2313 
     17 C17       -53.5152  -29.4968   12.1539 C.3       14 UNK        -0.0915 
     18 CA        -54.6870  -29.3768   13.1660 C.3       13 UNK         0.0968 
     19 C         -55.6899  -30.5653   13.1559 C.2       13 UNK         0.5732 
     20 N         -56.8347  -30.4007   13.8065 N.am      13 UNK        -0.7310 
     21 O         -55.4471  -31.6189   12.5712 O.2       13 UNK        -0.5035 
     22 N         -54.2432  -29.0050   14.5193 N.am      13 UNK        -0.4233 
     23 C         -53.7844  -29.8182   15.4834 C.2       13 UNK         0.4989 
     24 O         -53.4878  -31.0007   15.3117 O.2       13 UNK        -0.4996 
     25 CA        -53.6831  -29.2256   16.9023 C.3       12 UNK         0.0216 
     26 CB        -52.2693  -28.7091   17.2038 C.3       12 UNK        -0.1964 
     27 N         -54.6453  -28.1398   17.1010 N.am      12 UNK        -0.4276 
     28 C         -55.9080  -28.3087   17.5188 C.2       12 UNK         0.5020 
     29 O         -56.3618  -29.3809   17.9201 O.2       12 UNK        -0.5489 
     30 CA        -56.8322  -27.0774   17.4578 C.3       11 UNK         0.0294 
     31 CB        -56.7646  -26.2869   18.7745 C.3       11 UNK        -0.2019 
     32 N         -56.5226  -26.1838   16.3375 N.am      11 UNK        -0.4493 
     33 C         -56.6581  -26.5060   15.0426 C.2       11 UNK         0.4932 
     34 O         -57.1590  -27.5601   14.6499 O.2       11 UNK        -0.5029 
     35 CA        -56.0934  -25.5131   14.0081 C.3       10 UNK         0.0280 
     36 CB        -57.2189  -24.6400   13.4325 C.3       10 UNK        -0.1976 
     37 N         -55.0184  -24.6503   14.5172 N.am      10 UNK        -0.4242 
     38 C         -53.8325  -25.0802   14.9698 C.2       10 UNK         0.5072 
     39 O         -53.5225  -26.2689   15.0665 O.2       10 UNK        -0.5224 
     40 CA        -52.8577  -24.0093   15.4602 C.3       9 UNK         0.0343 
     41 CB        -53.0319  -23.7730   16.9706 C.3       9 UNK        -0.2003 
     42 N         -51.4859  -24.4346   15.1849 N.am      9 UNK        -0.4272 
     43 C         -50.4826  -23.6013   14.8805 C.2       9 UNK         0.4988 
     44 O         -50.6231  -22.3798   14.8018 O.2       9 UNK        -0.5108 
     45 CA        -49.0792  -24.1889   14.6384 C.3       8 UNK         0.0248 
     46 CB        -48.1002  -23.7014   15.7210 C.3       8 UNK        -0.2001 
     47 N         -49.0135  -25.6518   14.5753 N.am      8 UNK        -0.4140 
     48 C         -49.3471  -26.3833   13.5057 C.2       8 UNK         0.5028 
     49 O         -49.8924  -25.9242   12.5019 O.2       8 UNK        -0.5428 
     50 CA        -49.0118  -27.8844   13.5840 C.3       7 UNK         0.0264 
     51 CB        -50.1425  -28.6592   14.2735 C.3       7 UNK        -0.1988 
     52 N         -48.7530  -28.4712   12.2660 N.am      7 UNK        -0.4454 
     53 C         -47.7107  -28.1434   11.4879 C.2       7 UNK         0.5027 
     54 O         -46.8443  -27.3364   11.8409 O.2       7 UNK        -0.5083 
     55 CA        -47.5999  -28.8501   10.1145 C.3       6 UNK         0.0844 
     56 C56       -48.9737  -29.0485    9.4195 C.3       14 UNK        -0.0967 
     57 S57       -48.8383  -29.8880    7.8021 S.3       14 UNK        -0.2604 
     58 C58       -50.5625  -30.3977    7.4976 C.3       14 UNK         0.0134 
     59 N         -46.6592  -28.1114    9.2692 N.am      6 UNK        -0.4116 
     60 C         -45.3343  -28.3081    9.2293 C.2       5 UNK         0.5034 
     61 O         -44.7601  -29.2262    9.8194 O.2       5 UNK        -0.5045 
     62 CA        -44.5075  -27.2912    8.4150 C.3       5 UNK         0.0224 
     63 CB        -43.1422  -27.8461    7.9541 C.3       5 UNK        -0.1978 
     64 N         -45.2535  -26.7052    7.2952 N.am      5 UNK        -0.4737 
     65 C         -45.7345  -27.3365    6.2122 C.2       4 UNK         0.5027 
     66 O         -45.5102  -28.5191    5.9535 O.2       4 UNK        -0.5211 
     67 CA        -46.6366  -26.5251    5.2632 C.3       4 UNK         0.0297 
     68 CB        -47.9967  -27.2219    5.0843 C.3       4 UNK        -0.1993 
     69 N         -46.8669  -25.1613    5.7492 N.am      4 UNK        -0.4486 
     70 C         -46.1666  -24.0824    5.3725 C.2       3 UNK         0.4961 
     71 O         -45.2841  -24.1059    4.5144 O.2       3 UNK        -0.5105 
     72 CA        -46.4856  -22.7485    6.0769 C.3       3 UNK         0.0299 
     73 CB        -47.4951  -21.9389    5.2473 C.3       3 UNK        -0.1972 
     74 N         -47.0019  -22.9007    7.4404 N.am      3 UNK        -0.4305 
     75 C         -46.3274  -23.4218    8.4769 C.2       2 UNK         0.5006 
     76 O         -45.1573  -23.7974    8.4131 O.2       2 UNK        -0.5106 
     77 CA        -47.1150  -23.6255    9.7858 C.3       2 UNK         0.0296 
     78 CB        -46.9971  -22.3929   10.6952 C.3       2 UNK        -0.2002 
     79 N         -48.5312  -23.9375    9.5666 N.am      2 UNK        -0.4032 
     80 C         -48.9844  -24.9874    8.8697 C.2       1 UNK         0.5000 
     81 O         -48.2408  -25.8280    8.3581 O.2       1 UNK        -0.5238 
     82 H82       -53.4835  -23.6574   11.4479 H         1 UNK         0.0889 
     83 H83       -52.1833  -23.0384   12.4687 H         1 UNK         0.0889 
     84 H84       -52.3837  -24.7799   12.2591 H         1 UNK         0.0889 
     85 H85       -51.6280  -25.7694   10.3391 H         1 UNK         0.3028 
     86 H86       -50.6594  -26.1706    8.4591 H         1 UNK         0.0864 
     87 H87       -50.6214  -23.2680    7.5031 H         1 UNK         0.0720 
     88 H88       -52.1220  -24.1314    7.5904 H         1 UNK         0.0720 
     89 H89       -53.1193  -25.3786    5.6413 H         1 UNK         0.0814 
     90 H90       -52.2149  -26.4643    4.6142 H         1 UNK         0.0814 
     91 H91       -50.8752  -28.3776    5.6972 H         1 UNK         0.1469 
     92 H92       -52.3082  -29.7706    9.4842 H         1 UNK         0.1381 
     93 H93       -53.7687  -26.0762    7.8682 H         1 UNK         0.1206 
     94 H94       -54.8257  -28.3351   10.0803 H         1 UNK         0.0813 
     95 H95       -54.3802  -26.6516   10.0609 H         1 UNK         0.0813 
     96 H96       -53.8006  -30.0789   11.2768 H         1 UNK         0.0638 
     97 H97       -52.6685  -30.0216   12.5984 H         1 UNK         0.0638 
     98 H98       -55.3000  -28.5398   12.8301 H         1 UNK         0.0568 
     99 H99       -57.0414  -29.5110   14.2491 H         1 UNK         0.3450 
    100 H100      -57.5102  -31.1477   13.8256 H         1 UNK         0.3450 
    101 H101      -54.3283  -28.0206   14.7418 H         1 UNK         0.2987 
    102 H102      -53.8975  -30.0329   17.6061 H         1 UNK         0.0766 
    103 H103      -52.1748  -28.4122   18.2484 H         1 UNK         0.0798 
    104 H104      -52.0172  -27.8444   16.5910 H         1 UNK         0.0798 
    105 H105      -51.5232  -29.4832   17.0197 H         1 UNK         0.0798 
    106 H106      -54.3673  -27.2320   16.7484 H         1 UNK         0.3198 
    107 H107      -57.8544  -27.4393   17.3258 H         1 UNK         0.0843 
    108 H108      -55.7685  -25.8803   18.9538 H         1 UNK         0.0831 
    109 H109      -57.0129  -26.9251   19.6240 H         1 UNK         0.0831 
    110 H110      -57.4729  -25.4581   18.7777 H         1 UNK         0.0831 
    111 H111      -56.1271  -25.2837   16.5658 H         1 UNK         0.3133 
    112 H112      -55.6735  -26.1038   13.1913 H         1 UNK         0.0566 
    113 H113      -56.8556  -24.0042   12.6248 H         1 UNK         0.0814 
    114 H114      -58.0189  -25.2566   13.0199 H         1 UNK         0.0814 
    115 H115      -57.6630  -23.9978   14.1941 H         1 UNK         0.0814 
    116 H116      -55.1976  -23.6561   14.4995 H         1 UNK         0.3091 
    117 H117      -53.0730  -23.0828   14.9234 H         1 UNK         0.0702 
    118 H118      -54.0479  -23.4539   17.2066 H         1 UNK         0.0785 
    119 H119      -52.8290  -24.6775   17.5459 H         1 UNK         0.0785 
    120 H120      -52.3588  -22.9934   17.3281 H         1 UNK         0.0785 
    121 H121      -51.3358  -25.4347   15.1701 H         1 UNK         0.2998 
    122 H122      -48.7382  -23.7950   13.6781 H         1 UNK         0.0697 
    123 H123      -48.3819  -24.0610   16.7115 H         1 UNK         0.0825 
    124 H124      -48.0747  -22.6116   15.7664 H         1 UNK         0.0825 
    125 H125      -47.0827  -24.0356   15.5171 H         1 UNK         0.0825 
    126 H126      -48.5976  -26.1148   15.3708 H         1 UNK         0.3029 
    127 H127      -48.1012  -28.0054   14.1753 H         1 UNK         0.0897 
    128 H128      -49.9757  -29.7361   14.2446 H         1 UNK         0.0792 
    129 H129      -51.1143  -28.4532   13.8242 H         1 UNK         0.0792 
    130 H130      -50.1977  -28.3735   15.3218 H         1 UNK         0.0792 
    131 H131      -49.4463  -29.1164   11.9199 H         1 UNK         0.3086 
    132 H132      -47.1918  -29.8431   10.3134 H         1 UNK         0.0583 
    133 H133      -49.6393  -29.6493   10.0405 H         1 UNK         0.1020 
    134 H134      -49.4711  -28.0893    9.2720 H         1 UNK         0.1020 
    135 H135      -50.6280  -30.8615    6.5124 H         1 UNK         0.0694 
    136 H136      -50.8421  -31.1670    8.2191 H         1 UNK         0.0694 
    137 H137      -47.0528  -27.3126    8.7809 H         1 UNK         0.2989 
    138 H138      -44.3067  -26.4661    9.1006 H         1 UNK         0.1055 
    139 H139      -42.5263  -28.1268    8.8093 H         1 UNK         0.0806 
    140 H140      -42.5835  -27.1032    7.3849 H         1 UNK         0.0806 
    141 H141      -43.2529  -28.7342    7.3314 H         1 UNK         0.0806 
    142 H142      -45.4782  -25.7231    7.4021 H         1 UNK         0.3061 
    143 H143      -46.1408  -26.4976    4.2908 H         1 UNK         0.0734 
    144 H144      -48.6255  -26.6872    4.3728 H         1 UNK         0.0832 
    145 H145      -47.8749  -28.2376    4.7062 H         1 UNK         0.0832 
    146 H146      -48.5389  -27.2912    6.0283 H         1 UNK         0.0832 
    147 H147      -47.5502  -25.0738    6.4931 H         1 UNK         0.3156 
    148 H148      -45.5558  -22.1790    6.1372 H         1 UNK         0.0589 
    149 H149      -47.1288  -21.7823    4.2316 H         1 UNK         0.0808 
    150 H150      -48.4567  -22.4490    5.1710 H         1 UNK         0.0808 
    151 H151      -47.6691  -20.9541    5.6814 H         1 UNK         0.0808 
    152 H152      -47.9582  -22.6166    7.5941 H         1 UNK         0.3098 
    153 H153      -46.6718  -24.4785   10.3048 H         1 UNK         0.0720 
    154 H154      -47.4578  -21.5126   10.2452 H         1 UNK         0.0791 
    155 H155      -45.9515  -22.1514   10.8916 H         1 UNK         0.0791 
    156 H156      -47.4752  -22.5659   11.6597 H         1 UNK         0.0791 
    157 H157      -49.2253  -23.2997    9.9474 H         1 UNK         0.3028 
@<TRIPOS>BOND
     1    1    2 1    
     2    1   82 1    
     3    1   83 1    
     4    1   84 1    
     5    2    3 2    
     6    2    4 am   BACKBONE|DICT|INTERRES
     7    4    5 1    
     8    4   85 1    
     9    5    6 1    
    10    5   80 1    
    11    5   86 1    
    12    6    7 1    
    13    6   87 1    
    14    6   88 1    
    15    7    8 1    
    16    8    9 1    
    17    8   89 1    
    18    8   90 1    
    19    9   10 ar   
    20    9   14 ar   
    21   10   11 ar   
    22   10   91 1    
    23   11   12 ar   
    24   11   58 1    
    25   12   13 ar   
    26   12   92 1    
    27   13   14 ar   
    28   13   15 1    
    29   14   93 1    
    30   15   16 1    
    31   15   94 1    
    32   15   95 1    
    33   16   17 1    
    34   17   18 1    
    35   17   96 1    
    36   17   97 1    
    37   18   19 1    
    38   18   22 1    
    39   18   98 1    
    40   19   20 am   BACKBONE|DICT|INTERRES
    41   19   21 2    
    42   20   99 1    
    43   20  100 1    
    44   22   23 am   BACKBONE|DICT|INTERRES
    45   22  101 1    
    46   23   24 2    
    47   23   25 1    
    48   25   26 1    
    49   25   27 1    
    50   25  102 1    
    51   26  103 1    
    52   26  104 1    
    53   26  105 1    
    54   27   28 am   BACKBONE|DICT|INTERRES
    55   27  106 1    
    56   28   29 2    
    57   28   30 1    
    58   30   31 1    
    59   30   32 1    
    60   30  107 1    
    61   31  108 1    
    62   31  109 1    
    63   31  110 1    
    64   32   33 am   BACKBONE|DICT|INTERRES
    65   32  111 1    
    66   33   34 2    
    67   33   35 1    
    68   35   36 1    
    69   35   37 1    
    70   35  112 1    
    71   36  113 1    
    72   36  114 1    
    73   36  115 1    
    74   37   38 am   BACKBONE|DICT|INTERRES
    75   37  116 1    
    76   38   39 2    
    77   38   40 1    
    78   40   41 1    
    79   40   42 1    
    80   40  117 1    
    81   41  118 1    
    82   41  119 1    
    83   41  120 1    
    84   42   43 am   BACKBONE|DICT|INTERRES
    85   42  121 1    
    86   43   44 2    
    87   43   45 1    
    88   45   46 1    
    89   45   47 1    
    90   45  122 1    
    91   46  123 1    
    92   46  124 1    
    93   46  125 1    
    94   47   48 am   BACKBONE|DICT|INTERRES
    95   47  126 1    
    96   48   49 2    
    97   48   50 1    
    98   50   51 1    
    99   50   52 1    
   100   50  127 1    
   101   51  128 1    
   102   51  129 1    
   103   51  130 1    
   104   52   53 am   BACKBONE|DICT|INTERRES
   105   52  131 1    
   106   53   54 2    
   107   53   55 1    
   108   55   56 1    
   109   55   59 1    
   110   55  132 1    
   111   56   57 1    
   112   56  133 1    
   113   56  134 1    
   114   57   58 1    
   115   58  135 1    
   116   58  136 1    
   117   59   60 am   BACKBONE|DICT|INTERRES
   118   59  137 1    
   119   60   61 2    
   120   60   62 1    
   121   62   63 1    
   122   62   64 1    
   123   62  138 1    
   124   63  139 1    
   125   63  140 1    
   126   63  141 1    
   127   64   65 am   BACKBONE|DICT|INTERRES
   128   64  142 1    
   129   65   66 2    
   130   65   67 1    
   131   67   68 1    
   132   67   69 1    
   133   67  143 1    
   134   68  144 1    
   135   68  145 1    
   136   68  146 1    
   137   69   70 am   BACKBONE|DICT|INTERRES
   138   69  147 1    
   139   70   71 2    
   140   70   72 1    
   141   72   73 1    
   142   72   74 1    
   143   72  148 1    
   144   73  149 1    
   145   73  150 1    
   146   73  151 1    
   147   74   75 am   BACKBONE|DICT|INTERRES
   148   74  152 1    
   149   75   76 2    
   150   75   77 1    
   151   77   78 1    
   152   77   79 1    
   153   77  153 1    
   154   78  154 1    
   155   78  155 1    
   156   78  156 1    
   157   79   80 am   BACKBONE|DICT|INTERRES
   158   79  157 1    
   159   80   81 2    
@<TRIPOS>SUBSTRUCTURE
     1 UNK         1 GROUP             0       ****    0 ROOT    
