@<TRIPOS>MOLECULE
3R207
157   159    1
SMALL
USER_CHARGES


@<TRIPOS>ATOM
      1 CA        -49.4592  -24.2762    2.1003 C.3       0 UNK        -0.1975 
      2 C         -49.8413  -24.9076    3.4309 C.2       0 UNK         0.4852 
      3 O         -49.4786  -24.3802    4.4836 O.2       0 UNK        -0.5216 
      4 N         -50.5764  -26.0273    3.3915 N.am      1 UNK        -0.4461 
      5 CA        -50.9870  -26.7976    4.5710 C.3       1 UNK         0.0864 
      6 C6        -52.1915  -27.7244    4.2649 C.3       14 UNK        -0.0898 
      7 S7        -53.7176  -26.7331    4.0978 S.3       14 UNK        -0.2598 
      8 C8        -54.8485  -27.4699    5.3369 C.3       14 UNK         0.0286 
      9 C9        -54.2972  -27.5971    6.7595 C.ar      14 UNK        -0.0844 
     10 C10       -53.3502  -26.7060    7.2797 C.ar      14 UNK        -0.0881 
     11 C11       -52.8125  -26.9005    8.5555 C.ar      14 UNK        -0.0643 
     12 C12       -53.2838  -27.9490    9.3492 C.ar      14 UNK        -0.0930 
     13 C13       -54.2691  -28.8137    8.8655 C.ar      14 UNK        -0.0827 
     14 C14       -54.7602  -28.6402    7.5685 C.ar      14 UNK        -0.1249 
     15 C15       -54.7924  -29.9412    9.7407 C.3       14 UNK         0.0141 
     16 S16       -55.9877  -29.3163   10.9597 S.3       14 UNK        -0.2313 
     17 C17       -56.3304  -30.8226   11.9310 C.3       14 UNK        -0.0915 
     18 CA        -55.6828  -30.7751   13.3465 C.3       13 UNK         0.0968 
     19 C         -56.2072  -31.8905   14.3029 C.2       13 UNK         0.5732 
     20 N         -55.4184  -32.3600   15.2630 N.am      13 UNK        -0.7310 
     21 O         -57.3556  -32.3166   14.2015 O.2       13 UNK        -0.5035 
     22 N         -54.2158  -30.6437   13.3033 N.am      13 UNK        -0.4233 
     23 C         -53.3470  -31.5624   12.8530 C.2       13 UNK         0.4989 
     24 O         -53.6825  -32.6547   12.3943 O.2       13 UNK        -0.4996 
     25 CA        -51.8455  -31.2185   12.9055 C.3       12 UNK         0.0216 
     26 CB        -51.2768  -31.0116   11.4900 C.3       12 UNK        -0.1964 
     27 N         -51.5463  -30.0362   13.7144 N.am      12 UNK        -0.4276 
     28 C         -51.5192  -29.9978   15.0521 C.2       12 UNK         0.5020 
     29 O         -51.6972  -30.9852   15.7661 O.2       12 UNK        -0.5489 
     30 CA        -51.2785  -28.6226   15.7081 C.3       11 UNK         0.0294 
     31 CB        -49.8159  -28.4883   16.1627 C.3       11 UNK        -0.2019 
     32 N         -51.6384  -27.4526   14.8916 N.am      11 UNK        -0.4493 
     33 C         -52.8549  -27.2007   14.3858 C.2       11 UNK         0.4932 
     34 O         -53.7881  -28.0047   14.4143 O.2       11 UNK        -0.5029 
     35 CA        -53.0493  -25.8029   13.7715 C.3       10 UNK         0.0280 
     36 CB        -54.4430  -25.6141   13.1387 C.3       10 UNK        -0.1976 
     37 N         -52.7678  -24.7336   14.7400 N.am      10 UNK        -0.4242 
     38 C         -53.3044  -24.5507   15.9579 C.2       10 UNK         0.5072 
     39 O         -54.1735  -25.2778   16.4425 O.2       10 UNK        -0.5224 
     40 CA        -52.7709  -23.3516   16.7783 C.3       9 UNK         0.0343 
     41 CB        -53.3897  -23.2735   18.1874 C.3       9 UNK        -0.2003 
     42 N         -51.3075  -23.3409   16.9077 N.am      9 UNK        -0.4272 
     43 C         -50.4539  -23.0077   15.9320 C.2       9 UNK         0.4988 
     44 O         -50.8356  -22.6695   14.8091 O.2       9 UNK        -0.5108 
     45 CA        -48.9475  -23.0862   16.2483 C.3       8 UNK         0.0248 
     46 CB        -48.5688  -24.4155   16.9296 C.3       8 UNK        -0.2001 
     47 N         -48.2020  -22.9814   14.9962 N.am      8 UNK        -0.4140 
     48 C         -47.5780  -21.8882   14.5353 C.2       8 UNK         0.5028 
     49 O         -47.3694  -20.8780   15.2086 O.2       8 UNK        -0.5428 
     50 CA        -47.1319  -21.9168   13.0575 C.3       7 UNK         0.0264 
     51 CB        -45.6463  -22.2920   12.9430 C.3       7 UNK        -0.1988 
     52 N         -47.9362  -22.8501   12.2614 N.am      7 UNK        -0.4454 
     53 C         -49.2157  -22.6315   11.9176 C.2       7 UNK         0.5027 
     54 O         -49.7491  -21.5242   12.0031 O.2       7 UNK        -0.5083 
     55 CA        -50.0667  -23.8389   11.4558 C.3       6 UNK         0.0844 
     56 C56       -50.7201  -23.5975   10.0709 C.3       14 UNK        -0.0967 
     57 S57       -52.2834  -24.5230    9.8827 S.3       14 UNK        -0.2604 
     58 C58       -51.6834  -26.0147    9.0527 C.3       14 UNK         0.0134 
     59 N         -49.3264  -25.1086   11.5132 N.am      6 UNK        -0.4116 
     60 C         -49.0933  -25.8137   12.6301 C.2       5 UNK         0.5034 
     61 O         -49.5699  -25.5371   13.7309 O.2       5 UNK        -0.5045 
     62 CA        -48.1320  -27.0044   12.5161 C.3       5 UNK         0.0224 
     63 CB        -48.8935  -28.2771   12.1301 C.3       5 UNK        -0.1978 
     64 N         -47.0741  -26.7580   11.5358 N.am      5 UNK        -0.4737 
     65 C         -45.8904  -26.2002   11.8209 C.2       4 UNK         0.5027 
     66 O         -45.5637  -25.8503   12.9539 O.2       4 UNK        -0.5211 
     67 CA        -44.8995  -25.9944   10.6594 C.3       4 UNK         0.0297 
     68 CB        -43.8623  -27.1283   10.6374 C.3       4 UNK        -0.1993 
     69 N         -45.5440  -25.9071    9.3459 N.am      4 UNK        -0.4486 
     70 C         -46.2787  -24.8670    8.9296 C.2       3 UNK         0.4961 
     71 O         -46.4616  -23.8485    9.5952 O.2       3 UNK        -0.5105 
     72 CA        -46.9678  -25.0048    7.5591 C.3       3 UNK         0.0299 
     73 CB        -46.0406  -24.5136    6.4366 C.3       3 UNK        -0.1972 
     74 N         -47.4565  -26.3527    7.2338 N.am      3 UNK        -0.4305 
     75 C         -48.2750  -27.0862    8.0003 C.2       2 UNK         0.5006 
     76 O         -48.6122  -26.7585    9.1383 O.2       2 UNK        -0.5106 
     77 CA        -48.8777  -28.3478    7.3612 C.3       2 UNK         0.0296 
     78 CB        -49.4409  -29.3269    8.4092 C.3       2 UNK        -0.2002 
     79 N         -49.9607  -27.9249    6.4763 N.am      2 UNK        -0.4032 
     80 C         -49.7995  -27.5545    5.1999 C.2       1 UNK         0.5000 
     81 O         -48.7638  -27.7519    4.5570 O.2       1 UNK        -0.5238 
     82 H82       -49.8457  -23.2590    2.0432 H         1 UNK         0.0889 
     83 H83       -49.8546  -24.8374    1.2538 H         1 UNK         0.0889 
     84 H84       -48.3746  -24.2352    2.0035 H         1 UNK         0.0889 
     85 H85       -50.8325  -26.4235    2.4988 H         1 UNK         0.3028 
     86 H86       -51.2936  -26.0692    5.3225 H         1 UNK         0.0864 
     87 H87       -52.3362  -28.4698    5.0487 H         1 UNK         0.0720 
     88 H88       -52.0269  -28.2887    3.3454 H         1 UNK         0.0720 
     89 H89       -55.1444  -28.4537    4.9686 H         1 UNK         0.0814 
     90 H90       -55.7593  -26.8710    5.3726 H         1 UNK         0.0814 
     91 H91       -53.0142  -25.8683    6.6870 H         1 UNK         0.1469 
     92 H92       -52.8878  -28.0896   10.3452 H         1 UNK         0.1381 
     93 H93       -55.5097  -29.3210    7.1879 H         1 UNK         0.1206 
     94 H94       -53.9607  -30.4244   10.2510 H         1 UNK         0.0813 
     95 H95       -55.2685  -30.7114    9.1320 H         1 UNK         0.0813 
     96 H96       -57.4161  -30.8986   12.0100 H         1 UNK         0.0638 
     97 H97       -56.0079  -31.7082   11.3817 H         1 UNK         0.0638 
     98 H98       -56.0279  -29.8537   13.8167 H         1 UNK         0.0568 
     99 H99       -54.4783  -32.0119   15.3692 H         1 UNK         0.3450 
    100 H100      -55.7680  -33.0722   15.8842 H         1 UNK         0.3450 
    101 H101      -53.8648  -29.7682   13.6807 H         1 UNK         0.2987 
    102 H102      -51.3391  -32.0782   13.3499 H         1 UNK         0.0766 
    103 H103      -51.6775  -30.1164   11.0153 H         1 UNK         0.0798 
    104 H104      -51.5128  -31.8575   10.8426 H         1 UNK         0.0798 
    105 H105      -50.1908  -30.9211   11.5104 H         1 UNK         0.0798 
    106 H106      -51.4243  -29.1656   13.2211 H         1 UNK         0.3198 
    107 H107      -51.9110  -28.5909   16.5978 H         1 UNK         0.0843 
    108 H108      -49.6691  -27.5918   16.7648 H         1 UNK         0.0831 
    109 H109      -49.1284  -28.4427   15.3182 H         1 UNK         0.0831 
    110 H110      -49.5180  -29.3382   16.7786 H         1 UNK         0.0831 
    111 H111      -50.9289  -26.7343   14.7853 H         1 UNK         0.3133 
    112 H112      -52.3126  -25.7082   12.9731 H         1 UNK         0.0566 
    113 H113      -54.6280  -26.3682   12.3720 H         1 UNK         0.0814 
    114 H114      -55.2397  -25.6987   13.8784 H         1 UNK         0.0814 
    115 H115      -54.5300  -24.6393   12.6589 H         1 UNK         0.0814 
    116 H116      -52.0400  -24.0731   14.4747 H         1 UNK         0.3091 
    117 H117      -53.0733  -22.4497   16.2416 H         1 UNK         0.0702 
    118 H118      -53.0484  -22.3873   18.7228 H         1 UNK         0.0785 
    119 H119      -53.1370  -24.1481   18.7881 H         1 UNK         0.0785 
    120 H120      -54.4779  -23.2161   18.1352 H         1 UNK         0.0785 
    121 H121      -50.9348  -23.6367   17.7983 H         1 UNK         0.2998 
    122 H122      -48.6964  -22.2585   16.9143 H         1 UNK         0.0697 
    123 H123      -47.4892  -24.4972   17.0580 H         1 UNK         0.0825 
    124 H124      -49.0116  -24.5006   17.9221 H         1 UNK         0.0825 
    125 H125      -48.8972  -25.2762   16.3462 H         1 UNK         0.0825 
    126 H126      -48.3863  -23.7290   14.3404 H         1 UNK         0.3029 
    127 H127      -47.2630  -20.9121   12.6496 H         1 UNK         0.0897 
    128 H128      -45.3257  -22.3392   11.9018 H         1 UNK         0.0792 
    129 H129      -45.0208  -21.5514   13.4430 H         1 UNK         0.0792 
    130 H130      -45.4358  -23.2566   13.4049 H         1 UNK         0.0792 
    131 H131      -47.5326  -23.7567   12.0750 H         1 UNK         0.3086 
    132 H132      -50.8727  -23.8923   12.1906 H         1 UNK         0.0583 
    133 H133      -50.9810  -22.5459    9.9349 H         1 UNK         0.1020 
    134 H134      -50.0264  -23.8323    9.2616 H         1 UNK         0.1020 
    135 H135      -51.0421  -25.7309    8.2175 H         1 UNK         0.0694 
    136 H136      -51.0646  -26.5728    9.7548 H         1 UNK         0.0694 
    137 H137      -48.9381  -25.4525   10.6410 H         1 UNK         0.2989 
    138 H138      -47.6836  -27.1651   13.4996 H         1 UNK         0.1055 
    139 H139      -49.4695  -28.1532   11.2135 H         1 UNK         0.0806 
    140 H140      -49.5875  -28.5444   12.9203 H         1 UNK         0.0806 
    141 H141      -48.2182  -29.1220   11.9941 H         1 UNK         0.0806 
    142 H142      -47.3046  -26.9599   10.5680 H         1 UNK         0.3061 
    143 H143      -44.3737  -25.0547   10.8433 H         1 UNK         0.0734 
    144 H144      -43.1050  -26.9602    9.8715 H         1 UNK         0.0832 
    145 H145      -43.3420  -27.1988   11.5939 H         1 UNK         0.0832 
    146 H146      -44.3257  -28.0973   10.4475 H         1 UNK         0.0832 
    147 H147      -45.4537  -26.7051    8.7338 H         1 UNK         0.3156 
    148 H148      -47.8432  -24.3523    7.5778 H         1 UNK         0.0589 
    149 H149      -45.1684  -25.1581    6.3208 H         1 UNK         0.0808 
    150 H150      -46.5629  -24.4771    5.4800 H         1 UNK         0.0808 
    151 H151      -45.6773  -23.5056    6.6424 H         1 UNK         0.0808 
    152 H152      -47.2658  -26.6846    6.2974 H         1 UNK         0.3098 
    153 H153      -48.0964  -28.8617    6.7972 H         1 UNK         0.0720 
    154 H154      -50.2608  -28.8901    8.9798 H         1 UNK         0.0791 
    155 H155      -48.6693  -29.6248    9.1202 H         1 UNK         0.0791 
    156 H156      -49.8149  -30.2358    7.9378 H         1 UNK         0.0791 
    157 H157      -50.8479  -27.7463    6.9245 H         1 UNK         0.3028 
@<TRIPOS>BOND
     1    1    2 1    
     2    1   82 1    
     3    1   83 1    
     4    1   84 1    
     5    2    3 2    
     6    2    4 am   BACKBONE|DICT|INTERRES
     7    4    5 1    
     8    4   85 1    
     9    5    6 1    
    10    5   80 1    
    11    5   86 1    
    12    6    7 1    
    13    6   87 1    
    14    6   88 1    
    15    7    8 1    
    16    8    9 1    
    17    8   89 1    
    18    8   90 1    
    19    9   10 ar   
    20    9   14 ar   
    21   10   11 ar   
    22   10   91 1    
    23   11   12 ar   
    24   11   58 1    
    25   12   13 ar   
    26   12   92 1    
    27   13   14 ar   
    28   13   15 1    
    29   14   93 1    
    30   15   16 1    
    31   15   94 1    
    32   15   95 1    
    33   16   17 1    
    34   17   18 1    
    35   17   96 1    
    36   17   97 1    
    37   18   19 1    
    38   18   22 1    
    39   18   98 1    
    40   19   20 am   BACKBONE|DICT|INTERRES
    41   19   21 2    
    42   20   99 1    
    43   20  100 1    
    44   22   23 am   BACKBONE|DICT|INTERRES
    45   22  101 1    
    46   23   24 2    
    47   23   25 1    
    48   25   26 1    
    49   25   27 1    
    50   25  102 1    
    51   26  103 1    
    52   26  104 1    
    53   26  105 1    
    54   27   28 am   BACKBONE|DICT|INTERRES
    55   27  106 1    
    56   28   29 2    
    57   28   30 1    
    58   30   31 1    
    59   30   32 1    
    60   30  107 1    
    61   31  108 1    
    62   31  109 1    
    63   31  110 1    
    64   32   33 am   BACKBONE|DICT|INTERRES
    65   32  111 1    
    66   33   34 2    
    67   33   35 1    
    68   35   36 1    
    69   35   37 1    
    70   35  112 1    
    71   36  113 1    
    72   36  114 1    
    73   36  115 1    
    74   37   38 am   BACKBONE|DICT|INTERRES
    75   37  116 1    
    76   38   39 2    
    77   38   40 1    
    78   40   41 1    
    79   40   42 1    
    80   40  117 1    
    81   41  118 1    
    82   41  119 1    
    83   41  120 1    
    84   42   43 am   BACKBONE|DICT|INTERRES
    85   42  121 1    
    86   43   44 2    
    87   43   45 1    
    88   45   46 1    
    89   45   47 1    
    90   45  122 1    
    91   46  123 1    
    92   46  124 1    
    93   46  125 1    
    94   47   48 am   BACKBONE|DICT|INTERRES
    95   47  126 1    
    96   48   49 2    
    97   48   50 1    
    98   50   51 1    
    99   50   52 1    
   100   50  127 1    
   101   51  128 1    
   102   51  129 1    
   103   51  130 1    
   104   52   53 am   BACKBONE|DICT|INTERRES
   105   52  131 1    
   106   53   54 2    
   107   53   55 1    
   108   55   56 1    
   109   55   59 1    
   110   55  132 1    
   111   56   57 1    
   112   56  133 1    
   113   56  134 1    
   114   57   58 1    
   115   58  135 1    
   116   58  136 1    
   117   59   60 am   BACKBONE|DICT|INTERRES
   118   59  137 1    
   119   60   61 2    
   120   60   62 1    
   121   62   63 1    
   122   62   64 1    
   123   62  138 1    
   124   63  139 1    
   125   63  140 1    
   126   63  141 1    
   127   64   65 am   BACKBONE|DICT|INTERRES
   128   64  142 1    
   129   65   66 2    
   130   65   67 1    
   131   67   68 1    
   132   67   69 1    
   133   67  143 1    
   134   68  144 1    
   135   68  145 1    
   136   68  146 1    
   137   69   70 am   BACKBONE|DICT|INTERRES
   138   69  147 1    
   139   70   71 2    
   140   70   72 1    
   141   72   73 1    
   142   72   74 1    
   143   72  148 1    
   144   73  149 1    
   145   73  150 1    
   146   73  151 1    
   147   74   75 am   BACKBONE|DICT|INTERRES
   148   74  152 1    
   149   75   76 2    
   150   75   77 1    
   151   77   78 1    
   152   77   79 1    
   153   77  153 1    
   154   78  154 1    
   155   78  155 1    
   156   78  156 1    
   157   79   80 am   BACKBONE|DICT|INTERRES
   158   79  157 1    
   159   80   81 2    
@<TRIPOS>SUBSTRUCTURE
     1 UNK         1 GROUP             0       ****    0 ROOT    
