@<TRIPOS>MOLECULE
3R207
157   159    1
SMALL
USER_CHARGES


@<TRIPOS>ATOM
      1 CA        -48.4784  -32.1487    3.9388 C.3       0 UNK        -0.1975 
      2 C         -48.5412  -30.6661    3.6025 C.2       0 UNK         0.4852 
      3 O         -47.8032  -30.2044    2.7315 O.2       0 UNK        -0.5216 
      4 N         -49.4183  -29.9190    4.2869 N.am      1 UNK        -0.4461 
      5 CA        -49.6173  -28.4759    4.1017 C.3       1 UNK         0.0864 
      6 C6        -50.9076  -27.9669    4.7960 C.3       14 UNK        -0.0898 
      7 S7        -52.4483  -28.6722    4.1142 S.3       14 UNK        -0.2598 
      8 C8        -52.7742  -30.1339    5.1576 C.3       14 UNK         0.0286 
      9 C9        -52.9406  -29.8011    6.6349 C.ar      14 UNK        -0.0844 
     10 C10       -51.8668  -29.9701    7.5142 C.ar      14 UNK        -0.0881 
     11 C11       -52.0119  -29.6938    8.8747 C.ar      14 UNK        -0.0643 
     12 C12       -53.2548  -29.2922    9.3636 C.ar      14 UNK        -0.0930 
     13 C13       -54.3385  -29.1100    8.5002 C.ar      14 UNK        -0.0827 
     14 C14       -54.1723  -29.3605    7.1326 C.ar      14 UNK        -0.1249 
     15 C15       -55.6972  -28.6903    9.0495 C.3       14 UNK         0.0141 
     16 S16       -55.8450  -26.8918    9.3090 S.3       14 UNK        -0.2313 
     17 C17       -55.0014  -26.6043   10.9136 C.3       14 UNK        -0.0915 
     18 CA        -55.7778  -26.7903   12.2703 C.3       13 UNK         0.0968 
     19 C         -57.2891  -27.1700   12.1919 C.2       13 UNK         0.5732 
     20 N         -58.1141  -26.3016   11.6217 N.am      13 UNK        -0.7310 
     21 O         -57.7387  -28.2105   12.6680 O.2       13 UNK        -0.5035 
     22 N         -55.0097  -27.5765   13.2518 N.am      13 UNK        -0.4233 
     23 C         -54.6837  -28.8772   13.1838 C.2       13 UNK         0.4989 
     24 O         -55.0058  -29.6266   12.2650 O.2       13 UNK        -0.4996 
     25 CA        -53.8142  -29.4563   14.3161 C.3       12 UNK         0.0216 
     26 CB        -52.3412  -29.5096   13.8753 C.3       12 UNK        -0.1964 
     27 N         -53.9067  -28.7046   15.5660 N.am      12 UNK        -0.4276 
     28 C         -54.9739  -28.6766   16.3756 C.2       12 UNK         0.5020 
     29 O         -55.9752  -29.3752   16.2169 O.2       12 UNK        -0.5489 
     30 CA        -54.9229  -27.6833   17.5516 C.3       11 UNK         0.0294 
     31 CB        -54.5846  -28.4146   18.8605 C.3       11 UNK        -0.2019 
     32 N         -53.9666  -26.5878   17.3550 N.am      11 UNK        -0.4493 
     33 C         -54.0309  -25.6535   16.3980 C.2       11 UNK         0.4932 
     34 O         -54.9247  -25.6017   15.5530 O.2       11 UNK        -0.5029 
     35 CA        -52.8751  -24.6464   16.3338 C.3       10 UNK         0.0280 
     36 CB        -52.9430  -23.6288   17.4889 C.3       10 UNK        -0.1976 
     37 N         -51.5503  -25.2719   16.2322 N.am      10 UNK        -0.4242 
     38 C         -50.8693  -25.9869   17.1408 C.2       10 UNK         0.5072 
     39 O         -51.3164  -26.3130   18.2416 O.2       10 UNK        -0.5224 
     40 CA        -49.4371  -26.4002   16.7552 C.3       9 UNK         0.0343 
     41 CB        -49.4451  -27.7123   15.9542 C.3       9 UNK        -0.2003 
     42 N         -48.7417  -25.3593   15.9919 N.am      9 UNK        -0.4272 
     43 C         -48.3955  -24.1600   16.4855 C.2       9 UNK         0.4988 
     44 O         -48.4994  -23.8501   17.6730 O.2       9 UNK        -0.5108 
     45 CA        -47.8785  -23.1155   15.4815 C.3       8 UNK         0.0248 
     46 CB        -46.3735  -23.2958   15.2276 C.3       8 UNK        -0.2001 
     47 N         -48.6190  -23.1395   14.2147 N.am      8 UNK        -0.4140 
     48 C         -49.9105  -22.7917   14.0950 C.2       8 UNK         0.5028 
     49 O         -50.5809  -22.3306   15.0182 O.2       8 UNK        -0.5428 
     50 CA        -50.5859  -23.0048   12.7304 C.3       7 UNK         0.0264 
     51 CB        -50.3791  -21.7725   11.8360 C.3       7 UNK        -0.1988 
     52 N         -50.1238  -24.2102   12.0365 N.am      7 UNK        -0.4454 
     53 C         -50.3724  -25.4665   12.4381 C.2       7 UNK         0.5027 
     54 O         -51.0745  -25.7371   13.4130 O.2       7 UNK        -0.5083 
     55 CA        -49.6688  -26.6107   11.6740 C.3       6 UNK         0.0844 
     56 C56       -50.4643  -27.0579   10.4236 C.3       14 UNK        -0.0967 
     57 S57       -49.6495  -28.4578    9.5709 S.3       14 UNK        -0.2604 
     58 C58       -50.8226  -29.8261    9.8111 C.3       14 UNK         0.0134 
     59 N         -48.2775  -26.2734   11.3600 N.am      6 UNK        -0.4116 
     60 C         -47.3185  -26.0786   12.2740 C.2       5 UNK         0.5034 
     61 O         -47.4974  -26.1717   13.4884 O.2       5 UNK        -0.5045 
     62 CA        -45.9393  -25.6663   11.7432 C.3       5 UNK         0.0224 
     63 CB        -45.1453  -26.8932   11.2664 C.3       5 UNK        -0.1978 
     64 N         -46.0517  -24.6910   10.6568 N.am      5 UNK        -0.4737 
     65 C         -46.3878  -23.4063   10.8362 C.2       4 UNK         0.5027 
     66 O         -46.6093  -22.9076   11.9388 O.2       4 UNK        -0.5211 
     67 CA        -46.5373  -22.5409    9.5730 C.3       4 UNK         0.0297 
     68 CB        -45.1670  -22.0276    9.1036 C.3       4 UNK        -0.1993 
     69 N         -47.2066  -23.2388    8.4718 N.am      4 UNK        -0.4486 
     70 C         -48.4726  -23.6748    8.5172 C.2       3 UNK         0.4961 
     71 O         -49.2145  -23.5259    9.4846 O.2       3 UNK        -0.5105 
     72 CA        -48.9986  -24.4458    7.2997 C.3       3 UNK         0.0299 
     73 CB        -49.5265  -23.4751    6.2322 C.3       3 UNK        -0.1972 
     74 N         -48.0495  -25.3770    6.6854 N.am      3 UNK        -0.4305 
     75 C         -47.3345  -26.3262    7.3056 C.2       2 UNK         0.5006 
     76 O         -47.2135  -26.4088    8.5291 O.2       2 UNK        -0.5106 
     77 CA        -46.6929  -27.3873    6.3884 C.3       2 UNK         0.0296 
     78 CB        -45.8291  -28.3942    7.1709 C.3       2 UNK        -0.2002 
     79 N         -47.7247  -28.1208    5.6457 N.am      2 UNK        -0.4032 
     80 C         -48.4156  -27.6448    4.5974 C.2       1 UNK         0.5000 
     81 O         -48.1687  -26.5617    4.0615 O.2       1 UNK        -0.5238 
     82 H82       -49.1859  -32.4216    4.7215 H         1 UNK         0.0889 
     83 H83       -47.4777  -32.4139    4.2789 H         1 UNK         0.0889 
     84 H84       -48.7062  -32.7432    3.0545 H         1 UNK         0.0889 
     85 H85       -50.0100  -30.3597    4.9734 H         1 UNK         0.3028 
     86 H86       -49.7116  -28.2884    3.0296 H         1 UNK         0.0864 
     87 H87       -50.8614  -28.1198    5.8737 H         1 UNK         0.0720 
     88 H88       -50.9940  -26.8857    4.6672 H         1 UNK         0.0720 
     89 H89       -51.9813  -30.8686    5.0172 H         1 UNK         0.0814 
     90 H90       -53.6839  -30.6158    4.7962 H         1 UNK         0.0814 
     91 H91       -50.9078  -30.3036    7.1441 H         1 UNK         0.1469 
     92 H92       -53.3717  -29.1258   10.4221 H         1 UNK         0.1381 
     93 H93       -55.0065  -29.2317    6.4562 H         1 UNK         0.1206 
     94 H94       -55.9160  -29.2183    9.9757 H         1 UNK         0.0813 
     95 H95       -56.4799  -28.9939    8.3528 H         1 UNK         0.0813 
     96 H96       -54.6623  -25.5683   10.8708 H         1 UNK         0.0638 
     97 H97       -54.0707  -27.1647   10.9181 H         1 UNK         0.0638 
     98 H98       -55.7990  -25.8057   12.7401 H         1 UNK         0.0568 
     99 H99       -59.0966  -26.5191   11.5714 H         1 UNK         0.3450 
    100 H100      -57.7660  -25.4498   11.2105 H         1 UNK         0.3450 
    101 H101      -54.7587  -27.0623   14.0878 H         1 UNK         0.2987 
    102 H102      -54.1551  -30.4763   14.5070 H         1 UNK         0.0766 
    103 H103      -51.7068  -29.9398   14.6505 H         1 UNK         0.0798 
    104 H104      -51.9543  -28.5187   13.6327 H         1 UNK         0.0798 
    105 H105      -52.2275  -30.1312   12.9868 H         1 UNK         0.0798 
    106 H106      -53.1305  -28.1020   15.7951 H         1 UNK         0.3198 
    107 H107      -55.9177  -27.2431   17.6474 H         1 UNK         0.0843 
    108 H108      -53.5861  -28.8528   18.8315 H         1 UNK         0.0831 
    109 H109      -55.2913  -29.2239   19.0502 H         1 UNK         0.0831 
    110 H110      -54.6304  -27.7399   19.7156 H         1 UNK         0.0831 
    111 H111      -53.1489  -26.5662   17.9621 H         1 UNK         0.3133 
    112 H112      -52.9980  -24.0871   15.4047 H         1 UNK         0.0566 
    113 H113      -52.1626  -22.8736   17.3914 H         1 UNK         0.0814 
    114 H114      -53.9007  -23.1069   17.4908 H         1 UNK         0.0814 
    115 H115      -52.8297  -24.1016   18.4647 H         1 UNK         0.0814 
    116 H116      -51.1193  -25.1742   15.3175 H         1 UNK         0.3091 
    117 H117      -48.8802  -26.5681   17.6794 H         1 UNK         0.0702 
    118 H118      -48.4307  -28.0491   15.7392 H         1 UNK         0.0785 
    119 H119      -49.9663  -27.6050   15.0031 H         1 UNK         0.0785 
    120 H120      -49.9404  -28.5083   16.5117 H         1 UNK         0.0785 
    121 H121      -48.5303  -25.5636   15.0188 H         1 UNK         0.2998 
    122 H122      -48.0243  -22.1302   15.9294 H         1 UNK         0.0697 
    123 H123      -46.1506  -24.2558   14.7633 H         1 UNK         0.0825 
    124 H124      -45.8133  -23.2494   16.1624 H         1 UNK         0.0825 
    125 H125      -45.9842  -22.5109   14.5791 H         1 UNK         0.0825 
    126 H126      -48.1079  -23.4339   13.3902 H         1 UNK         0.3029 
    127 H127      -51.6576  -23.1160   12.9105 H         1 UNK         0.0897 
    128 H128      -50.9331  -21.8641   10.9016 H         1 UNK         0.0792 
    129 H129      -50.7280  -20.8655   12.3314 H         1 UNK         0.0792 
    130 H130      -49.3266  -21.6268   11.5884 H         1 UNK         0.0792 
    131 H131      -49.5957  -24.0576   11.1780 H         1 UNK         0.3086 
    132 H132      -49.6376  -27.4634   12.3561 H         1 UNK         0.0583 
    133 H133      -51.4819  -27.3386   10.6997 H         1 UNK         0.1020 
    134 H134      -50.5588  -26.2347    9.7135 H         1 UNK         0.1020 
    135 H135      -50.3108  -30.7690    9.6133 H         1 UNK         0.0694 
    136 H136      -51.1380  -29.8607   10.8543 H         1 UNK         0.0694 
    137 H137      -48.0290  -26.2238   10.3764 H         1 UNK         0.2989 
    138 H138      -45.3894  -25.2047   12.5663 H         1 UNK         0.1055 
    139 H139      -45.0179  -27.6115   12.0774 H         1 UNK         0.0806 
    140 H140      -44.1495  -26.6122   10.9234 H         1 UNK         0.0806 
    141 H141      -45.6470  -27.4128   10.4492 H         1 UNK         0.0806 
    142 H142      -45.9988  -25.0539    9.7126 H         1 UNK         0.3061 
    143 H143      -47.1509  -21.6773    9.8389 H         1 UNK         0.0734 
    144 H144      -45.2666  -21.3385    8.2647 H         1 UNK         0.0832 
    145 H145      -44.6590  -21.4884    9.9045 H         1 UNK         0.0832 
    146 H146      -44.5121  -22.8431    8.7942 H         1 UNK         0.0832 
    147 H147      -46.6654  -23.4226    7.6395 H         1 UNK         0.3156 
    148 H148      -49.8399  -25.0496    7.6450 H         1 UNK         0.0589 
    149 H149      -48.7243  -22.8772    5.7979 H         1 UNK         0.0808 
    150 H150      -50.0240  -24.0084    5.4217 H         1 UNK         0.0808 
    151 H151      -50.2555  -22.7840    6.6580 H         1 UNK         0.0808 
    152 H152      -48.0776  -25.4355    5.6714 H         1 UNK         0.3098 
    153 H153      -46.0459  -26.8661    5.6797 H         1 UNK         0.0720 
    154 H154      -45.3553  -29.1142    6.5036 H         1 UNK         0.0791 
    155 H155      -46.4185  -28.9496    7.9021 H         1 UNK         0.0791 
    156 H156      -45.0328  -27.8845    7.7151 H         1 UNK         0.0791 
    157 H157      -48.0102  -29.0062    6.0368 H         1 UNK         0.3028 
@<TRIPOS>BOND
     1    1    2 1    
     2    1   82 1    
     3    1   83 1    
     4    1   84 1    
     5    2    3 2    
     6    2    4 am   BACKBONE|DICT|INTERRES
     7    4    5 1    
     8    4   85 1    
     9    5    6 1    
    10    5   80 1    
    11    5   86 1    
    12    6    7 1    
    13    6   87 1    
    14    6   88 1    
    15    7    8 1    
    16    8    9 1    
    17    8   89 1    
    18    8   90 1    
    19    9   10 ar   
    20    9   14 ar   
    21   10   11 ar   
    22   10   91 1    
    23   11   12 ar   
    24   11   58 1    
    25   12   13 ar   
    26   12   92 1    
    27   13   14 ar   
    28   13   15 1    
    29   14   93 1    
    30   15   16 1    
    31   15   94 1    
    32   15   95 1    
    33   16   17 1    
    34   17   18 1    
    35   17   96 1    
    36   17   97 1    
    37   18   19 1    
    38   18   22 1    
    39   18   98 1    
    40   19   20 am   BACKBONE|DICT|INTERRES
    41   19   21 2    
    42   20   99 1    
    43   20  100 1    
    44   22   23 am   BACKBONE|DICT|INTERRES
    45   22  101 1    
    46   23   24 2    
    47   23   25 1    
    48   25   26 1    
    49   25   27 1    
    50   25  102 1    
    51   26  103 1    
    52   26  104 1    
    53   26  105 1    
    54   27   28 am   BACKBONE|DICT|INTERRES
    55   27  106 1    
    56   28   29 2    
    57   28   30 1    
    58   30   31 1    
    59   30   32 1    
    60   30  107 1    
    61   31  108 1    
    62   31  109 1    
    63   31  110 1    
    64   32   33 am   BACKBONE|DICT|INTERRES
    65   32  111 1    
    66   33   34 2    
    67   33   35 1    
    68   35   36 1    
    69   35   37 1    
    70   35  112 1    
    71   36  113 1    
    72   36  114 1    
    73   36  115 1    
    74   37   38 am   BACKBONE|DICT|INTERRES
    75   37  116 1    
    76   38   39 2    
    77   38   40 1    
    78   40   41 1    
    79   40   42 1    
    80   40  117 1    
    81   41  118 1    
    82   41  119 1    
    83   41  120 1    
    84   42   43 am   BACKBONE|DICT|INTERRES
    85   42  121 1    
    86   43   44 2    
    87   43   45 1    
    88   45   46 1    
    89   45   47 1    
    90   45  122 1    
    91   46  123 1    
    92   46  124 1    
    93   46  125 1    
    94   47   48 am   BACKBONE|DICT|INTERRES
    95   47  126 1    
    96   48   49 2    
    97   48   50 1    
    98   50   51 1    
    99   50   52 1    
   100   50  127 1    
   101   51  128 1    
   102   51  129 1    
   103   51  130 1    
   104   52   53 am   BACKBONE|DICT|INTERRES
   105   52  131 1    
   106   53   54 2    
   107   53   55 1    
   108   55   56 1    
   109   55   59 1    
   110   55  132 1    
   111   56   57 1    
   112   56  133 1    
   113   56  134 1    
   114   57   58 1    
   115   58  135 1    
   116   58  136 1    
   117   59   60 am   BACKBONE|DICT|INTERRES
   118   59  137 1    
   119   60   61 2    
   120   60   62 1    
   121   62   63 1    
   122   62   64 1    
   123   62  138 1    
   124   63  139 1    
   125   63  140 1    
   126   63  141 1    
   127   64   65 am   BACKBONE|DICT|INTERRES
   128   64  142 1    
   129   65   66 2    
   130   65   67 1    
   131   67   68 1    
   132   67   69 1    
   133   67  143 1    
   134   68  144 1    
   135   68  145 1    
   136   68  146 1    
   137   69   70 am   BACKBONE|DICT|INTERRES
   138   69  147 1    
   139   70   71 2    
   140   70   72 1    
   141   72   73 1    
   142   72   74 1    
   143   72  148 1    
   144   73  149 1    
   145   73  150 1    
   146   73  151 1    
   147   74   75 am   BACKBONE|DICT|INTERRES
   148   74  152 1    
   149   75   76 2    
   150   75   77 1    
   151   77   78 1    
   152   77   79 1    
   153   77  153 1    
   154   78  154 1    
   155   78  155 1    
   156   78  156 1    
   157   79   80 am   BACKBONE|DICT|INTERRES
   158   79  157 1    
   159   80   81 2    
@<TRIPOS>SUBSTRUCTURE
     1 UNK         1 GROUP             0       ****    0 ROOT    
