@<TRIPOS>MOLECULE
3R207
157   159    1
SMALL
USER_CHARGES


@<TRIPOS>ATOM
      1 CA        -47.6539  -26.6531    4.4698 C.3       0 UNK        -0.1975 
      2 C         -48.6697  -25.9776    5.3763 C.2       0 UNK         0.4852 
      3 O         -48.4789  -25.9599    6.5940 O.2       0 UNK        -0.5216 
      4 N         -49.7187  -25.3962    4.7716 N.am      1 UNK        -0.4461 
      5 CA        -50.9308  -24.7998    5.3699 C.3       1 UNK         0.0864 
      6 C6        -52.0799  -25.8314    5.5653 C.3       14 UNK        -0.0898 
      7 S7        -51.6980  -27.2411    6.6630 S.3       14 UNK        -0.2598 
      8 C8        -53.0921  -27.1888    7.8294 C.3       14 UNK         0.0286 
      9 C9        -53.1592  -28.4766    8.6348 C.ar      14 UNK        -0.0844 
     10 C10       -52.6023  -28.5438    9.9140 C.ar      14 UNK        -0.0881 
     11 C11       -52.6456  -29.7348   10.6437 C.ar      14 UNK        -0.0643 
     12 C12       -53.2388  -30.8694   10.0827 C.ar      14 UNK        -0.0930 
     13 C13       -53.8201  -30.8073    8.8120 C.ar      14 UNK        -0.0827 
     14 C14       -53.7774  -29.6081    8.0948 C.ar      14 UNK        -0.1249 
     15 C15       -54.4820  -32.0328    8.1987 C.3       14 UNK         0.0141 
     16 S16       -56.2605  -32.1140    8.5897 S.3       14 UNK        -0.2313 
     17 C17       -56.2398  -32.7987   10.2820 C.3       14 UNK        -0.0915 
     18 CA        -56.8344  -31.8510   11.3586 C.3       13 UNK         0.0968 
     19 C         -56.7868  -32.5478   12.7511 C.2       13 UNK         0.5732 
     20 N         -55.9108  -32.1476   13.6654 N.am      13 UNK        -0.7310 
     21 O         -57.5591  -33.4703   13.0015 O.2       13 UNK        -0.5035 
     22 N         -56.2409  -30.5029   11.3015 N.am      13 UNK        -0.4233 
     23 C         -56.6615  -29.4450   12.0045 C.2       13 UNK         0.4989 
     24 O         -57.6010  -29.4671   12.8028 O.2       13 UNK        -0.4996 
     25 CA        -55.9054  -28.1333   11.7905 C.3       12 UNK         0.0216 
     26 CB        -56.7506  -27.1112   11.0105 C.3       12 UNK        -0.1964 
     27 N         -55.5440  -27.6079   13.1034 N.am      12 UNK        -0.4276 
     28 C         -54.4642  -26.8637   13.3581 C.2       12 UNK         0.5020 
     29 O         -53.6889  -26.4635   12.4865 O.2       12 UNK        -0.5489 
     30 CA        -54.1872  -26.5541   14.8379 C.3       11 UNK         0.0294 
     31 CB        -53.5386  -27.7645   15.5310 C.3       11 UNK        -0.2019 
     32 N         -53.2833  -25.4085   14.9401 N.am      11 UNK        -0.4493 
     33 C         -53.6850  -24.1477   15.1447 C.2       11 UNK         0.4932 
     34 O         -54.8478  -23.8439   15.4200 O.2       11 UNK        -0.5029 
     35 CA        -52.6344  -23.0326   14.9773 C.3       10 UNK         0.0280 
     36 CB        -53.0011  -21.7341   15.7290 C.3       10 UNK        -0.1976 
     37 N         -51.2594  -23.4503   15.2719 N.am      10 UNK        -0.4242 
     38 C         -50.7368  -23.7891   16.4618 C.2       10 UNK         0.5072 
     39 O         -51.3864  -23.8132   17.5083 O.2       10 UNK        -0.5224 
     40 CA        -49.2371  -24.1592   16.5166 C.3       9 UNK         0.0343 
     41 CB        -49.0337  -25.5542   17.1334 C.3       9 UNK        -0.2003 
     42 N         -48.5699  -24.1125   15.2122 N.am      9 UNK        -0.4272 
     43 C         -48.1325  -23.0002   14.6040 C.2       9 UNK         0.4988 
     44 O         -48.1482  -21.8847   15.1245 O.2       9 UNK        -0.5108 
     45 CA        -47.6424  -23.1469   13.1503 C.3       8 UNK         0.0248 
     46 CB        -46.1294  -23.4126   13.1077 C.3       8 UNK        -0.2001 
     47 N         -48.3414  -24.2023   12.4109 N.am      8 UNK        -0.4140 
     48 C         -49.6557  -24.2198   12.1472 C.2       8 UNK         0.5028 
     49 O         -50.4211  -23.3011   12.4357 O.2       8 UNK        -0.5428 
     50 CA        -50.2199  -25.5080   11.5295 C.3       7 UNK         0.0264 
     51 CB        -49.9762  -25.5418   10.0131 C.3       7 UNK        -0.1988 
     52 N         -49.6555  -26.7037   12.1595 N.am      7 UNK        -0.4454 
     53 C         -49.9094  -27.0886   13.4203 C.2       7 UNK         0.5027 
     54 O         -50.6763  -26.4853   14.1706 O.2       7 UNK        -0.5083 
     55 CA        -49.1457  -28.3231   13.9541 C.3       6 UNK         0.0844 
     56 C56       -49.9304  -29.6486   13.7960 C.3       14 UNK        -0.0967 
     57 S57       -50.3027  -30.1085   12.0673 S.3       14 UNK        -0.2604 
     58 C58       -52.0882  -29.7733   12.0542 C.3       14 UNK         0.0134 
     59 N         -47.7937  -28.4160   13.4012 N.am      6 UNK        -0.4116 
     60 C         -46.7845  -27.6107   13.7576 C.2       5 UNK         0.5034 
     61 O         -46.8795  -26.7280   14.6104 O.2       5 UNK        -0.5045 
     62 CA        -45.4577  -27.7929   13.0009 C.3       5 UNK         0.0224 
     63 CB        -44.6410  -28.9454   13.6071 C.3       5 UNK        -0.1978 
     64 N         -45.6171  -28.0054   11.5554 N.am      5 UNK        -0.4737 
     65 C         -46.2231  -27.1423   10.7299 C.2       4 UNK         0.5027 
     66 O         -46.7975  -26.1244   11.1177 O.2       4 UNK        -0.5211 
     67 CA        -46.2207  -27.4857    9.2307 C.3       4 UNK         0.0297 
     68 CB        -47.4174  -28.3870    8.8846 C.3       4 UNK        -0.1993 
     69 N         -46.2819  -26.2748    8.4071 N.am      4 UNK        -0.4486 
     70 C         -45.3151  -25.3451    8.3522 C.2       3 UNK         0.4961 
     71 O         -44.2132  -25.4790    8.8869 O.2       3 UNK        -0.5105 
     72 CA        -45.6046  -24.0449    7.5864 C.3       3 UNK         0.0299 
     73 CB        -45.0676  -24.1357    6.1484 C.3       3 UNK        -0.1972 
     74 N         -47.0333  -23.7169    7.5522 N.am      3 UNK        -0.4305 
     75 C         -47.5677  -22.5512    7.9459 C.2       2 UNK         0.5006 
     76 O         -46.9098  -21.6284    8.4291 O.2       2 UNK        -0.5106 
     77 CA        -49.0836  -22.3671    7.7382 C.3       2 UNK         0.0296 
     78 CB        -49.4836  -20.8954    7.5148 C.3       2 UNK        -0.2002 
     79 N         -49.5571  -23.1818    6.6179 N.am      2 UNK        -0.4032 
     80 C         -50.7144  -23.8540    6.5785 C.2       1 UNK         0.5000 
     81 O         -51.5966  -23.7318    7.4307 O.2       1 UNK        -0.5238 
     82 H82       -47.1222  -25.9140    3.8712 H         1 UNK         0.0889 
     83 H83       -48.1461  -27.3556    3.7978 H         1 UNK         0.0889 
     84 H84       -46.9225  -27.2073    5.0578 H         1 UNK         0.0889 
     85 H85       -49.7433  -25.4328    3.7617 H         1 UNK         0.3028 
     86 H86       -51.2889  -24.1175    4.5971 H         1 UNK         0.0864 
     87 H87       -52.3430  -26.2531    4.5942 H         1 UNK         0.0720 
     88 H88       -52.9875  -25.3309    5.9073 H         1 UNK         0.0720 
     89 H89       -52.9836  -26.3234    8.4857 H         1 UNK         0.0814 
     90 H90       -54.0267  -27.0525    7.2832 H         1 UNK         0.0814 
     91 H91       -52.1475  -27.6670   10.3536 H         1 UNK         0.1469 
     92 H92       -53.2579  -31.7941   10.6427 H         1 UNK         0.1381 
     93 H93       -54.2144  -29.5575    7.1066 H         1 UNK         0.1206 
     94 H94       -54.3677  -32.0046    7.1139 H         1 UNK         0.0813 
     95 H95       -53.9822  -32.9460    8.5256 H         1 UNK         0.0813 
     96 H96       -56.8068  -33.7311   10.2539 H         1 UNK         0.0638 
     97 H97       -55.2214  -33.0839   10.5484 H         1 UNK         0.0638 
     98 H98       -57.8934  -31.7227   11.1271 H         1 UNK         0.0568 
     99 H99       -55.8929  -32.6065   14.5623 H         1 UNK         0.3450 
    100 H100      -55.2758  -31.3922   13.4712 H         1 UNK         0.3450 
    101 H101      -55.4739  -30.3932   10.6522 H         1 UNK         0.2987 
    102 H102      -54.9995  -28.3399   11.2216 H         1 UNK         0.0766 
    103 H103      -56.1946  -26.1895   10.8376 H         1 UNK         0.0798 
    104 H104      -57.6676  -26.8554   11.5427 H         1 UNK         0.0798 
    105 H105      -57.0352  -27.5059   10.0342 H         1 UNK         0.0798 
    106 H106      -56.1338  -27.9238   13.8634 H         1 UNK         0.3198 
    107 H107      -55.1355  -26.3370   15.3343 H         1 UNK         0.0843 
    108 H108      -52.6176  -28.0683   15.0351 H         1 UNK         0.0831 
    109 H109      -54.2079  -28.6255   15.5296 H         1 UNK         0.0831 
    110 H110      -53.2991  -27.5426   16.5711 H         1 UNK         0.0831 
    111 H111      -52.3236  -25.5851   14.6513 H         1 UNK         0.3133 
    112 H112      -52.6405  -22.7936   13.9133 H         1 UNK         0.0566 
    113 H113      -52.2474  -20.9614   15.5775 H         1 UNK         0.0814 
    114 H114      -53.9503  -21.3312   15.3738 H         1 UNK         0.0814 
    115 H115      -53.1026  -21.9002   16.8017 H         1 UNK         0.0814 
    116 H116      -50.6561  -23.4856   14.4568 H         1 UNK         0.3091 
    117 H117      -48.7554  -23.4324   17.1738 H         1 UNK         0.0702 
    118 H118      -49.4115  -25.5880   18.1560 H         1 UNK         0.0785 
    119 H119      -49.5579  -26.3255   16.5705 H         1 UNK         0.0785 
    120 H120      -47.9779  -25.8237   17.1701 H         1 UNK         0.0785 
    121 H121      -48.4742  -24.9942   14.7251 H         1 UNK         0.2998 
    122 H122      -47.8391  -22.2026   12.6387 H         1 UNK         0.0697 
    123 H123      -45.8719  -24.3547   13.5926 H         1 UNK         0.0825 
    124 H124      -45.5787  -22.6206   13.6168 H         1 UNK         0.0825 
    125 H125      -45.7638  -23.4558   12.0813 H         1 UNK         0.0825 
    126 H126      -47.7723  -24.9780   12.0702 H         1 UNK         0.3029 
    127 H127      -51.2985  -25.5172   11.7009 H         1 UNK         0.0897 
    128 H128      -50.3310  -26.4666    9.5604 H         1 UNK         0.0792 
    129 H129      -48.9233  -25.4264    9.7569 H         1 UNK         0.0792 
    130 H130      -50.5154  -24.7268    9.5349 H         1 UNK         0.0792 
    131 H131      -48.9742  -27.2210   11.6243 H         1 UNK         0.3086 
    132 H132      -49.0351  -28.1660   15.0293 H         1 UNK         0.0583 
    133 H133      -49.3565  -30.4635   14.2402 H         1 UNK         0.1020 
    134 H134      -50.8521  -29.6077   14.3787 H         1 UNK         0.1020 
    135 H135      -52.6032  -30.5293   12.6489 H         1 UNK         0.0694 
    136 H136      -52.2807  -28.8162   12.5401 H         1 UNK         0.0694 
    137 H137      -47.6394  -29.1117   12.6861 H         1 UNK         0.2989 
    138 H138      -44.8894  -26.8690   13.1310 H         1 UNK         0.1055 
    139 H139      -44.4987  -28.8010   14.6792 H         1 UNK         0.0806 
    140 H140      -43.6496  -29.0086   13.1581 H         1 UNK         0.0806 
    141 H141      -45.1339  -29.9088   13.4708 H         1 UNK         0.0806 
    142 H142      -45.1777  -28.8272   11.1647 H         1 UNK         0.3061 
    143 H143      -45.2959  -28.0149    8.9923 H         1 UNK         0.0734 
    144 H144      -47.4100  -28.6663    7.8308 H         1 UNK         0.0832 
    145 H145      -47.3980  -29.3109    9.4640 H         1 UNK         0.0832 
    146 H146      -48.3688  -27.8949    9.0875 H         1 UNK         0.0832 
    147 H147      -47.1493  -26.1250    7.9000 H         1 UNK         0.3156 
    148 H148      -45.0520  -23.2558    8.1004 H         1 UNK         0.0589 
    149 H149      -45.5544  -24.9306    5.5844 H         1 UNK         0.0808 
    150 H150      -45.2169  -23.2000    5.6097 H         1 UNK         0.0808 
    151 H151      -43.9966  -24.3435    6.1450 H         1 UNK         0.0808 
    152 H152      -47.6562  -24.4512    7.2225 H         1 UNK         0.3098 
    153 H153      -49.5534  -22.7101    8.6618 H         1 UNK         0.0720 
    154 H154      -49.0082  -20.4815    6.6249 H         1 UNK         0.0791 
    155 H155      -49.1926  -20.2742    8.3628 H         1 UNK         0.0791 
    156 H156      -50.5625  -20.7923    7.3978 H         1 UNK         0.0791 
    157 H157      -48.9060  -23.3114    5.8560 H         1 UNK         0.3028 
@<TRIPOS>BOND
     1    1    2 1    
     2    1   82 1    
     3    1   83 1    
     4    1   84 1    
     5    2    3 2    
     6    2    4 am   BACKBONE|DICT|INTERRES
     7    4    5 1    
     8    4   85 1    
     9    5    6 1    
    10    5   80 1    
    11    5   86 1    
    12    6    7 1    
    13    6   87 1    
    14    6   88 1    
    15    7    8 1    
    16    8    9 1    
    17    8   89 1    
    18    8   90 1    
    19    9   10 ar   
    20    9   14 ar   
    21   10   11 ar   
    22   10   91 1    
    23   11   12 ar   
    24   11   58 1    
    25   12   13 ar   
    26   12   92 1    
    27   13   14 ar   
    28   13   15 1    
    29   14   93 1    
    30   15   16 1    
    31   15   94 1    
    32   15   95 1    
    33   16   17 1    
    34   17   18 1    
    35   17   96 1    
    36   17   97 1    
    37   18   19 1    
    38   18   22 1    
    39   18   98 1    
    40   19   20 am   BACKBONE|DICT|INTERRES
    41   19   21 2    
    42   20   99 1    
    43   20  100 1    
    44   22   23 am   BACKBONE|DICT|INTERRES
    45   22  101 1    
    46   23   24 2    
    47   23   25 1    
    48   25   26 1    
    49   25   27 1    
    50   25  102 1    
    51   26  103 1    
    52   26  104 1    
    53   26  105 1    
    54   27   28 am   BACKBONE|DICT|INTERRES
    55   27  106 1    
    56   28   29 2    
    57   28   30 1    
    58   30   31 1    
    59   30   32 1    
    60   30  107 1    
    61   31  108 1    
    62   31  109 1    
    63   31  110 1    
    64   32   33 am   BACKBONE|DICT|INTERRES
    65   32  111 1    
    66   33   34 2    
    67   33   35 1    
    68   35   36 1    
    69   35   37 1    
    70   35  112 1    
    71   36  113 1    
    72   36  114 1    
    73   36  115 1    
    74   37   38 am   BACKBONE|DICT|INTERRES
    75   37  116 1    
    76   38   39 2    
    77   38   40 1    
    78   40   41 1    
    79   40   42 1    
    80   40  117 1    
    81   41  118 1    
    82   41  119 1    
    83   41  120 1    
    84   42   43 am   BACKBONE|DICT|INTERRES
    85   42  121 1    
    86   43   44 2    
    87   43   45 1    
    88   45   46 1    
    89   45   47 1    
    90   45  122 1    
    91   46  123 1    
    92   46  124 1    
    93   46  125 1    
    94   47   48 am   BACKBONE|DICT|INTERRES
    95   47  126 1    
    96   48   49 2    
    97   48   50 1    
    98   50   51 1    
    99   50   52 1    
   100   50  127 1    
   101   51  128 1    
   102   51  129 1    
   103   51  130 1    
   104   52   53 am   BACKBONE|DICT|INTERRES
   105   52  131 1    
   106   53   54 2    
   107   53   55 1    
   108   55   56 1    
   109   55   59 1    
   110   55  132 1    
   111   56   57 1    
   112   56  133 1    
   113   56  134 1    
   114   57   58 1    
   115   58  135 1    
   116   58  136 1    
   117   59   60 am   BACKBONE|DICT|INTERRES
   118   59  137 1    
   119   60   61 2    
   120   60   62 1    
   121   62   63 1    
   122   62   64 1    
   123   62  138 1    
   124   63  139 1    
   125   63  140 1    
   126   63  141 1    
   127   64   65 am   BACKBONE|DICT|INTERRES
   128   64  142 1    
   129   65   66 2    
   130   65   67 1    
   131   67   68 1    
   132   67   69 1    
   133   67  143 1    
   134   68  144 1    
   135   68  145 1    
   136   68  146 1    
   137   69   70 am   BACKBONE|DICT|INTERRES
   138   69  147 1    
   139   70   71 2    
   140   70   72 1    
   141   72   73 1    
   142   72   74 1    
   143   72  148 1    
   144   73  149 1    
   145   73  150 1    
   146   73  151 1    
   147   74   75 am   BACKBONE|DICT|INTERRES
   148   74  152 1    
   149   75   76 2    
   150   75   77 1    
   151   77   78 1    
   152   77   79 1    
   153   77  153 1    
   154   78  154 1    
   155   78  155 1    
   156   78  156 1    
   157   79   80 am   BACKBONE|DICT|INTERRES
   158   79  157 1    
   159   80   81 2    
@<TRIPOS>SUBSTRUCTURE
     1 UNK         1 GROUP             0       ****    0 ROOT    
