@<TRIPOS>MOLECULE
3R207
157   159    1
SMALL
USER_CHARGES


@<TRIPOS>ATOM
      1 CA        -51.5536  -27.1191    2.1591 C.3       0 UNK        -0.1975 
      2 C         -51.5451  -25.9529    3.1364 C.2       0 UNK         0.4852 
      3 O         -51.6529  -24.8010    2.7144 O.2       0 UNK        -0.5216 
      4 N         -51.4188  -26.2446    4.4383 N.am      1 UNK        -0.4461 
      5 CA        -51.3832  -25.2518    5.5216 C.3       1 UNK         0.0864 
      6 C6        -51.6185  -25.8986    6.9118 C.3       14 UNK        -0.0898 
      7 S7        -53.3050  -26.5758    7.0777 S.3       14 UNK        -0.2598 
      8 C8        -53.0495  -28.3595    6.8142 C.3       14 UNK         0.0286 
      9 C9        -52.6538  -29.0880    8.0910 C.ar      14 UNK        -0.0844 
     10 C10       -51.3101  -29.3523    8.3738 C.ar      14 UNK        -0.0881 
     11 C11       -50.9543  -30.0777    9.5153 C.ar      14 UNK        -0.0643 
     12 C12       -51.9532  -30.5474   10.3737 C.ar      14 UNK        -0.0930 
     13 C13       -53.2996  -30.2845   10.1054 C.ar      14 UNK        -0.0827 
     14 C14       -53.6420  -29.5455    8.9683 C.ar      14 UNK        -0.1249 
     15 C15       -54.3849  -30.8034   11.0371 C.3       14 UNK         0.0141 
     16 S16       -55.3802  -32.0998   10.2317 S.3       14 UNK        -0.2313 
     17 C17       -56.3490  -32.7774   11.6223 C.3       14 UNK        -0.0915 
     18 CA        -57.7698  -32.1457   11.7422 C.3       13 UNK         0.0968 
     19 C         -58.7328  -32.9752   12.6491 C.2       13 UNK         0.5732 
     20 N         -59.6782  -32.3567   13.3470 N.am      13 UNK        -0.7310 
     21 O         -58.6521  -34.2008   12.6960 O.2       13 UNK        -0.5035 
     22 N         -57.7206  -30.7028   12.0477 N.am      13 UNK        -0.4233 
     23 C         -57.2348  -30.1639   13.1731 C.2       13 UNK         0.4989 
     24 O         -56.8331  -30.8148   14.1418 O.2       13 UNK        -0.4996 
     25 CA        -57.1742  -28.6342   13.2247 C.3       12 UNK         0.0216 
     26 CB        -58.4692  -28.0515   13.8149 C.3       12 UNK        -0.1964 
     27 N         -56.0435  -28.2687   14.0732 N.am      12 UNK        -0.4276 
     28 C         -55.0668  -27.4179   13.7490 C.2       12 UNK         0.5020 
     29 O         -55.0469  -26.7490   12.7124 O.2       12 UNK        -0.5489 
     30 CA        -53.8872  -27.3543   14.7359 C.3       11 UNK         0.0294 
     31 CB        -52.8718  -28.4651   14.4164 C.3       11 UNK        -0.2019 
     32 N         -53.2030  -26.0604   14.7067 N.am      11 UNK        -0.4493 
     33 C         -53.7393  -24.9016   15.1141 C.2       11 UNK         0.4932 
     34 O         -54.8590  -24.8068   15.6221 O.2       11 UNK        -0.5029 
     35 CA        -52.8615  -23.6477   14.9341 C.3       10 UNK         0.0280 
     36 CB        -53.4867  -22.3707   15.5352 C.3       10 UNK        -0.1976 
     37 N         -51.4947  -23.8451   15.4277 N.am      10 UNK        -0.4242 
     38 C         -51.1079  -24.1432   16.6784 C.2       10 UNK         0.5072 
     39 O         -51.8805  -24.2356   17.6335 O.2       10 UNK        -0.5224 
     40 CA        -49.6075  -24.4052   16.9194 C.3       9 UNK         0.0343 
     41 CB        -49.3766  -25.8925   17.2367 C.3       9 UNK        -0.2003 
     42 N         -48.7494  -24.0242   15.7940 N.am      9 UNK        -0.4272 
     43 C         -48.4208  -22.7671   15.4641 C.2       9 UNK         0.4988 
     44 O         -48.7399  -21.7792   16.1261 O.2       9 UNK        -0.5108 
     45 CA        -47.6424  -22.5773   14.1482 C.3       8 UNK         0.0248 
     46 CB        -46.1365  -22.7894   14.3674 C.3       8 UNK        -0.2001 
     47 N         -48.1157  -23.4550   13.0717 N.am      8 UNK        -0.4140 
     48 C         -49.3546  -23.4264   12.5566 C.2       8 UNK         0.5028 
     49 O         -50.2217  -22.6240   12.9002 O.2       8 UNK        -0.5428 
     50 CA        -49.7104  -24.5096   11.5302 C.3       7 UNK         0.0264 
     51 CB        -49.2450  -24.1121   10.1235 C.3       7 UNK        -0.1988 
     52 N         -49.1456  -25.8081   11.8959 N.am      7 UNK        -0.4454 
     53 C         -49.6097  -26.5728   12.8938 C.2       7 UNK         0.5027 
     54 O         -50.5818  -26.2681   13.5862 O.2       7 UNK        -0.5083 
     55 CA        -48.8419  -27.8778   13.1963 C.3       6 UNK         0.0844 
     56 C56       -49.3075  -29.0445   12.2891 C.3       14 UNK        -0.0967 
     57 S57       -48.6578  -28.9563   10.5818 S.3       14 UNK        -0.2604 
     58 C58       -49.4903  -30.3731    9.8040 C.3       14 UNK         0.0134 
     59 N         -47.3876  -27.7000   13.1617 N.am      6 UNK        -0.4116 
     60 C         -46.6830  -26.9056   13.9773 C.2       5 UNK         0.5034 
     61 O         -47.1756  -26.2633   14.9025 O.2       5 UNK        -0.5045 
     62 CA        -45.1792  -26.7626   13.6807 C.3       5 UNK         0.0224 
     63 CB        -44.3830  -27.8582   14.4069 C.3       5 UNK        -0.1978 
     64 N         -44.8397  -26.7748   12.2512 N.am      5 UNK        -0.4737 
     65 C         -45.3430  -25.9391   11.3324 C.2       4 UNK         0.5027 
     66 O         -46.1917  -25.0804   11.5895 O.2       4 UNK        -0.5211 
     67 CA        -44.8385  -26.1306    9.8913 C.3       4 UNK         0.0297 
     68 CB        -45.2981  -27.4826    9.3191 C.3       4 UNK        -0.1993 
     69 N         -45.3515  -25.0750    9.0239 N.am      4 UNK        -0.4486 
     70 C         -44.8324  -23.8558    8.8672 C.2       3 UNK         0.4961 
     71 O         -43.7335  -23.5231    9.3158 O.2       3 UNK        -0.5105 
     72 CA        -45.6994  -22.8374    8.0897 C.3       3 UNK         0.0299 
     73 CB        -44.9731  -21.4974    7.8653 C.3       3 UNK        -0.1972 
     74 N         -46.2148  -23.3151    6.7976 N.am      3 UNK        -0.4305 
     75 C         -47.1504  -24.2557    6.6057 C.2       2 UNK         0.5006 
     76 O         -47.6272  -24.9470    7.5084 O.2       2 UNK        -0.5106 
     77 CA        -47.6122  -24.4833    5.1557 C.3       2 UNK         0.0296 
     78 CB        -46.6459  -25.4318    4.4272 C.3       2 UNK        -0.2002 
     79 N         -48.9637  -25.0487    5.1018 N.am      2 UNK        -0.4032 
     80 C         -50.0777  -24.4276    5.5216 C.2       1 UNK         0.5000 
     81 O         -50.1078  -23.2525    5.8940 O.2       1 UNK        -0.5238 
     82 H82       -50.7266  -27.0249    1.4558 H         1 UNK         0.0889 
     83 H83       -51.4597  -28.0790    2.6666 H         1 UNK         0.0889 
     84 H84       -52.4841  -27.1257    1.5921 H         1 UNK         0.0889 
     85 H85       -51.3463  -27.2098    4.7222 H         1 UNK         0.3028 
     86 H86       -52.1938  -24.5414    5.3425 H         1 UNK         0.0864 
     87 H87       -50.8767  -26.6715    7.1182 H         1 UNK         0.0720 
     88 H88       -51.5011  -25.1542    7.7021 H         1 UNK         0.0720 
     89 H89       -53.9781  -28.7860    6.4317 H         1 UNK         0.0814 
     90 H90       -52.3064  -28.5238    6.0338 H         1 UNK         0.0814 
     91 H91       -50.5373  -29.0052    7.7020 H         1 UNK         0.1469 
     92 H92       -51.6807  -31.1206   11.2493 H         1 UNK         0.1381 
     93 H93       -54.6836  -29.3478    8.7537 H         1 UNK         0.1206 
     94 H94       -55.0261  -29.9706   11.3240 H         1 UNK         0.0813 
     95 H95       -53.9493  -31.1949   11.9577 H         1 UNK         0.0813 
     96 H96       -56.4237  -33.8502   11.4374 H         1 UNK         0.0638 
     97 H97       -55.7886  -32.6788   12.5527 H         1 UNK         0.0638 
     98 H98       -58.2292  -32.2120   10.7555 H         1 UNK         0.0568 
     99 H99       -60.3032  -32.9011   13.9201 H         1 UNK         0.3450 
    100 H100      -59.7678  -31.3544   13.3118 H         1 UNK         0.3450 
    101 H101      -58.0573  -30.0935   11.3162 H         1 UNK         0.2987 
    102 H102      -57.0328  -28.2532   12.2107 H         1 UNK         0.0766 
    103 H103      -59.3309  -28.3012   13.1947 H         1 UNK         0.0798 
    104 H104      -58.4190  -26.9641   13.8764 H         1 UNK         0.0798 
    105 H105      -58.6649  -28.4335   14.8179 H         1 UNK         0.0798 
    106 H106      -55.9390  -28.8499   14.8956 H         1 UNK         0.3198 
    107 H107      -54.2678  -27.5056   15.7485 H         1 UNK         0.0843 
    108 H108      -52.0229  -28.4387   15.1001 H         1 UNK         0.0831 
    109 H109      -52.4874  -28.3718   13.3999 H         1 UNK         0.0831 
    110 H110      -53.3273  -29.4525   14.5019 H         1 UNK         0.0831 
    111 H111      -52.2736  -26.0509   14.2895 H         1 UNK         0.3133 
    112 H112      -52.7736  -23.4926   13.8578 H         1 UNK         0.0566 
    113 H113      -54.4562  -22.1612   15.0817 H         1 UNK         0.0814 
    114 H114      -53.6443  -22.4615   16.6103 H         1 UNK         0.0814 
    115 H115      -52.8530  -21.5010   15.3607 H         1 UNK         0.0814 
    116 H116      -50.7755  -23.7833   14.7181 H         1 UNK         0.3091 
    117 H117      -49.3106  -23.8194   17.7917 H         1 UNK         0.0702 
    118 H118      -49.6537  -26.5292   16.3953 H         1 UNK         0.0785 
    119 H119      -49.9698  -26.2089   18.0957 H         1 UNK         0.0785 
    120 H120      -48.3314  -26.0895   17.4758 H         1 UNK         0.0785 
    121 H121      -48.3657  -24.7886   15.2443 H         1 UNK         0.2998 
    122 H122      -47.7953  -21.5477   13.8181 H         1 UNK         0.0697 
    123 H123      -45.5752  -22.6538   13.4426 H         1 UNK         0.0825 
    124 H124      -45.7460  -22.0753   15.0936 H         1 UNK         0.0825 
    125 H125      -45.9218  -23.7875   14.7477 H         1 UNK         0.0825 
    126 H126      -47.4496  -24.1215   12.6871 H         1 UNK         0.3029 
    127 H127      -50.7988  -24.6039   11.5097 H         1 UNK         0.0897 
    128 H128      -49.5518  -24.8524    9.3847 H         1 UNK         0.0792 
    129 H129      -49.6761  -23.1566    9.8222 H         1 UNK         0.0792 
    130 H130      -48.1610  -24.0130   10.0685 H         1 UNK         0.0792 
    131 H131      -48.3105  -26.0984   11.4055 H         1 UNK         0.3086 
    132 H132      -49.0982  -28.1484   14.2231 H         1 UNK         0.0583 
    133 H133      -48.9802  -29.9904   12.7236 H         1 UNK         0.1020 
    134 H134      -50.3970  -29.0955   12.2617 H         1 UNK         0.1020 
    135 H135      -48.9775  -30.6112    8.8710 H         1 UNK         0.0694 
    136 H136      -49.3881  -31.2540   10.4398 H         1 UNK         0.0694 
    137 H137      -46.9026  -28.1739   12.4139 H         1 UNK         0.2989 
    138 H138      -44.8639  -25.7961   14.0778 H         1 UNK         0.1055 
    139 H139      -44.6036  -27.8572   15.4755 H         1 UNK         0.0806 
    140 H140      -44.6208  -28.8523   14.0262 H         1 UNK         0.0806 
    141 H141      -43.3088  -27.7054   14.3015 H         1 UNK         0.0806 
    142 H142      -44.1500  -27.4529   11.9588 H         1 UNK         0.3061 
    143 H143      -43.7471  -26.0974    9.9004 H         1 UNK         0.0734 
    144 H144      -44.9134  -27.6327    8.3102 H         1 UNK         0.0832 
    145 H145      -44.9457  -28.3195    9.9228 H         1 UNK         0.0832 
    146 H146      -46.3854  -27.5478    9.2693 H         1 UNK         0.0832 
    147 H147      -46.2758  -25.2245    8.6205 H         1 UNK         0.3156 
    148 H148      -46.5631  -22.6312    8.7251 H         1 UNK         0.0589 
    149 H149      -45.6271  -20.7635    7.3939 H         1 UNK         0.0808 
    150 H150      -44.6417  -21.0667    8.8113 H         1 UNK         0.0808 
    151 H151      -44.0912  -21.6180    7.2348 H         1 UNK         0.0808 
    152 H152      -45.8494  -22.8428    5.9830 H         1 UNK         0.3098 
    153 H153      -47.6270  -23.5217    4.6383 H         1 UNK         0.0720 
    154 H154      -46.5984  -26.4085    4.9110 H         1 UNK         0.0791 
    155 H155      -46.9454  -25.5845    3.3900 H         1 UNK         0.0791 
    156 H156      -45.6330  -25.0270    4.4128 H         1 UNK         0.0791 
    157 H157      -49.0368  -26.0163    4.8269 H         1 UNK         0.3028 
@<TRIPOS>BOND
     1    1    2 1    
     2    1   82 1    
     3    1   83 1    
     4    1   84 1    
     5    2    3 2    
     6    2    4 am   BACKBONE|DICT|INTERRES
     7    4    5 1    
     8    4   85 1    
     9    5    6 1    
    10    5   80 1    
    11    5   86 1    
    12    6    7 1    
    13    6   87 1    
    14    6   88 1    
    15    7    8 1    
    16    8    9 1    
    17    8   89 1    
    18    8   90 1    
    19    9   10 ar   
    20    9   14 ar   
    21   10   11 ar   
    22   10   91 1    
    23   11   12 ar   
    24   11   58 1    
    25   12   13 ar   
    26   12   92 1    
    27   13   14 ar   
    28   13   15 1    
    29   14   93 1    
    30   15   16 1    
    31   15   94 1    
    32   15   95 1    
    33   16   17 1    
    34   17   18 1    
    35   17   96 1    
    36   17   97 1    
    37   18   19 1    
    38   18   22 1    
    39   18   98 1    
    40   19   20 am   BACKBONE|DICT|INTERRES
    41   19   21 2    
    42   20   99 1    
    43   20  100 1    
    44   22   23 am   BACKBONE|DICT|INTERRES
    45   22  101 1    
    46   23   24 2    
    47   23   25 1    
    48   25   26 1    
    49   25   27 1    
    50   25  102 1    
    51   26  103 1    
    52   26  104 1    
    53   26  105 1    
    54   27   28 am   BACKBONE|DICT|INTERRES
    55   27  106 1    
    56   28   29 2    
    57   28   30 1    
    58   30   31 1    
    59   30   32 1    
    60   30  107 1    
    61   31  108 1    
    62   31  109 1    
    63   31  110 1    
    64   32   33 am   BACKBONE|DICT|INTERRES
    65   32  111 1    
    66   33   34 2    
    67   33   35 1    
    68   35   36 1    
    69   35   37 1    
    70   35  112 1    
    71   36  113 1    
    72   36  114 1    
    73   36  115 1    
    74   37   38 am   BACKBONE|DICT|INTERRES
    75   37  116 1    
    76   38   39 2    
    77   38   40 1    
    78   40   41 1    
    79   40   42 1    
    80   40  117 1    
    81   41  118 1    
    82   41  119 1    
    83   41  120 1    
    84   42   43 am   BACKBONE|DICT|INTERRES
    85   42  121 1    
    86   43   44 2    
    87   43   45 1    
    88   45   46 1    
    89   45   47 1    
    90   45  122 1    
    91   46  123 1    
    92   46  124 1    
    93   46  125 1    
    94   47   48 am   BACKBONE|DICT|INTERRES
    95   47  126 1    
    96   48   49 2    
    97   48   50 1    
    98   50   51 1    
    99   50   52 1    
   100   50  127 1    
   101   51  128 1    
   102   51  129 1    
   103   51  130 1    
   104   52   53 am   BACKBONE|DICT|INTERRES
   105   52  131 1    
   106   53   54 2    
   107   53   55 1    
   108   55   56 1    
   109   55   59 1    
   110   55  132 1    
   111   56   57 1    
   112   56  133 1    
   113   56  134 1    
   114   57   58 1    
   115   58  135 1    
   116   58  136 1    
   117   59   60 am   BACKBONE|DICT|INTERRES
   118   59  137 1    
   119   60   61 2    
   120   60   62 1    
   121   62   63 1    
   122   62   64 1    
   123   62  138 1    
   124   63  139 1    
   125   63  140 1    
   126   63  141 1    
   127   64   65 am   BACKBONE|DICT|INTERRES
   128   64  142 1    
   129   65   66 2    
   130   65   67 1    
   131   67   68 1    
   132   67   69 1    
   133   67  143 1    
   134   68  144 1    
   135   68  145 1    
   136   68  146 1    
   137   69   70 am   BACKBONE|DICT|INTERRES
   138   69  147 1    
   139   70   71 2    
   140   70   72 1    
   141   72   73 1    
   142   72   74 1    
   143   72  148 1    
   144   73  149 1    
   145   73  150 1    
   146   73  151 1    
   147   74   75 am   BACKBONE|DICT|INTERRES
   148   74  152 1    
   149   75   76 2    
   150   75   77 1    
   151   77   78 1    
   152   77   79 1    
   153   77  153 1    
   154   78  154 1    
   155   78  155 1    
   156   78  156 1    
   157   79   80 am   BACKBONE|DICT|INTERRES
   158   79  157 1    
   159   80   81 2    
@<TRIPOS>SUBSTRUCTURE
     1 UNK         1 GROUP             0       ****    0 ROOT    
