@<TRIPOS>MOLECULE
3R207
157   159    1
SMALL
USER_CHARGES


@<TRIPOS>ATOM
      1 CA        -48.0114  -28.8385    0.3221 C.3       0 UNK        -0.1975 
      2 C         -48.7967  -27.9910    1.3125 C.2       0 UNK         0.4852 
      3 O         -48.5015  -26.8056    1.4723 O.2       0 UNK        -0.5216 
      4 N         -49.7996  -28.5866    1.9689 N.am      1 UNK        -0.4461 
      5 CA        -50.6092  -27.9574    3.0160 C.3       1 UNK         0.0864 
      6 C6        -51.9677  -28.6879    3.2044 C.3       14 UNK        -0.0898 
      7 S7        -51.8200  -30.4703    3.5892 S.3       14 UNK        -0.2598 
      8 C8        -53.0638  -30.6908    4.9080 C.3       14 UNK         0.0286 
      9 C9        -52.6684  -30.0763    6.2487 C.ar      14 UNK        -0.0844 
     10 C10       -51.4200  -30.3454    6.8222 C.ar      14 UNK        -0.0881 
     11 C11       -51.0720  -29.8188    8.0713 C.ar      14 UNK        -0.0643 
     12 C12       -52.0033  -29.0275    8.7527 C.ar      14 UNK        -0.0930 
     13 C13       -53.2608  -28.7678    8.2074 C.ar      14 UNK        -0.0827 
     14 C14       -53.5844  -29.2844    6.9495 C.ar      14 UNK        -0.1249 
     15 C15       -54.2639  -27.9266    8.9838 C.3       14 UNK         0.0141 
     16 S16       -55.5004  -28.9620    9.8296 S.3       14 UNK        -0.2313 
     17 C17       -54.5316  -29.7335   11.1747 C.3       14 UNK        -0.0915 
     18 CA        -54.9751  -29.2501   12.5828 C.3       13 UNK         0.0968 
     19 C         -54.3931  -30.1264   13.7279 C.2       13 UNK         0.5732 
     20 N         -54.0083  -29.5627   14.8654 N.am      13 UNK        -0.7310 
     21 O         -54.3132  -31.3462   13.6013 O.2       13 UNK        -0.5035 
     22 N         -54.7005  -27.8154   12.7641 N.am      13 UNK        -0.4233 
     23 C         -55.6316  -26.8711   12.9314 C.2       13 UNK         0.4989 
     24 O         -56.8402  -27.0968   13.0259 O.2       13 UNK        -0.4996 
     25 CA        -55.1105  -25.4265   12.9745 C.3       12 UNK         0.0216 
     26 CB        -56.1818  -24.3900   12.5731 C.3       12 UNK        -0.1964 
     27 N         -54.5015  -25.0819   14.2624 N.am      12 UNK        -0.4276 
     28 C         -55.0802  -25.0109   15.4692 C.2       12 UNK         0.5020 
     29 O         -56.2572  -25.2970   15.6971 O.2       12 UNK        -0.5489 
     30 CA        -54.1779  -24.4914   16.6065 C.3       11 UNK         0.0294 
     31 CB        -54.8893  -24.4392   17.9761 C.3       11 UNK        -0.2019 
     32 N         -52.9046  -25.2131   16.7043 N.am      11 UNK        -0.4493 
     33 C         -52.7199  -26.5108   16.9879 C.2       11 UNK         0.4932 
     34 O         -53.6398  -27.3025   17.1953 O.2       11 UNK        -0.5029 
     35 CA        -51.2706  -27.0336   17.0527 C.3       10 UNK         0.0280 
     36 CB        -51.0659  -28.1919   16.0652 C.3       10 UNK        -0.1976 
     37 N         -50.2583  -26.0045   16.7966 N.am      10 UNK        -0.4242 
     38 C         -49.7856  -25.1478   17.7109 C.2       10 UNK         0.5072 
     39 O         -50.1416  -25.1373   18.8900 O.2       10 UNK        -0.5224 
     40 CA        -48.7631  -24.1057   17.2231 C.3       9 UNK         0.0343 
     41 CB        -47.3435  -24.6916   17.1874 C.3       9 UNK        -0.2003 
     42 N         -49.1104  -23.5152   15.9233 N.am      9 UNK        -0.4272 
     43 C         -50.1623  -22.7007   15.7522 C.2       9 UNK         0.4988 
     44 O         -50.9806  -22.4455   16.6370 O.2       9 UNK        -0.5108 
     45 CA        -50.3387  -22.0403   14.3760 C.3       8 UNK         0.0248 
     46 CB        -49.3026  -20.9226   14.1680 C.3       8 UNK        -0.2001 
     47 N         -50.3106  -22.9559   13.2347 N.am      8 UNK        -0.4140 
     48 C         -51.1154  -24.0111   13.0543 C.2       8 UNK         0.5028 
     49 O         -51.8827  -24.4389   13.9148 O.2       8 UNK        -0.5428 
     50 CA        -51.1044  -24.6707   11.6635 C.3       7 UNK         0.0264 
     51 CB        -50.6126  -23.7233   10.5492 C.3       7 UNK        -0.1988 
     52 N         -50.2918  -25.8829   11.6895 N.am      7 UNK        -0.4454 
     53 C         -50.6927  -27.0718   12.1619 C.2       7 UNK         0.5027 
     54 O         -51.8659  -27.3339   12.4411 O.2       7 UNK        -0.5083 
     55 CA        -49.6061  -28.1483   12.3945 C.3       6 UNK         0.0844 
     56 C56       -49.6327  -29.2906   11.3505 C.3       14 UNK        -0.0967 
     57 S57       -48.9834  -28.8224    9.7080 S.3       14 UNK        -0.2604 
     58 C58       -49.6941  -30.1361    8.6551 C.3       14 UNK         0.0134 
     59 N         -48.2591  -27.5932   12.5660 N.am      6 UNK        -0.4116 
     60 C         -47.8357  -26.9508   13.6618 C.2       5 UNK         0.5034 
     61 O         -48.5558  -26.6996   14.6255 O.2       5 UNK        -0.5045 
     62 CA        -46.3640  -26.5018   13.6779 C.3       5 UNK         0.0224 
     63 CB        -45.4029  -27.6894   13.4937 C.3       5 UNK        -0.1978 
     64 N         -46.0953  -25.4853   12.6638 N.am      5 UNK        -0.4737 
     65 C         -46.6195  -24.2528   12.6657 C.2       4 UNK         0.5027 
     66 O         -47.2879  -23.7951   13.5935 O.2       4 UNK        -0.5211 
     67 CA        -46.3806  -23.3868   11.4120 C.3       4 UNK         0.0297 
     68 CB        -45.2126  -22.4182   11.6549 C.3       4 UNK        -0.1993 
     69 N         -46.1492  -24.1225   10.1563 N.am      4 UNK        -0.4486 
     70 C         -46.9512  -25.0660    9.6430 C.2       3 UNK         0.4961 
     71 O         -47.9376  -25.5134   10.2308 O.2       3 UNK        -0.5105 
     72 CA        -46.5773  -25.6318    8.2657 C.3       3 UNK         0.0299 
     73 CB        -45.3996  -26.6127    8.3880 C.3       3 UNK        -0.1972 
     74 N         -47.7393  -26.3554    7.7593 N.am      3 UNK        -0.4305 
     75 C         -48.4511  -26.0596    6.6698 C.2       2 UNK         0.5006 
     76 O         -48.1247  -25.2269    5.8204 O.2       2 UNK        -0.5106 
     77 CA        -49.8014  -26.7832    6.5744 C.3       2 UNK         0.0296 
     78 CB        -50.8659  -26.0499    7.4046 C.3       2 UNK        -0.2002 
     79 N         -50.2854  -26.9275    5.2054 N.am      2 UNK        -0.4032 
     80 C         -49.8308  -27.8450    4.3443 C.2       1 UNK         0.5000 
     81 O         -48.8897  -28.6092    4.5847 O.2       1 UNK        -0.5238 
     82 H82       -48.0727  -28.4041   -0.6754 H         1 UNK         0.0889 
     83 H83       -48.3886  -29.8598    0.2708 H         1 UNK         0.0889 
     84 H84       -46.9621  -28.8789    0.6131 H         1 UNK         0.0889 
     85 H85       -49.9760  -29.5717    1.8299 H         1 UNK         0.3028 
     86 H86       -50.8307  -26.9387    2.6889 H         1 UNK         0.0864 
     87 H87       -52.5609  -28.1955    3.9773 H         1 UNK         0.0720 
     88 H88       -52.5551  -28.5977    2.2894 H         1 UNK         0.0720 
     89 H89       -53.2222  -31.7596    5.0568 H         1 UNK         0.0814 
     90 H90       -54.0168  -30.2885    4.5607 H         1 UNK         0.0814 
     91 H91       -50.7144  -30.9678    6.2888 H         1 UNK         0.1469 
     92 H92       -51.7614  -28.6008    9.7128 H         1 UNK         0.1381 
     93 H93       -54.5608  -29.0858    6.5291 H         1 UNK         0.1206 
     94 H94       -54.7783  -27.2518    8.2982 H         1 UNK         0.0813 
     95 H95       -53.7597  -27.2919    9.7150 H         1 UNK         0.0813 
     96 H96       -53.4668  -29.5498   11.0359 H         1 UNK         0.0638 
     97 H97       -54.6669  -30.8115   11.0730 H         1 UNK         0.0638 
     98 H98       -56.0499  -29.4248   12.6508 H         1 UNK         0.0568 
     99 H99       -53.6570  -30.1481   15.6051 H         1 UNK         0.3450 
    100 H100      -54.1073  -28.5707   15.0145 H         1 UNK         0.3450 
    101 H101      -53.7170  -27.5550   12.7195 H         1 UNK         0.2987 
    102 H102      -54.3128  -25.3597   12.2342 H         1 UNK         0.0766 
    103 H103      -55.7644  -23.3839   12.5354 H         1 UNK         0.0798 
    104 H104      -57.0218  -24.3782   13.2684 H         1 UNK         0.0798 
    105 H105      -56.5845  -24.6122   11.5841 H         1 UNK         0.0798 
    106 H106      -53.5030  -24.8578   14.2126 H         1 UNK         0.3198 
    107 H107      -53.9179  -23.4658   16.3386 H         1 UNK         0.0843 
    108 H108      -55.2194  -25.4262   18.3015 H         1 UNK         0.0831 
    109 H109      -55.7730  -23.8016   17.9309 H         1 UNK         0.0831 
    110 H110      -54.2355  -24.0321   18.7472 H         1 UNK         0.0831 
    111 H111      -52.0809  -24.6634   16.4942 H         1 UNK         0.3133 
    112 H112      -51.1158  -27.4269   18.0594 H         1 UNK         0.0566 
    113 H113      -51.6828  -29.0481   16.3371 H         1 UNK         0.0814 
    114 H114      -51.3381  -27.8990   15.0518 H         1 UNK         0.0814 
    115 H115      -50.0312  -28.5346   16.0555 H         1 UNK         0.0814 
    116 H116      -49.8425  -25.9957   15.8677 H         1 UNK         0.3091 
    117 H117      -48.7571  -23.2918   17.9517 H         1 UNK         0.0702 
    118 H118      -46.6245  -23.9793   16.7821 H         1 UNK         0.0785 
    119 H119      -47.2952  -25.5992   16.5897 H         1 UNK         0.0785 
    120 H120      -47.0115  -24.9547   18.1924 H         1 UNK         0.0785 
    121 H121      -48.4881  -23.6922   15.1371 H         1 UNK         0.2998 
    122 H122      -51.3270  -21.5759   14.3737 H         1 UNK         0.0697 
    123 H123      -48.2882  -21.3168   14.0968 H         1 UNK         0.0825 
    124 H124      -49.3187  -20.2159   14.9990 H         1 UNK         0.0825 
    125 H125      -49.5062  -20.3551   13.2599 H         1 UNK         0.0825 
    126 H126      -49.6796  -22.7127   12.4868 H         1 UNK         0.3029 
    127 H127      -52.1344  -24.9420   11.4269 H         1 UNK         0.0897 
    128 H128      -50.7395  -24.1709    9.5667 H         1 UNK         0.0792 
    129 H129      -49.5596  -23.4650   10.6537 H         1 UNK         0.0792 
    130 H130      -51.1838  -22.7937   10.5435 H         1 UNK         0.0792 
    131 H131      -49.3234  -25.7830   11.3895 H         1 UNK         0.3086 
    132 H132      -49.8680  -28.6154   13.3455 H         1 UNK         0.0583 
    133 H133      -49.0204  -30.1169   11.7152 H         1 UNK         0.1020 
    134 H134      -50.6378  -29.7057   11.2643 H         1 UNK         0.1020 
    135 H135      -48.9902  -30.3098    7.8395 H         1 UNK         0.0694 
    136 H136      -49.7481  -31.0699    9.2161 H         1 UNK         0.0694 
    137 H137      -47.6350  -27.6951   11.7792 H         1 UNK         0.2989 
    138 H138      -46.1629  -26.0593   14.6545 H         1 UNK         0.1055 
    139 H139      -45.6055  -28.4717   14.2267 H         1 UNK         0.0806 
    140 H140      -45.4853  -28.1395   12.5038 H         1 UNK         0.0806 
    141 H141      -44.3665  -27.3809   13.6326 H         1 UNK         0.0806 
    142 H142      -45.5638  -25.7687   11.8542 H         1 UNK         0.3061 
    143 H143      -47.2837  -22.7914   11.2679 H         1 UNK         0.0734 
    144 H144      -45.1082  -21.7053   10.8369 H         1 UNK         0.0832 
    145 H145      -45.3686  -21.8389   12.5664 H         1 UNK         0.0832 
    146 H146      -44.2656  -22.9481   11.7647 H         1 UNK         0.0832 
    147 H147      -45.3475  -23.8333    9.6136 H         1 UNK         0.3156 
    148 H148      -46.3090  -24.8070    7.6027 H         1 UNK         0.0589 
    149 H149      -45.6218  -27.4281    9.0782 H         1 UNK         0.0808 
    150 H150      -45.1542  -27.0538    7.4217 H         1 UNK         0.0808 
    151 H151      -44.5016  -26.1111    8.7503 H         1 UNK         0.0808 
    152 H152      -48.1545  -26.9853    8.4364 H         1 UNK         0.3098 
    153 H153      -49.6765  -27.7854    6.9822 H         1 UNK         0.0720 
    154 H154      -51.8573  -26.4752    7.2524 H         1 UNK         0.0791 
    155 H155      -50.9158  -24.9886    7.1578 H         1 UNK         0.0791 
    156 H156      -50.6414  -26.1392    8.4678 H         1 UNK         0.0791 
    157 H157      -51.0326  -26.3103    4.9242 H         1 UNK         0.3028 
@<TRIPOS>BOND
     1    1    2 1    
     2    1   82 1    
     3    1   83 1    
     4    1   84 1    
     5    2    3 2    
     6    2    4 am   BACKBONE|DICT|INTERRES
     7    4    5 1    
     8    4   85 1    
     9    5    6 1    
    10    5   80 1    
    11    5   86 1    
    12    6    7 1    
    13    6   87 1    
    14    6   88 1    
    15    7    8 1    
    16    8    9 1    
    17    8   89 1    
    18    8   90 1    
    19    9   10 ar   
    20    9   14 ar   
    21   10   11 ar   
    22   10   91 1    
    23   11   12 ar   
    24   11   58 1    
    25   12   13 ar   
    26   12   92 1    
    27   13   14 ar   
    28   13   15 1    
    29   14   93 1    
    30   15   16 1    
    31   15   94 1    
    32   15   95 1    
    33   16   17 1    
    34   17   18 1    
    35   17   96 1    
    36   17   97 1    
    37   18   19 1    
    38   18   22 1    
    39   18   98 1    
    40   19   20 am   BACKBONE|DICT|INTERRES
    41   19   21 2    
    42   20   99 1    
    43   20  100 1    
    44   22   23 am   BACKBONE|DICT|INTERRES
    45   22  101 1    
    46   23   24 2    
    47   23   25 1    
    48   25   26 1    
    49   25   27 1    
    50   25  102 1    
    51   26  103 1    
    52   26  104 1    
    53   26  105 1    
    54   27   28 am   BACKBONE|DICT|INTERRES
    55   27  106 1    
    56   28   29 2    
    57   28   30 1    
    58   30   31 1    
    59   30   32 1    
    60   30  107 1    
    61   31  108 1    
    62   31  109 1    
    63   31  110 1    
    64   32   33 am   BACKBONE|DICT|INTERRES
    65   32  111 1    
    66   33   34 2    
    67   33   35 1    
    68   35   36 1    
    69   35   37 1    
    70   35  112 1    
    71   36  113 1    
    72   36  114 1    
    73   36  115 1    
    74   37   38 am   BACKBONE|DICT|INTERRES
    75   37  116 1    
    76   38   39 2    
    77   38   40 1    
    78   40   41 1    
    79   40   42 1    
    80   40  117 1    
    81   41  118 1    
    82   41  119 1    
    83   41  120 1    
    84   42   43 am   BACKBONE|DICT|INTERRES
    85   42  121 1    
    86   43   44 2    
    87   43   45 1    
    88   45   46 1    
    89   45   47 1    
    90   45  122 1    
    91   46  123 1    
    92   46  124 1    
    93   46  125 1    
    94   47   48 am   BACKBONE|DICT|INTERRES
    95   47  126 1    
    96   48   49 2    
    97   48   50 1    
    98   50   51 1    
    99   50   52 1    
   100   50  127 1    
   101   51  128 1    
   102   51  129 1    
   103   51  130 1    
   104   52   53 am   BACKBONE|DICT|INTERRES
   105   52  131 1    
   106   53   54 2    
   107   53   55 1    
   108   55   56 1    
   109   55   59 1    
   110   55  132 1    
   111   56   57 1    
   112   56  133 1    
   113   56  134 1    
   114   57   58 1    
   115   58  135 1    
   116   58  136 1    
   117   59   60 am   BACKBONE|DICT|INTERRES
   118   59  137 1    
   119   60   61 2    
   120   60   62 1    
   121   62   63 1    
   122   62   64 1    
   123   62  138 1    
   124   63  139 1    
   125   63  140 1    
   126   63  141 1    
   127   64   65 am   BACKBONE|DICT|INTERRES
   128   64  142 1    
   129   65   66 2    
   130   65   67 1    
   131   67   68 1    
   132   67   69 1    
   133   67  143 1    
   134   68  144 1    
   135   68  145 1    
   136   68  146 1    
   137   69   70 am   BACKBONE|DICT|INTERRES
   138   69  147 1    
   139   70   71 2    
   140   70   72 1    
   141   72   73 1    
   142   72   74 1    
   143   72  148 1    
   144   73  149 1    
   145   73  150 1    
   146   73  151 1    
   147   74   75 am   BACKBONE|DICT|INTERRES
   148   74  152 1    
   149   75   76 2    
   150   75   77 1    
   151   77   78 1    
   152   77   79 1    
   153   77  153 1    
   154   78  154 1    
   155   78  155 1    
   156   78  156 1    
   157   79   80 am   BACKBONE|DICT|INTERRES
   158   79  157 1    
   159   80   81 2    
@<TRIPOS>SUBSTRUCTURE
     1 UNK         1 GROUP             0       ****    0 ROOT    
