@<TRIPOS>MOLECULE
3R207
157   159    1
SMALL
USER_CHARGES


@<TRIPOS>ATOM
      1 CA        -49.7376  -27.2777    2.5269 C.3       0 UNK        -0.1975 
      2 C         -50.3856  -26.3058    3.5020 C.2       0 UNK         0.4852 
      3 O         -49.9902  -25.1405    3.5578 O.2       0 UNK        -0.5216 
      4 N         -51.3850  -26.7742    4.2597 N.am      1 UNK        -0.4461 
      5 CA        -52.0765  -26.0258    5.3141 C.3       1 UNK         0.0864 
      6 C6        -53.4340  -26.6717    5.7332 C.3       14 UNK        -0.0898 
      7 S7        -53.5714  -28.4876    5.5284 S.3       14 UNK        -0.2598 
      8 C8        -54.0755  -29.0734    7.1875 C.3       14 UNK         0.0286 
      9 C9        -52.9390  -29.4063    8.1571 C.ar      14 UNK        -0.0844 
     10 C10       -51.6032  -29.5171    7.7493 C.ar      14 UNK        -0.0881 
     11 C11       -50.5994  -29.8566    8.6592 C.ar      14 UNK        -0.0643 
     12 C12       -50.9391  -30.1091    9.9912 C.ar      14 UNK        -0.0930 
     13 C13       -52.2586  -29.9752   10.4235 C.ar      14 UNK        -0.0827 
     14 C14       -53.2541  -29.6396    9.5003 C.ar      14 UNK        -0.1249 
     15 C15       -52.5883  -30.1410   11.8974 C.3       14 UNK         0.0141 
     16 S16       -53.4709  -31.6917   12.2316 S.3       14 UNK        -0.2313 
     17 C17       -53.5578  -31.6324   14.0530 C.3       14 UNK        -0.0915 
     18 CA        -54.9285  -31.1319   14.5789 C.3       13 UNK         0.0968 
     19 C         -55.0348  -31.3160   16.1212 C.2       13 UNK         0.5732 
     20 N         -55.1629  -30.2580   16.9142 N.am      13 UNK        -0.7310 
     21 O         -55.0104  -32.4443   16.6071 O.2       13 UNK        -0.5035 
     22 N         -55.2326  -29.7663   14.1166 N.am      13 UNK        -0.4233 
     23 C         -56.4712  -29.2782   13.9742 C.2       13 UNK         0.4989 
     24 O         -57.4931  -29.9372   14.1715 O.2       13 UNK        -0.4996 
     25 CA        -56.6089  -27.8078   13.5546 C.3       12 UNK         0.0216 
     26 CB        -56.8948  -26.9295   14.7845 C.3       12 UNK        -0.1964 
     27 N         -55.4192  -27.2892   12.8753 N.am      12 UNK        -0.4276 
     28 C         -55.2798  -27.1930   11.5442 C.2       12 UNK         0.5020 
     29 O         -56.0948  -27.6616   10.7477 O.2       12 UNK        -0.5489 
     30 CA        -54.0332  -26.4463   11.0047 C.3       11 UNK         0.0294 
     31 CB        -54.3106  -25.7065    9.6800 C.3       11 UNK        -0.2019 
     32 N         -53.3994  -25.5484   11.9786 N.am      11 UNK        -0.4493 
     33 C         -53.9795  -24.5450   12.6564 C.2       11 UNK         0.4932 
     34 O         -55.1048  -24.1118   12.4051 O.2       11 UNK        -0.5029 
     35 CA        -53.2003  -23.9667   13.8549 C.3       10 UNK         0.0280 
     36 CB        -54.1426  -23.4949   14.9822 C.3       10 UNK        -0.1976 
     37 N         -52.1707  -24.8594   14.4094 N.am      10 UNK        -0.4242 
     38 C         -52.3178  -26.1065   14.8904 C.2       10 UNK         0.5072 
     39 O         -53.3887  -26.7186   14.8693 O.2       10 UNK        -0.5224 
     40 CA        -51.0671  -26.8261   15.4429 C.3       9 UNK         0.0343 
     41 CB        -50.8505  -28.1617   14.7112 C.3       9 UNK        -0.2003 
     42 N         -49.8351  -26.0362   15.3500 N.am      9 UNK        -0.4272 
     43 C         -49.4787  -25.0449   16.1801 C.2       9 UNK         0.4988 
     44 O         -50.0987  -24.7491   17.2014 O.2       9 UNK        -0.5108 
     45 CA        -48.2647  -24.1934   15.7554 C.3       8 UNK         0.0248 
     46 CB        -46.9511  -24.8106   16.2603 C.3       8 UNK        -0.2001 
     47 N         -48.2024  -23.9903   14.3014 N.am      8 UNK        -0.4140 
     48 C         -49.1479  -23.3530   13.5938 C.2       8 UNK         0.5028 
     49 O         -50.1036  -22.7753   14.1082 O.2       8 UNK        -0.5428 
     50 CA        -49.0722  -23.4324   12.0636 C.3       7 UNK         0.0264 
     51 CB        -48.2246  -22.2829   11.4942 C.3       7 UNK        -0.1988 
     52 N         -48.5658  -24.7309   11.6100 N.am      7 UNK        -0.4454 
     53 C         -49.3069  -25.8514   11.5568 C.2       7 UNK         0.5027 
     54 O         -50.5159  -25.8764   11.7893 O.2       7 UNK        -0.5083 
     55 CA        -48.5801  -27.1717   11.2234 C.3       6 UNK         0.0844 
     56 C56       -48.7095  -27.5347    9.7237 C.3       14 UNK        -0.0967 
     57 S57       -47.9629  -29.1662    9.3652 S.3       14 UNK        -0.2604 
     58 C58       -49.1489  -29.9049    8.1898 C.3       14 UNK         0.0134 
     59 N         -47.1846  -27.1403   11.6666 N.am      6 UNK        -0.4116 
     60 C         -46.7960  -27.2087   12.9461 C.2       5 UNK         0.5034 
     61 O         -47.5792  -27.3375   13.8864 O.2       5 UNK        -0.5045 
     62 CA        -45.2910  -27.0508   13.2318 C.3       5 UNK         0.0224 
     63 CB        -44.6043  -28.4250   13.2558 C.3       5 UNK        -0.1978 
     64 N         -44.5963  -26.1747   12.2802 N.am      5 UNK        -0.4737 
     65 C         -44.8832  -24.8808   12.0798 C.2       4 UNK         0.5027 
     66 O         -45.7609  -24.2858   12.7058 O.2       4 UNK        -0.5211 
     67 CA        -44.1181  -24.1349   10.9639 C.3       4 UNK         0.0297 
     68 CB        -42.9592  -24.9506   10.3462 C.3       4 UNK        -0.1993 
     69 N         -45.0129  -23.6497    9.9000 N.am      4 UNK        -0.4486 
     70 C         -45.9015  -24.3826    9.2142 C.2       3 UNK         0.4961 
     71 O         -46.0988  -25.5821    9.4133 O.2       3 UNK        -0.5105 
     72 CA        -46.7273  -23.6735    8.1353 C.3       3 UNK         0.0299 
     73 CB        -46.2085  -24.0321    6.7304 C.3       3 UNK        -0.1972 
     74 N         -48.1132  -24.1020    8.3050 N.am      3 UNK        -0.4305 
     75 C         -49.1998  -23.5435    7.7631 C.2       2 UNK         0.5006 
     76 O         -49.1717  -22.6168    6.9510 O.2       2 UNK        -0.5106 
     77 CA        -50.5585  -24.0696    8.2589 C.3       2 UNK         0.0296 
     78 CB        -51.3382  -22.9522    8.9767 C.3       2 UNK        -0.2002 
     79 N         -51.3680  -24.5827    7.1560 N.am      2 UNK        -0.4032 
     80 C         -51.1498  -25.7397    6.5164 C.2       1 UNK         0.5000 
     81 O         -50.2791  -26.5507    6.8418 O.2       1 UNK        -0.5238 
     82 H82       -48.6769  -27.3834    2.7531 H         1 UNK         0.0889 
     83 H83       -49.8341  -26.9068    1.5069 H         1 UNK         0.0889 
     84 H84       -50.1942  -28.2663    2.5732 H         1 UNK         0.0889 
     85 H85       -51.6641  -27.7424    4.1831 H         1 UNK         0.3028 
     86 H86       -52.3153  -25.0513    4.8810 H         1 UNK         0.0864 
     87 H87       -54.2221  -26.2446    5.1112 H         1 UNK         0.0720 
     88 H88       -53.7078  -26.3951    6.7522 H         1 UNK         0.0720 
     89 H89       -54.7523  -28.3474    7.6387 H         1 UNK         0.0814 
     90 H90       -54.6632  -29.9818    7.0489 H         1 UNK         0.0814 
     91 H91       -51.3258  -29.3305    6.7223 H         1 UNK         0.1469 
     92 H92       -50.1662  -30.3689   10.7011 H         1 UNK         0.1381 
     93 H93       -54.2797  -29.5531    9.8331 H         1 UNK         0.1206 
     94 H94       -51.6739  -30.1178   12.4919 H         1 UNK         0.0813 
     95 H95       -53.1906  -29.2968   12.2294 H         1 UNK         0.0813 
     96 H96       -52.7453  -31.0203   14.4472 H         1 UNK         0.0638 
     97 H97       -53.3645  -32.6467   14.4073 H         1 UNK         0.0638 
     98 H98       -55.6862  -31.7967   14.1594 H         1 UNK         0.0568 
     99 H99       -55.1813  -29.3275   16.5305 H         1 UNK         0.3450 
    100 H100      -55.2355  -30.3957   17.9098 H         1 UNK         0.3450 
    101 H101      -54.4487  -29.1480   13.9789 H         1 UNK         0.2987 
    102 H102      -57.4715  -27.7389   12.8882 H         1 UNK         0.0766 
    103 H103      -57.7938  -27.2631   15.3046 H         1 UNK         0.0798 
    104 H104      -57.0542  -25.8898   14.4972 H         1 UNK         0.0798 
    105 H105      -56.0737  -26.9540   15.5020 H         1 UNK         0.0798 
    106 H106      -54.6919  -26.9038   13.4746 H         1 UNK         0.3198 
    107 H107      -53.2906  -27.2150   10.7950 H         1 UNK         0.0843 
    108 H108      -54.9891  -24.8647    9.8172 H         1 UNK         0.0831 
    109 H109      -54.7648  -26.3688    8.9443 H         1 UNK         0.0831 
    110 H110      -53.3872  -25.3324    9.2414 H         1 UNK         0.0831 
    111 H111      -52.4300  -25.7656   12.1988 H         1 UNK         0.3133 
    112 H112      -52.6750  -23.0910   13.4728 H         1 UNK         0.0566 
    113 H113      -54.7485  -24.3149   15.3698 H         1 UNK         0.0814 
    114 H114      -54.8268  -22.7227   14.6287 H         1 UNK         0.0814 
    115 H115      -53.5817  -23.0695   15.8145 H         1 UNK         0.0814 
    116 H116      -51.2484  -24.4411   14.4524 H         1 UNK         0.3091 
    117 H117      -51.2612  -27.0429   16.4951 H         1 UNK         0.0702 
    118 H118      -49.9747  -28.6872   15.0928 H         1 UNK         0.0785 
    119 H119      -50.7122  -28.0145   13.6401 H         1 UNK         0.0785 
    120 H120      -51.7065  -28.8236   14.8445 H         1 UNK         0.0785 
    121 H121      -49.2071  -26.2689   14.5883 H         1 UNK         0.2998 
    122 H122      -48.3734  -23.2095   16.2168 H         1 UNK         0.0697 
    123 H123      -46.0878  -24.2216   15.9499 H         1 UNK         0.0825 
    124 H124      -46.8128  -25.8282   15.8975 H         1 UNK         0.0825 
    125 H125      -46.9397  -24.8542   17.3501 H         1 UNK         0.0825 
    126 H126      -47.3926  -24.3568   13.8098 H         1 UNK         0.3029 
    127 H127      -50.0924  -23.3132   11.6952 H         1 UNK         0.0897 
    128 H128      -47.1841  -22.3394   11.8116 H         1 UNK         0.0792 
    129 H129      -48.6094  -21.3187   11.8293 H         1 UNK         0.0792 
    130 H130      -48.2437  -22.2691   10.4063 H         1 UNK         0.0792 
    131 H131      -47.5619  -24.8067   11.4994 H         1 UNK         0.3086 
    132 H132      -49.0879  -27.9556   11.7895 H         1 UNK         0.0583 
    133 H133      -49.7602  -27.5262    9.4309 H         1 UNK         0.1020 
    134 H134      -48.2307  -26.8023    9.0786 H         1 UNK         0.1020 
    135 H135      -49.0416  -29.3836    7.2369 H         1 UNK         0.0694 
    136 H136      -48.8696  -30.9437    8.0106 H         1 UNK         0.0694 
    137 H137      -46.4909  -26.9857   10.9431 H         1 UNK         0.2989 
    138 H138      -45.1945  -26.6024   14.2227 H         1 UNK         0.1055 
    139 H139      -45.0867  -29.0891   13.9748 H         1 UNK         0.0806 
    140 H140      -43.5572  -28.3416   13.5478 H         1 UNK         0.0806 
    141 H141      -44.6450  -28.9149   12.2820 H         1 UNK         0.0806 
    142 H142      -43.8803  -26.5986   11.7077 H         1 UNK         0.3061 
    143 H143      -43.6865  -23.2513   11.4365 H         1 UNK         0.0734 
    144 H144      -43.3123  -25.8405    9.8235 H         1 UNK         0.0832 
    145 H145      -42.4036  -24.3504    9.6255 H         1 UNK         0.0832 
    146 H146      -42.2453  -25.2676   11.1077 H         1 UNK         0.0832 
    147 H147      -44.9441  -22.6627    9.6922 H         1 UNK         0.3156 
    148 H148      -46.6697  -22.5933    8.2840 H         1 UNK         0.0589 
    149 H149      -46.7643  -23.5105    5.9514 H         1 UNK         0.0808 
    150 H150      -46.2867  -25.1027    6.5359 H         1 UNK         0.0808 
    151 H151      -45.1596  -23.7546    6.6189 H         1 UNK         0.0808 
    152 H152      -48.2186  -24.8758    8.9445 H         1 UNK         0.3098 
    153 H153      -50.3930  -24.8795    8.9715 H         1 UNK         0.0720 
    154 H154      -50.7091  -22.4244    9.6924 H         1 UNK         0.0791 
    155 H155      -52.1912  -23.3468    9.5278 H         1 UNK         0.0791 
    156 H156      -51.7080  -22.2033    8.2752 H         1 UNK         0.0791 
    157 H157      -52.0775  -23.9583    6.8009 H         1 UNK         0.3028 
@<TRIPOS>BOND
     1    1    2 1    
     2    1   82 1    
     3    1   83 1    
     4    1   84 1    
     5    2    3 2    
     6    2    4 am   BACKBONE|DICT|INTERRES
     7    4    5 1    
     8    4   85 1    
     9    5    6 1    
    10    5   80 1    
    11    5   86 1    
    12    6    7 1    
    13    6   87 1    
    14    6   88 1    
    15    7    8 1    
    16    8    9 1    
    17    8   89 1    
    18    8   90 1    
    19    9   10 ar   
    20    9   14 ar   
    21   10   11 ar   
    22   10   91 1    
    23   11   12 ar   
    24   11   58 1    
    25   12   13 ar   
    26   12   92 1    
    27   13   14 ar   
    28   13   15 1    
    29   14   93 1    
    30   15   16 1    
    31   15   94 1    
    32   15   95 1    
    33   16   17 1    
    34   17   18 1    
    35   17   96 1    
    36   17   97 1    
    37   18   19 1    
    38   18   22 1    
    39   18   98 1    
    40   19   20 am   BACKBONE|DICT|INTERRES
    41   19   21 2    
    42   20   99 1    
    43   20  100 1    
    44   22   23 am   BACKBONE|DICT|INTERRES
    45   22  101 1    
    46   23   24 2    
    47   23   25 1    
    48   25   26 1    
    49   25   27 1    
    50   25  102 1    
    51   26  103 1    
    52   26  104 1    
    53   26  105 1    
    54   27   28 am   BACKBONE|DICT|INTERRES
    55   27  106 1    
    56   28   29 2    
    57   28   30 1    
    58   30   31 1    
    59   30   32 1    
    60   30  107 1    
    61   31  108 1    
    62   31  109 1    
    63   31  110 1    
    64   32   33 am   BACKBONE|DICT|INTERRES
    65   32  111 1    
    66   33   34 2    
    67   33   35 1    
    68   35   36 1    
    69   35   37 1    
    70   35  112 1    
    71   36  113 1    
    72   36  114 1    
    73   36  115 1    
    74   37   38 am   BACKBONE|DICT|INTERRES
    75   37  116 1    
    76   38   39 2    
    77   38   40 1    
    78   40   41 1    
    79   40   42 1    
    80   40  117 1    
    81   41  118 1    
    82   41  119 1    
    83   41  120 1    
    84   42   43 am   BACKBONE|DICT|INTERRES
    85   42  121 1    
    86   43   44 2    
    87   43   45 1    
    88   45   46 1    
    89   45   47 1    
    90   45  122 1    
    91   46  123 1    
    92   46  124 1    
    93   46  125 1    
    94   47   48 am   BACKBONE|DICT|INTERRES
    95   47  126 1    
    96   48   49 2    
    97   48   50 1    
    98   50   51 1    
    99   50   52 1    
   100   50  127 1    
   101   51  128 1    
   102   51  129 1    
   103   51  130 1    
   104   52   53 am   BACKBONE|DICT|INTERRES
   105   52  131 1    
   106   53   54 2    
   107   53   55 1    
   108   55   56 1    
   109   55   59 1    
   110   55  132 1    
   111   56   57 1    
   112   56  133 1    
   113   56  134 1    
   114   57   58 1    
   115   58  135 1    
   116   58  136 1    
   117   59   60 am   BACKBONE|DICT|INTERRES
   118   59  137 1    
   119   60   61 2    
   120   60   62 1    
   121   62   63 1    
   122   62   64 1    
   123   62  138 1    
   124   63  139 1    
   125   63  140 1    
   126   63  141 1    
   127   64   65 am   BACKBONE|DICT|INTERRES
   128   64  142 1    
   129   65   66 2    
   130   65   67 1    
   131   67   68 1    
   132   67   69 1    
   133   67  143 1    
   134   68  144 1    
   135   68  145 1    
   136   68  146 1    
   137   69   70 am   BACKBONE|DICT|INTERRES
   138   69  147 1    
   139   70   71 2    
   140   70   72 1    
   141   72   73 1    
   142   72   74 1    
   143   72  148 1    
   144   73  149 1    
   145   73  150 1    
   146   73  151 1    
   147   74   75 am   BACKBONE|DICT|INTERRES
   148   74  152 1    
   149   75   76 2    
   150   75   77 1    
   151   77   78 1    
   152   77   79 1    
   153   77  153 1    
   154   78  154 1    
   155   78  155 1    
   156   78  156 1    
   157   79   80 am   BACKBONE|DICT|INTERRES
   158   79  157 1    
   159   80   81 2    
@<TRIPOS>SUBSTRUCTURE
     1 UNK         1 GROUP             0       ****    0 ROOT    
