@<TRIPOS>MOLECULE
3R207
157   159    1
SMALL
USER_CHARGES


@<TRIPOS>ATOM
      1 CA        -53.2237  -23.7374    9.5977 C.3       0 UNK        -0.1975 
      2 C         -52.1579  -24.1148    8.5805 C.2       0 UNK         0.4852 
      3 O         -51.8564  -23.3146    7.6940 O.2       0 UNK        -0.5216 
      4 N         -51.5770  -25.3171    8.7050 N.am      1 UNK        -0.4461 
      5 CA        -50.5764  -25.9333    7.8179 C.3       1 UNK         0.0864 
      6 C6        -51.0900  -26.1008    6.3594 C.3       14 UNK        -0.0898 
      7 S7        -50.1519  -27.3314    5.3892 S.3       14 UNK        -0.2598 
      8 C8        -51.1572  -28.8377    5.6041 C.3       14 UNK         0.0286 
      9 C9        -51.2206  -29.2634    7.0633 C.ar      14 UNK        -0.0844 
     10 C10       -50.1149  -29.8673    7.6685 C.ar      14 UNK        -0.0881 
     11 C11       -50.1358  -30.1852    9.0298 C.ar      14 UNK        -0.0643 
     12 C12       -51.2864  -29.9234    9.7799 C.ar      14 UNK        -0.0930 
     13 C13       -52.4081  -29.3475    9.1774 C.ar      14 UNK        -0.0827 
     14 C14       -52.3705  -29.0195    7.8197 C.ar      14 UNK        -0.1249 
     15 C15       -53.6674  -29.0900    9.9861 C.3       14 UNK         0.0141 
     16 S16       -53.7110  -27.3929   10.6384 S.3       14 UNK        -0.2313 
     17 C17       -55.4022  -27.3617   11.3274 C.3       14 UNK        -0.0915 
     18 CA        -55.4856  -27.0272   12.8472 C.3       13 UNK         0.0968 
     19 C         -56.9632  -27.0121   13.3386 C.2       13 UNK         0.5732 
     20 N         -57.3193  -27.6720   14.4330 N.am      13 UNK        -0.7310 
     21 O         -57.8072  -26.3625   12.7256 O.2       13 UNK        -0.5035 
     22 N         -54.5550  -27.7948   13.6930 N.am      13 UNK        -0.4233 
     23 C         -54.4324  -29.1250   13.7750 C.2       13 UNK         0.4989 
     24 O         -55.1393  -29.9288   13.1675 O.2       13 UNK        -0.4996 
     25 CA        -53.3353  -29.6461   14.7110 C.3       12 UNK         0.0216 
     26 CB        -51.9422  -29.1523   14.2792 C.3       12 UNK        -0.1964 
     27 N         -53.6032  -29.2204   16.0844 N.am      12 UNK        -0.4276 
     28 C         -53.7865  -30.0461   17.1241 C.2       12 UNK         0.5020 
     29 O         -53.6997  -31.2729   17.0499 O.2       12 UNK        -0.5489 
     30 CA        -54.1212  -29.4106   18.4894 C.3       11 UNK         0.0294 
     31 CB        -52.8582  -29.3251   19.3621 C.3       11 UNK        -0.2019 
     32 N         -54.7253  -28.0791   18.3949 N.am      11 UNK        -0.4493 
     33 C         -55.9180  -27.8111   17.8459 C.2       11 UNK         0.4932 
     34 O         -56.6894  -28.6775   17.4347 O.2       11 UNK        -0.5029 
     35 CA        -56.3084  -26.3284   17.6925 C.3       10 UNK         0.0280 
     36 CB        -57.2730  -25.9162   18.8162 C.3       10 UNK        -0.1976 
     37 N         -55.1910  -25.3749   17.6446 N.am      10 UNK        -0.4242 
     38 C         -54.1486  -25.4040   16.8018 C.2       10 UNK         0.5072 
     39 O         -53.9135  -26.3264   16.0159 O.2       10 UNK        -0.5224 
     40 CA        -53.1684  -24.2259   16.9123 C.3       9 UNK         0.0343 
     41 CB        -52.1353  -24.5025   18.0173 C.3       9 UNK        -0.2003 
     42 N         -52.4557  -23.9675   15.6611 N.am      9 UNK        -0.4272 
     43 C         -53.0084  -23.5932   14.4974 C.2       9 UNK         0.4988 
     44 O         -54.2121  -23.3781   14.3487 O.2       9 UNK        -0.5108 
     45 CA        -52.0596  -23.3964   13.2985 C.3       8 UNK         0.0248 
     46 CB        -52.0380  -21.9236   12.8545 C.3       8 UNK        -0.2001 
     47 N         -50.6865  -23.8270   13.5818 N.am      8 UNK        -0.4140 
     48 C         -50.2456  -25.0823   13.4389 C.2       8 UNK         0.5028 
     49 O         -50.9236  -26.0058   12.9860 O.2       8 UNK        -0.5428 
     50 CA        -48.8207  -25.3611   13.9453 C.3       7 UNK         0.0264 
     51 CB        -48.8655  -25.9074   15.3828 C.3       7 UNK        -0.1988 
     52 N         -48.1214  -26.3203   13.0903 N.am      7 UNK        -0.4454 
     53 C         -47.7346  -26.0639   11.8346 C.2       7 UNK         0.5027 
     54 O         -47.8781  -24.9666   11.2864 O.2       7 UNK        -0.5083 
     55 CA        -47.0993  -27.2393   11.0689 C.3       6 UNK         0.0844 
     56 C56       -48.1915  -28.2092   10.5573 C.3       14 UNK        -0.0967 
     57 S57       -47.4885  -29.6607    9.7051 S.3       14 UNK        -0.2604 
     58 C58       -48.9107  -30.7992    9.6935 C.3       14 UNK         0.0134 
     59 N         -46.2720  -26.7193    9.9799 N.am      6 UNK        -0.4116 
     60 C         -45.0043  -26.3076   10.1106 C.2       5 UNK         0.5034 
     61 O         -44.3662  -26.3957   11.1620 O.2       5 UNK        -0.5045 
     62 CA        -44.3407  -25.6713    8.8711 C.3       5 UNK         0.0224 
     63 CB        -42.8044  -25.8239    8.8640 C.3       5 UNK        -0.1978 
     64 N         -44.9256  -26.1164    7.6002 N.am      5 UNK        -0.4737 
     65 C         -44.9304  -27.3559    7.0835 C.2       4 UNK         0.5027 
     66 O         -44.3254  -28.3061    7.5801 O.2       4 UNK        -0.5211 
     67 CA        -45.7698  -27.5884    5.8120 C.3       4 UNK         0.0297 
     68 CB        -46.7958  -28.7103    6.0420 C.3       4 UNK        -0.1993 
     69 N         -46.4915  -26.3813    5.4020 N.am      4 UNK        -0.4486 
     70 C         -46.0874  -25.5231    4.4557 C.2       3 UNK         0.4961 
     71 O         -45.0877  -25.6934    3.7576 O.2       3 UNK        -0.5105 
     72 CA        -46.9240  -24.2423    4.2649 C.3       3 UNK         0.0299 
     73 CB        -47.9601  -24.4434    3.1475 C.3       3 UNK        -0.1972 
     74 N         -47.6106  -23.7978    5.4817 N.am      3 UNK        -0.4305 
     75 C         -47.0070  -23.3975    6.6114 C.2       2 UNK         0.5006 
     76 O         -45.7870  -23.2988    6.7360 O.2       2 UNK        -0.5106 
     77 CA        -47.9085  -23.1262    7.8297 C.3       2 UNK         0.0296 
     78 CB        -48.2784  -21.6374    7.9117 C.3       2 UNK        -0.2002 
     79 N         -49.1321  -23.9326    7.8415 N.am      2 UNK        -0.4032 
     80 C         -49.1822  -25.2705    7.8682 C.2       1 UNK         0.5000 
     81 O         -48.1739  -25.9799    7.9007 O.2       1 UNK        -0.5238 
     82 H82       -54.1831  -23.6013    9.0996 H         1 UNK         0.0889 
     83 H83       -52.9596  -22.8015   10.0885 H         1 UNK         0.0889 
     84 H84       -53.3472  -24.5008   10.3636 H         1 UNK         0.0889 
     85 H85       -51.8697  -25.9096    9.4719 H         1 UNK         0.3028 
     86 H86       -50.4359  -26.9296    8.2353 H         1 UNK         0.0864 
     87 H87       -51.0631  -25.1497    5.8251 H         1 UNK         0.0720 
     88 H88       -52.1388  -26.4006    6.3655 H         1 UNK         0.0720 
     89 H89       -50.7224  -29.6420    5.0090 H         1 UNK         0.0814 
     90 H90       -52.1577  -28.6673    5.2038 H         1 UNK         0.0814 
     91 H91       -49.2232  -30.0589    7.0884 H         1 UNK         0.1469 
     92 H92       -51.3111  -30.1678   10.8328 H         1 UNK         0.1381 
     93 H93       -53.2314  -28.5555    7.3580 H         1 UNK         0.1206 
     94 H94       -53.7379  -29.7991   10.8117 H         1 UNK         0.0813 
     95 H95       -54.5435  -29.2608    9.3585 H         1 UNK         0.0813 
     96 H96       -55.9623  -26.6218   10.7531 H         1 UNK         0.0638 
     97 H97       -55.8926  -28.3163   11.1303 H         1 UNK         0.0638 
     98 H98       -55.1520  -25.9950   12.9602 H         1 UNK         0.0568 
     99 H99       -56.6497  -28.2196   14.9493 H         1 UNK         0.3450 
    100 H100      -58.2808  -27.6430   14.7312 H         1 UNK         0.3450 
    101 H101      -53.9924  -27.2223   14.3148 H         1 UNK         0.2987 
    102 H102      -53.3415  -30.7355   14.6355 H         1 UNK         0.0766 
    103 H103      -51.1563  -29.6450   14.8515 H         1 UNK         0.0798 
    104 H104      -51.8291  -28.0771   14.4215 H         1 UNK         0.0798 
    105 H105      -51.7583  -29.3621   13.2247 H         1 UNK         0.0798 
    106 H106      -53.7202  -28.2202   16.2308 H         1 UNK         0.3198 
    107 H107      -54.8390  -30.0674   18.9856 H         1 UNK         0.0843 
    108 H108      -52.1082  -28.6649   18.9243 H         1 UNK         0.0831 
    109 H109      -52.3980  -30.3075   19.4786 H         1 UNK         0.0831 
    110 H110      -53.0890  -28.9582   20.3624 H         1 UNK         0.0831 
    111 H111      -54.1640  -27.3011   18.7087 H         1 UNK         0.3133 
    112 H112      -56.8392  -26.2341   16.7443 H         1 UNK         0.0566 
    113 H113      -57.6609  -24.9095   18.6597 H         1 UNK         0.0814 
    114 H114      -58.1327  -26.5867   18.8596 H         1 UNK         0.0814 
    115 H115      -56.7895  -25.9436   19.7936 H         1 UNK         0.0814 
    116 H116      -55.2647  -24.5861   18.2715 H         1 UNK         0.3091 
    117 H117      -53.7309  -23.3252   17.1662 H         1 UNK         0.0702 
    118 H118      -52.6204  -24.6580   18.9819 H         1 UNK         0.0785 
    119 H119      -51.5440  -25.3941   17.8028 H         1 UNK         0.0785 
    120 H120      -51.4476  -23.6649   18.1374 H         1 UNK         0.0785 
    121 H121      -51.4638  -24.1426   15.6706 H         1 UNK         0.2998 
    122 H122      -52.4584  -23.9939   12.4776 H         1 UNK         0.0697 
    123 H123      -51.6719  -21.2677   13.6452 H         1 UNK         0.0825 
    124 H124      -53.0384  -21.5814   12.5854 H         1 UNK         0.0825 
    125 H125      -51.4034  -21.7821   11.9794 H         1 UNK         0.0825 
    126 H126      -50.0608  -23.1247   13.9514 H         1 UNK         0.3029 
    127 H127      -48.2512  -24.4287   13.9420 H         1 UNK         0.0897 
    128 H128      -47.8637  -26.1065   15.7642 H         1 UNK         0.0792 
    129 H129      -49.4391  -26.8337   15.4450 H         1 UNK         0.0792 
    130 H130      -49.3297  -25.1913   16.0618 H         1 UNK         0.0792 
    131 H131      -48.0012  -27.2514   13.4616 H         1 UNK         0.3086 
    132 H132      -46.4597  -27.7873   11.7645 H         1 UNK         0.0583 
    133 H133      -48.8077  -28.5645   11.3857 H         1 UNK         0.1020 
    134 H134      -48.8705  -27.7009    9.8720 H         1 UNK         0.1020 
    135 H135      -48.6315  -31.7084    9.1594 H         1 UNK         0.0694 
    136 H136      -49.1320  -31.1004   10.7186 H         1 UNK         0.0694 
    137 H137      -46.7587  -26.5518    9.1043 H         1 UNK         0.2989 
    138 H138      -44.5600  -24.6046    8.9406 H         1 UNK         0.1055 
    139 H139      -42.3595  -25.3425    9.7357 H         1 UNK         0.0806 
    140 H140      -42.3638  -25.3609    7.9811 H         1 UNK         0.0806 
    141 H141      -42.4997  -26.8706    8.8830 H         1 UNK         0.0806 
    142 H142      -45.4286  -25.3984    7.0924 H         1 UNK         0.3061 
    143 H143      -45.0859  -27.9070    5.0228 H         1 UNK         0.0734 
    144 H144      -47.3777  -28.9088    5.1420 H         1 UNK         0.0832 
    145 H145      -46.3072  -29.6434    6.3253 H         1 UNK         0.0832 
    146 H146      -47.4908  -28.4511    6.8413 H         1 UNK         0.0832 
    147 H147      -47.3107  -26.1561    5.9559 H         1 UNK         0.3156 
    148 H148      -46.2412  -23.4463    3.9605 H         1 UNK         0.0589 
    149 H149      -47.4770  -24.7491    2.2183 H         1 UNK         0.0808 
    150 H150      -48.6875  -25.2149    3.4046 H         1 UNK         0.0808 
    151 H151      -48.5049  -23.5225    2.9387 H         1 UNK         0.0808 
    152 H152      -48.6190  -23.8419    5.4733 H         1 UNK         0.3098 
    153 H153      -47.3381  -23.3891    8.7233 H         1 UNK         0.0720 
    154 H154      -47.3841  -21.0127    7.9267 H         1 UNK         0.0791 
    155 H155      -48.8401  -21.4189    8.8202 H         1 UNK         0.0791 
    156 H156      -48.8831  -21.3237    7.0597 H         1 UNK         0.0791 
    157 H157      -50.0226  -23.4413    7.7935 H         1 UNK         0.3028 
@<TRIPOS>BOND
     1    1    2 1    
     2    1   82 1    
     3    1   83 1    
     4    1   84 1    
     5    2    3 2    
     6    2    4 am   BACKBONE|DICT|INTERRES
     7    4    5 1    
     8    4   85 1    
     9    5    6 1    
    10    5   80 1    
    11    5   86 1    
    12    6    7 1    
    13    6   87 1    
    14    6   88 1    
    15    7    8 1    
    16    8    9 1    
    17    8   89 1    
    18    8   90 1    
    19    9   10 ar   
    20    9   14 ar   
    21   10   11 ar   
    22   10   91 1    
    23   11   12 ar   
    24   11   58 1    
    25   12   13 ar   
    26   12   92 1    
    27   13   14 ar   
    28   13   15 1    
    29   14   93 1    
    30   15   16 1    
    31   15   94 1    
    32   15   95 1    
    33   16   17 1    
    34   17   18 1    
    35   17   96 1    
    36   17   97 1    
    37   18   19 1    
    38   18   22 1    
    39   18   98 1    
    40   19   20 am   BACKBONE|DICT|INTERRES
    41   19   21 2    
    42   20   99 1    
    43   20  100 1    
    44   22   23 am   BACKBONE|DICT|INTERRES
    45   22  101 1    
    46   23   24 2    
    47   23   25 1    
    48   25   26 1    
    49   25   27 1    
    50   25  102 1    
    51   26  103 1    
    52   26  104 1    
    53   26  105 1    
    54   27   28 am   BACKBONE|DICT|INTERRES
    55   27  106 1    
    56   28   29 2    
    57   28   30 1    
    58   30   31 1    
    59   30   32 1    
    60   30  107 1    
    61   31  108 1    
    62   31  109 1    
    63   31  110 1    
    64   32   33 am   BACKBONE|DICT|INTERRES
    65   32  111 1    
    66   33   34 2    
    67   33   35 1    
    68   35   36 1    
    69   35   37 1    
    70   35  112 1    
    71   36  113 1    
    72   36  114 1    
    73   36  115 1    
    74   37   38 am   BACKBONE|DICT|INTERRES
    75   37  116 1    
    76   38   39 2    
    77   38   40 1    
    78   40   41 1    
    79   40   42 1    
    80   40  117 1    
    81   41  118 1    
    82   41  119 1    
    83   41  120 1    
    84   42   43 am   BACKBONE|DICT|INTERRES
    85   42  121 1    
    86   43   44 2    
    87   43   45 1    
    88   45   46 1    
    89   45   47 1    
    90   45  122 1    
    91   46  123 1    
    92   46  124 1    
    93   46  125 1    
    94   47   48 am   BACKBONE|DICT|INTERRES
    95   47  126 1    
    96   48   49 2    
    97   48   50 1    
    98   50   51 1    
    99   50   52 1    
   100   50  127 1    
   101   51  128 1    
   102   51  129 1    
   103   51  130 1    
   104   52   53 am   BACKBONE|DICT|INTERRES
   105   52  131 1    
   106   53   54 2    
   107   53   55 1    
   108   55   56 1    
   109   55   59 1    
   110   55  132 1    
   111   56   57 1    
   112   56  133 1    
   113   56  134 1    
   114   57   58 1    
   115   58  135 1    
   116   58  136 1    
   117   59   60 am   BACKBONE|DICT|INTERRES
   118   59  137 1    
   119   60   61 2    
   120   60   62 1    
   121   62   63 1    
   122   62   64 1    
   123   62  138 1    
   124   63  139 1    
   125   63  140 1    
   126   63  141 1    
   127   64   65 am   BACKBONE|DICT|INTERRES
   128   64  142 1    
   129   65   66 2    
   130   65   67 1    
   131   67   68 1    
   132   67   69 1    
   133   67  143 1    
   134   68  144 1    
   135   68  145 1    
   136   68  146 1    
   137   69   70 am   BACKBONE|DICT|INTERRES
   138   69  147 1    
   139   70   71 2    
   140   70   72 1    
   141   72   73 1    
   142   72   74 1    
   143   72  148 1    
   144   73  149 1    
   145   73  150 1    
   146   73  151 1    
   147   74   75 am   BACKBONE|DICT|INTERRES
   148   74  152 1    
   149   75   76 2    
   150   75   77 1    
   151   77   78 1    
   152   77   79 1    
   153   77  153 1    
   154   78  154 1    
   155   78  155 1    
   156   78  156 1    
   157   79   80 am   BACKBONE|DICT|INTERRES
   158   79  157 1    
   159   80   81 2    
@<TRIPOS>SUBSTRUCTURE
     1 UNK         1 GROUP             0       ****    0 ROOT    
