@<TRIPOS>MOLECULE
3R207
157   159    1
SMALL
USER_CHARGES


@<TRIPOS>ATOM
      1 CA        -48.1098  -27.0821    5.9973 C.3       0 UNK        -0.1975 
      2 C         -49.5894  -26.7875    6.1847 C.2       0 UNK         0.4852 
      3 O         -50.0415  -25.6780    5.8964 O.2       0 UNK        -0.5216 
      4 N         -50.3565  -27.7784    6.6545 N.am      1 UNK        -0.4461 
      5 CA        -51.8031  -27.6809    6.8638 C.3       1 UNK         0.0864 
      6 C6        -52.4898  -29.0632    7.0200 C.3       14 UNK        -0.0898 
      7 S7        -51.9329  -30.2951    5.7835 S.3       14 UNK        -0.2598 
      8 C8        -52.0210  -31.8830    6.6877 C.3       14 UNK         0.0286 
      9 C9        -51.4018  -31.8249    8.0796 C.ar      14 UNK        -0.0844 
     10 C10       -50.0757  -31.4204    8.2571 C.ar      14 UNK        -0.0881 
     11 C11       -49.5430  -31.2750    9.5422 C.ar      14 UNK        -0.0643 
     12 C12       -50.3386  -31.5718   10.6542 C.ar      14 UNK        -0.0930 
     13 C13       -51.6545  -32.0143   10.4883 C.ar      14 UNK        -0.0827 
     14 C14       -52.1771  -32.1414    9.1982 C.ar      14 UNK        -0.1249 
     15 C15       -52.5014  -32.3811   11.7005 C.3       14 UNK         0.0141 
     16 S16       -53.3137  -30.9355   12.4572 S.3       14 UNK        -0.2313 
     17 C17       -54.5886  -30.5161   11.2184 C.3       14 UNK        -0.0915 
     18 CA        -54.4620  -29.0405   10.7395 C.3       13 UNK         0.0968 
     19 C         -55.2425  -28.7395    9.4220 C.2       13 UNK         0.5732 
     20 N         -55.6025  -27.4896    9.1493 N.am      13 UNK        -0.7310 
     21 O         -55.5119  -29.6350    8.6255 O.2       13 UNK        -0.5035 
     22 N         -54.7342  -28.0822   11.8257 N.am      13 UNK        -0.4233 
     23 C         -55.9296  -27.8705   12.3971 C.2       13 UNK         0.4989 
     24 O         -56.9597  -28.4685   12.0822 O.2       13 UNK        -0.4996 
     25 CA        -56.0109  -26.8187   13.5149 C.3       12 UNK         0.0216 
     26 CB        -56.2307  -27.4999   14.8759 C.3       12 UNK        -0.1964 
     27 N         -54.8427  -25.9367   13.5956 N.am      12 UNK        -0.4276 
     28 C         -54.5921  -24.9284   12.7457 C.2       12 UNK         0.5020 
     29 O         -55.2662  -24.7256   11.7343 O.2       12 UNK        -0.5489 
     30 CA        -53.3925  -24.0012   13.0520 C.3       11 UNK         0.0294 
     31 CB        -53.6500  -22.5443   12.6173 C.3       11 UNK        -0.2019 
     32 N         -52.9210  -24.0429   14.4439 N.am      11 UNK        -0.4493 
     33 C         -53.6274  -23.8048   15.5605 C.2       11 UNK         0.4932 
     34 O         -54.7833  -23.3784   15.5624 O.2       11 UNK        -0.5029 
     35 CA        -52.9381  -24.1550   16.8989 C.3       10 UNK         0.0280 
     36 CB        -53.9565  -24.4429   18.0218 C.3       10 UNK        -0.1976 
     37 N         -51.9713  -25.2614   16.8076 N.am      10 UNK        -0.4242 
     38 C         -52.1673  -26.4940   16.3108 C.2       10 UNK         0.5072 
     39 O         -53.2407  -26.8664   15.8366 O.2       10 UNK        -0.5224 
     40 CA        -50.9528  -27.4485   16.2929 C.3       9 UNK         0.0343 
     41 CB        -51.1916  -28.6846   15.4038 C.3       9 UNK        -0.2003 
     42 N         -49.7351  -26.7694   15.8403 N.am      9 UNK        -0.4272 
     43 C         -48.9518  -25.9983   16.6101 C.2       9 UNK         0.4988 
     44 O         -49.1301  -25.8502   17.8191 O.2       9 UNK        -0.5108 
     45 CA        -47.8305  -25.1986   15.9214 C.3       8 UNK         0.0248 
     46 CB        -46.4904  -25.9387   16.0500 C.3       8 UNK        -0.2001 
     47 N         -48.0904  -24.8985   14.5100 N.am      8 UNK        -0.4140 
     48 C         -49.1438  -24.2091   14.0401 C.2       8 UNK         0.5028 
     49 O         -50.0107  -23.7083   14.7566 O.2       8 UNK        -0.5428 
     50 CA        -49.2906  -24.0954   12.5128 C.3       7 UNK         0.0264 
     51 CB        -48.7526  -22.7379   12.0395 C.3       7 UNK        -0.1988 
     52 N         -48.6442  -25.1811   11.7677 N.am      7 UNK        -0.4454 
     53 C         -48.9222  -26.4895   11.9053 C.2       7 UNK         0.5027 
     54 O         -49.7945  -26.9194   12.6618 O.2       7 UNK        -0.5083 
     55 CA        -48.0362  -27.4920   11.1348 C.3       6 UNK         0.0844 
     56 C56       -48.7811  -28.0590    9.9043 C.3       14 UNK        -0.0967 
     57 S57       -47.7643  -29.2141    8.9204 S.3       14 UNK        -0.2604 
     58 C58       -48.1049  -30.8102    9.7308 C.3       14 UNK         0.0134 
     59 N         -46.7265  -26.9310   10.7891 N.am      6 UNK        -0.4116 
     60 C         -45.7576  -26.6375   11.6672 C.2       5 UNK         0.5034 
     61 O         -45.8695  -26.7870   12.8837 O.2       5 UNK        -0.5045 
     62 CA        -44.4540  -26.0519   11.0965 C.3       5 UNK         0.0224 
     63 CB        -43.4293  -27.1698   10.8462 C.3       5 UNK        -0.1978 
     64 N         -44.6555  -25.2912    9.8585 N.am      5 UNK        -0.4737 
     65 C         -45.3357  -24.1394    9.7829 C.2       4 UNK         0.5027 
     66 O         -45.8113  -23.5733   10.7672 O.2       4 UNK        -0.5211 
     67 CA        -45.5301  -23.5127    8.3879 C.3       4 UNK         0.0297 
     68 CB        -45.1461  -24.4464    7.2168 C.3       4 UNK        -0.1993 
     69 N         -46.8906  -22.9933    8.1977 N.am      4 UNK        -0.4486 
     70 C         -48.0423  -23.6753    8.2906 C.2       3 UNK         0.4961 
     71 O         -48.1157  -24.8641    8.6102 O.2       3 UNK        -0.5105 
     72 CA        -49.3153  -22.8746    7.9649 C.3       3 UNK         0.0299 
     73 CB        -49.2531  -22.2905    6.5403 C.3       3 UNK        -0.1972 
     74 N         -50.5074  -23.7189    8.0517 N.am      3 UNK        -0.4305 
     75 C         -51.4866  -23.5968    8.9595 C.2       2 UNK         0.5006 
     76 O         -51.4609  -22.7816    9.8816 O.2       2 UNK        -0.5106 
     77 CA        -52.7332  -24.4930    8.8083 C.3       2 UNK         0.0296 
     78 CB        -53.9607  -23.6481    8.4270 C.3       2 UNK        -0.2002 
     79 N         -52.5624  -25.5453    7.8040 N.am      2 UNK        -0.4032 
     80 C         -52.0805  -26.7637    8.0726 C.2       1 UNK         0.5000 
     81 O         -51.8181  -27.1576    9.2100 O.2       1 UNK        -0.5238 
     82 H82       -47.7032  -26.4924    5.1763 H         1 UNK         0.0889 
     83 H83       -47.9393  -28.1355    5.7757 H         1 UNK         0.0889 
     84 H84       -47.5624  -26.8312    6.9039 H         1 UNK         0.0889 
     85 H85       -49.9408  -28.6638    6.9059 H         1 UNK         0.3028 
     86 H86       -52.2280  -27.2172    5.9706 H         1 UNK         0.0864 
     87 H87       -52.3327  -29.4494    8.0266 H         1 UNK         0.0720 
     88 H88       -53.5686  -28.9505    6.9094 H         1 UNK         0.0720 
     89 H89       -51.5142  -32.6523    6.1038 H         1 UNK         0.0814 
     90 H90       -53.0684  -32.1835    6.7459 H         1 UNK         0.0814 
     91 H91       -49.4672  -31.1859    7.3945 H         1 UNK         0.1469 
     92 H92       -49.9333  -31.4676   11.6514 H         1 UNK         0.1381 
     93 H93       -53.1956  -32.4774    9.0626 H         1 UNK         0.1206 
     94 H94       -51.8703  -32.8573   12.4523 H         1 UNK         0.0813 
     95 H95       -53.2561  -33.1218   11.4314 H         1 UNK         0.0813 
     96 H96       -55.5713  -30.7053   11.6515 H         1 UNK         0.0638 
     97 H97       -54.5061  -31.2060   10.3809 H         1 UNK         0.0638 
     98 H98       -53.4183  -28.8877   10.4646 H         1 UNK         0.0568 
     99 H99       -56.1124  -27.2988    8.3021 H         1 UNK         0.3450 
    100 H100      -55.4046  -26.7457    9.8008 H         1 UNK         0.3450 
    101 H101      -53.9447  -27.5444   12.1490 H         1 UNK         0.2987 
    102 H102      -56.8843  -26.1967   13.3075 H         1 UNK         0.0766 
    103 H103      -56.2917  -26.7692   15.6829 H         1 UNK         0.0798 
    104 H104      -55.4246  -28.1956   15.1124 H         1 UNK         0.0798 
    105 H105      -57.1612  -28.0691   14.8819 H         1 UNK         0.0798 
    106 H106      -54.2293  -26.0807   14.3959 H         1 UNK         0.3198 
    107 H107      -52.5770  -24.3861   12.4412 H         1 UNK         0.0843 
    108 H108      -52.7738  -21.9198   12.7916 H         1 UNK         0.0831 
    109 H109      -54.4918  -22.1047   13.1527 H         1 UNK         0.0831 
    110 H110      -53.8749  -22.4859   11.5522 H         1 UNK         0.0831 
    111 H111      -51.9445  -24.2918   14.5723 H         1 UNK         0.3133 
    112 H112      -52.3647  -23.2719   17.1841 H         1 UNK         0.0566 
    113 H113      -53.4564  -24.6647   18.9645 H         1 UNK         0.0814 
    114 H114      -54.6049  -23.5834   18.1967 H         1 UNK         0.0814 
    115 H115      -54.5972  -25.2902   17.7744 H         1 UNK         0.0814 
    116 H116      -51.0420  -25.0573   17.1561 H         1 UNK         0.3091 
    117 H117      -50.8069  -27.7993   17.3165 H         1 UNK         0.0702 
    118 H118      -50.3305  -29.3528   15.4114 H         1 UNK         0.0785 
    119 H119      -51.3890  -28.4049   14.3679 H         1 UNK         0.0785 
    120 H120      -52.0496  -29.2605   15.7531 H         1 UNK         0.0785 
    121 H121      -49.5576  -26.7987   14.8426 H         1 UNK         0.2998 
    122 H122      -47.7456  -24.2433   16.4432 H         1 UNK         0.0697 
    123 H123      -45.6723  -25.3616   15.6185 H         1 UNK         0.0825 
    124 H124      -46.2424  -26.1185   17.0971 H         1 UNK         0.0825 
    125 H125      -46.5161  -26.9082   15.5507 H         1 UNK         0.0825 
    126 H126      -47.4383  -25.2895   13.8421 H         1 UNK         0.3029 
    127 H127      -50.3532  -24.1367   12.2764 H         1 UNK         0.0897 
    128 H128      -48.8525  -22.6218   10.9622 H         1 UNK         0.0792 
    129 H129      -49.3068  -21.9202   12.5023 H         1 UNK         0.0792 
    130 H130      -47.7020  -22.6054   12.2987 H         1 UNK         0.0792 
    131 H131      -47.9201  -24.9129   11.1123 H         1 UNK         0.3086 
    132 H132      -47.8536  -28.3263   11.8155 H         1 UNK         0.0583 
    133 H133      -49.7035  -28.5573   10.2099 H         1 UNK         0.1020 
    134 H134      -49.0896  -27.2452    9.2466 H         1 UNK         0.1020 
    135 H135      -47.4367  -31.5639    9.3125 H         1 UNK         0.0694 
    136 H136      -47.8534  -30.7296   10.7894 H         1 UNK         0.0694 
    137 H137      -46.5673  -26.7494    9.8087 H         1 UNK         0.2989 
    138 H138      -44.0471  -25.3728   11.8493 H         1 UNK         0.1055 
    139 H139      -43.2414  -27.7372   11.7590 H         1 UNK         0.0806 
    140 H140      -42.4721  -26.7653   10.5166 H         1 UNK         0.0806 
    141 H141      -43.7758  -27.8756   10.0900 H         1 UNK         0.0806 
    142 H142      -44.2844  -25.6904    9.0082 H         1 UNK         0.3061 
    143 H143      -44.8657  -22.6481    8.3527 H         1 UNK         0.0734 
    144 H144      -45.7149  -25.3759    7.2313 H         1 UNK         0.0832 
    145 H145      -45.3311  -23.9653    6.2563 H         1 UNK         0.0832 
    146 H146      -44.0859  -24.7012    7.2400 H         1 UNK         0.0832 
    147 H147      -46.9446  -22.0073    7.9842 H         1 UNK         0.3156 
    148 H148      -49.3795  -22.0472    8.6738 H         1 UNK         0.0589 
    149 H149      -50.1775  -21.7714    6.2864 H         1 UNK         0.0808 
    150 H150      -48.4450  -21.5663    6.4348 H         1 UNK         0.0808 
    151 H151      -49.0941  -23.0692    5.7929 H         1 UNK         0.0808 
    152 H152      -50.5440  -24.4713    7.3698 H         1 UNK         0.3098 
    153 H153      -52.9283  -24.9425    9.7845 H         1 UNK         0.0720 
    154 H154      -54.1421  -22.8646    9.1635 H         1 UNK         0.0791 
    155 H155      -54.8624  -24.2593    8.3834 H         1 UNK         0.0791 
    156 H156      -53.8338  -23.1621    7.4590 H         1 UNK         0.0791 
    157 H157      -52.7245  -25.2833    6.8415 H         1 UNK         0.3028 
@<TRIPOS>BOND
     1    1    2 1    
     2    1   82 1    
     3    1   83 1    
     4    1   84 1    
     5    2    3 2    
     6    2    4 am   BACKBONE|DICT|INTERRES
     7    4    5 1    
     8    4   85 1    
     9    5    6 1    
    10    5   80 1    
    11    5   86 1    
    12    6    7 1    
    13    6   87 1    
    14    6   88 1    
    15    7    8 1    
    16    8    9 1    
    17    8   89 1    
    18    8   90 1    
    19    9   10 ar   
    20    9   14 ar   
    21   10   11 ar   
    22   10   91 1    
    23   11   12 ar   
    24   11   58 1    
    25   12   13 ar   
    26   12   92 1    
    27   13   14 ar   
    28   13   15 1    
    29   14   93 1    
    30   15   16 1    
    31   15   94 1    
    32   15   95 1    
    33   16   17 1    
    34   17   18 1    
    35   17   96 1    
    36   17   97 1    
    37   18   19 1    
    38   18   22 1    
    39   18   98 1    
    40   19   20 am   BACKBONE|DICT|INTERRES
    41   19   21 2    
    42   20   99 1    
    43   20  100 1    
    44   22   23 am   BACKBONE|DICT|INTERRES
    45   22  101 1    
    46   23   24 2    
    47   23   25 1    
    48   25   26 1    
    49   25   27 1    
    50   25  102 1    
    51   26  103 1    
    52   26  104 1    
    53   26  105 1    
    54   27   28 am   BACKBONE|DICT|INTERRES
    55   27  106 1    
    56   28   29 2    
    57   28   30 1    
    58   30   31 1    
    59   30   32 1    
    60   30  107 1    
    61   31  108 1    
    62   31  109 1    
    63   31  110 1    
    64   32   33 am   BACKBONE|DICT|INTERRES
    65   32  111 1    
    66   33   34 2    
    67   33   35 1    
    68   35   36 1    
    69   35   37 1    
    70   35  112 1    
    71   36  113 1    
    72   36  114 1    
    73   36  115 1    
    74   37   38 am   BACKBONE|DICT|INTERRES
    75   37  116 1    
    76   38   39 2    
    77   38   40 1    
    78   40   41 1    
    79   40   42 1    
    80   40  117 1    
    81   41  118 1    
    82   41  119 1    
    83   41  120 1    
    84   42   43 am   BACKBONE|DICT|INTERRES
    85   42  121 1    
    86   43   44 2    
    87   43   45 1    
    88   45   46 1    
    89   45   47 1    
    90   45  122 1    
    91   46  123 1    
    92   46  124 1    
    93   46  125 1    
    94   47   48 am   BACKBONE|DICT|INTERRES
    95   47  126 1    
    96   48   49 2    
    97   48   50 1    
    98   50   51 1    
    99   50   52 1    
   100   50  127 1    
   101   51  128 1    
   102   51  129 1    
   103   51  130 1    
   104   52   53 am   BACKBONE|DICT|INTERRES
   105   52  131 1    
   106   53   54 2    
   107   53   55 1    
   108   55   56 1    
   109   55   59 1    
   110   55  132 1    
   111   56   57 1    
   112   56  133 1    
   113   56  134 1    
   114   57   58 1    
   115   58  135 1    
   116   58  136 1    
   117   59   60 am   BACKBONE|DICT|INTERRES
   118   59  137 1    
   119   60   61 2    
   120   60   62 1    
   121   62   63 1    
   122   62   64 1    
   123   62  138 1    
   124   63  139 1    
   125   63  140 1    
   126   63  141 1    
   127   64   65 am   BACKBONE|DICT|INTERRES
   128   64  142 1    
   129   65   66 2    
   130   65   67 1    
   131   67   68 1    
   132   67   69 1    
   133   67  143 1    
   134   68  144 1    
   135   68  145 1    
   136   68  146 1    
   137   69   70 am   BACKBONE|DICT|INTERRES
   138   69  147 1    
   139   70   71 2    
   140   70   72 1    
   141   72   73 1    
   142   72   74 1    
   143   72  148 1    
   144   73  149 1    
   145   73  150 1    
   146   73  151 1    
   147   74   75 am   BACKBONE|DICT|INTERRES
   148   74  152 1    
   149   75   76 2    
   150   75   77 1    
   151   77   78 1    
   152   77   79 1    
   153   77  153 1    
   154   78  154 1    
   155   78  155 1    
   156   78  156 1    
   157   79   80 am   BACKBONE|DICT|INTERRES
   158   79  157 1    
   159   80   81 2    
@<TRIPOS>SUBSTRUCTURE
     1 UNK         1 GROUP             0       ****    0 ROOT    
