@<TRIPOS>MOLECULE
3R207
157   159    1
SMALL
USER_CHARGES


@<TRIPOS>ATOM
      1 CA        -55.9509  -26.1622    5.0620 C.3       0 UNK        -0.1975 
      2 C         -54.8515  -26.5682    6.0321 C.2       0 UNK         0.4852 
      3 O         -55.0484  -26.4902    7.2438 O.2       0 UNK        -0.5216 
      4 N         -53.6989  -27.0040    5.5066 N.am      1 UNK        -0.4461 
      5 CA        -52.5304  -27.4342    6.2826 C.3       1 UNK         0.0864 
      6 C6        -51.4707  -28.1183    5.3847 C.3       14 UNK        -0.0898 
      7 S7        -51.9611  -29.8116    4.9361 S.3       14 UNK        -0.2598 
      8 C8        -50.8376  -30.7805    5.9936 C.3       14 UNK         0.0286 
      9 C9        -51.2426  -30.7338    7.4613 C.ar      14 UNK        -0.0844 
     10 C10       -50.6710  -29.8035    8.3365 C.ar      14 UNK        -0.0881 
     11 C11       -51.0072  -29.8017    9.6942 C.ar      14 UNK        -0.0643 
     12 C12       -51.9206  -30.7461   10.1753 C.ar      14 UNK        -0.0930 
     13 C13       -52.5102  -31.6728    9.3071 C.ar      14 UNK        -0.0827 
     14 C14       -52.1686  -31.6564    7.9524 C.ar      14 UNK        -0.1249 
     15 C15       -53.4703  -32.7379    9.8237 C.3       14 UNK         0.0141 
     16 S16       -54.8380  -32.0724   10.8229 S.3       14 UNK        -0.2313 
     17 C17       -55.7997  -31.0923    9.6117 C.3       14 UNK        -0.0915 
     18 CA        -56.1714  -29.6737   10.1243 C.3       13 UNK         0.0968 
     19 C         -57.1307  -29.7441   11.3512 C.2       13 UNK         0.5732 
     20 N         -56.6405  -29.5784   12.5751 N.am      13 UNK        -0.7310 
     21 O         -58.3312  -29.9466   11.1839 O.2       13 UNK        -0.5035 
     22 N         -54.9710  -28.8529   10.3305 N.am      13 UNK        -0.4233 
     23 C         -54.9672  -27.5505   10.6408 C.2       13 UNK         0.4989 
     24 O         -55.9766  -26.8440   10.6883 O.2       13 UNK        -0.4996 
     25 CA        -53.5989  -26.9515   11.0121 C.3       12 UNK         0.0216 
     26 CB        -53.4674  -25.4995   10.5180 C.3       12 UNK        -0.1964 
     27 N         -53.3321  -26.9870   12.4564 N.am      12 UNK        -0.4276 
     28 C         -53.3669  -28.0572   13.2665 C.2       12 UNK         0.5020 
     29 O         -53.6136  -29.1995   12.8811 O.2       12 UNK        -0.5489 
     30 CA        -53.0788  -27.8349   14.7623 C.3       11 UNK         0.0294 
     31 CB        -51.9915  -28.7950   15.2750 C.3       11 UNK        -0.2019 
     32 N         -52.6764  -26.4603   15.0704 N.am      11 UNK        -0.4493 
     33 C         -53.5050  -25.5088   15.5246 C.2       11 UNK         0.4932 
     34 O         -54.7148  -25.6812   15.6789 O.2       11 UNK        -0.5029 
     35 CA        -52.8869  -24.1316   15.8387 C.3       10 UNK         0.0280 
     36 CB        -53.7035  -23.3260   16.8718 C.3       10 UNK        -0.1976 
     37 N         -51.4712  -24.2005   16.2197 N.am      10 UNK        -0.4242 
     38 C         -50.9360  -24.8063   17.2943 C.2       10 UNK         0.5072 
     39 O         -51.6033  -25.3610   18.1685 O.2       10 UNK        -0.5224 
     40 CA        -49.3978  -24.8270   17.4153 C.3       9 UNK         0.0343 
     41 CB        -48.8757  -26.2719   17.5151 C.3       9 UNK        -0.2003 
     42 N         -48.7350  -24.1666   16.2892 N.am      9 UNK        -0.4272 
     43 C         -48.4564  -22.8574   16.2169 C.2       9 UNK         0.4988 
     44 O         -48.6337  -22.0668   17.1438 O.2       9 UNK        -0.5108 
     45 CA        -47.9216  -22.3323   14.8704 C.3       8 UNK         0.0248 
     46 CB        -46.3906  -22.2142   14.9158 C.3       8 UNK        -0.2001 
     47 N         -48.3312  -23.1504   13.7184 N.am      8 UNK        -0.4140 
     48 C         -49.6062  -23.2737   13.3107 C.2       8 UNK         0.5028 
     49 O         -50.5421  -22.6714   13.8351 O.2       8 UNK        -0.5428 
     50 CA        -49.9199  -24.2848   12.1957 C.3       7 UNK         0.0264 
     51 CB        -49.8720  -23.6162   10.8152 C.3       7 UNK        -0.1988 
     52 N         -49.0451  -25.4591   12.2175 N.am      7 UNK        -0.4454 
     53 C         -49.0506  -26.3797   13.1927 C.2       7 UNK         0.5027 
     54 O         -49.8471  -26.3391   14.1334 O.2       7 UNK        -0.5083 
     55 CA        -47.9658  -27.4758   13.1813 C.3       6 UNK         0.0844 
     56 C56       -48.4867  -28.8686   12.7419 C.3       14 UNK        -0.0967 
     57 S57       -48.6253  -29.1216   10.9372 S.3       14 UNK        -0.2604 
     58 C58       -50.3853  -28.7806   10.6387 C.3       14 UNK         0.0134 
     59 N         -46.7646  -27.0581   12.4518 N.am      6 UNK        -0.4116 
     60 C         -45.5156  -27.1406   12.9283 C.2       5 UNK         0.5034 
     61 O         -45.2307  -27.6116   14.0304 O.2       5 UNK        -0.5045 
     62 CA        -44.3736  -26.6078   12.0397 C.3       5 UNK         0.0224 
     63 CB        -43.6880  -27.7702   11.3030 C.3       5 UNK        -0.1978 
     64 N         -44.7697  -25.5921   11.0584 N.am      5 UNK        -0.4737 
     65 C         -45.3409  -24.4132   11.3405 C.2       4 UNK         0.5027 
     66 O         -45.6229  -24.0401   12.4775 O.2       4 UNK        -0.5211 
     67 CA        -45.7204  -23.5203   10.1471 C.3       4 UNK         0.0297 
     68 CB        -44.5462  -22.5995    9.7800 C.3       4 UNK        -0.1993 
     69 N         -46.1815  -24.2280    8.9431 N.am      4 UNK        -0.4486 
     70 C         -47.1139  -25.1892    8.8964 C.2       3 UNK         0.4961 
     71 O         -47.6152  -25.7193    9.8900 O.2       3 UNK        -0.5105 
     72 CA        -47.5879  -25.6235    7.5079 C.3       3 UNK         0.0299 
     73 CB        -47.4260  -27.1420    7.3238 C.3       3 UNK        -0.1972 
     74 N         -48.9989  -25.2741    7.3847 N.am      3 UNK        -0.4305 
     75 C         -49.4876  -24.1152    6.9267 C.2       2 UNK         0.5006 
     76 O         -48.7770  -23.2147    6.4762 O.2       2 UNK        -0.5106 
     77 CA        -51.0267  -23.9403    6.9702 C.3       2 UNK         0.0296 
     78 CB        -51.5017  -22.6776    6.2272 C.3       2 UNK        -0.2002 
     79 N         -51.7554  -25.1017    6.4439 N.am      2 UNK        -0.4032 
     80 C         -51.8707  -26.2849    7.0633 C.2       1 UNK         0.5000 
     81 O         -51.4159  -26.5034    8.1859 O.2       1 UNK        -0.5238 
     82 H82       -55.6342  -26.2541    4.0233 H         1 UNK         0.0889 
     83 H83       -56.2418  -25.1269    5.2375 H         1 UNK         0.0889 
     84 H84       -56.8284  -26.7918    5.2063 H         1 UNK         0.0889 
     85 H85       -53.6095  -27.0767    4.5029 H         1 UNK         0.3028 
     86 H86       -52.8747  -28.1526    7.0309 H         1 UNK         0.0864 
     87 H87       -51.3123  -27.5475    4.4679 H         1 UNK         0.0720 
     88 H88       -50.4933  -28.1578    5.8692 H         1 UNK         0.0720 
     89 H89       -49.8116  -30.4312    5.8669 H         1 UNK         0.0814 
     90 H90       -50.8425  -31.8152    5.6475 H         1 UNK         0.0814 
     91 H91       -49.9534  -29.0838    7.9704 H         1 UNK         0.1469 
     92 H92       -52.1721  -30.7644   11.2274 H         1 UNK         0.1381 
     93 H93       -52.6068  -32.3793    7.2776 H         1 UNK         0.1206 
     94 H94       -53.8929  -33.3169    9.0010 H         1 UNK         0.0813 
     95 H95       -52.9062  -33.4433   10.4350 H         1 UNK         0.0813 
     96 H96       -55.2352  -31.0080    8.6818 H         1 UNK         0.0638 
     97 H97       -56.7013  -31.6525    9.3579 H         1 UNK         0.0638 
     98 H98       -56.7374  -29.1841    9.3298 H         1 UNK         0.0568 
     99 H99       -57.2562  -29.6232   13.3706 H         1 UNK         0.3450 
    100 H100      -55.6406  -29.4656   12.7016 H         1 UNK         0.3450 
    101 H101      -54.1068  -29.3699   10.4115 H         1 UNK         0.2987 
    102 H102      -52.8351  -27.5405   10.5059 H         1 UNK         0.0766 
    103 H103      -52.4408  -25.1463   10.5972 H         1 UNK         0.0798 
    104 H104      -54.1097  -24.8173   11.0759 H         1 UNK         0.0798 
    105 H105      -53.7465  -25.4203    9.4664 H         1 UNK         0.0798 
    106 H106      -53.1493  -26.0978   12.8949 H         1 UNK         0.3198 
    107 H107      -54.0023  -28.0769   15.2927 H         1 UNK         0.0843 
    108 H108      -51.0353  -28.6198   14.7865 H         1 UNK         0.0831 
    109 H109      -52.2655  -29.8355   15.0953 H         1 UNK         0.0831 
    110 H110      -51.8414  -28.6823   16.3488 H         1 UNK         0.0831 
    111 H111      -51.6917  -26.2446   14.9378 H         1 UNK         0.3133 
    112 H112      -52.9150  -23.5755   14.9009 H         1 UNK         0.0566 
    113 H113      -53.2473  -22.3558   17.0683 H         1 UNK         0.0814 
    114 H114      -54.7154  -23.1385   16.5108 H         1 UNK         0.0814 
    115 H115      -53.7920  -23.8546   17.8213 H         1 UNK         0.0814 
    116 H116      -50.8430  -23.7529   15.5611 H         1 UNK         0.3091 
    117 H117      -49.1388  -24.3095   18.3413 H         1 UNK         0.0702 
    118 H118      -49.2826  -26.7746   18.3935 H         1 UNK         0.0785 
    119 H119      -49.1548  -26.8666   16.6449 H         1 UNK         0.0785 
    120 H120      -47.7896  -26.2969   17.6051 H         1 UNK         0.0785 
    121 H121      -48.5779  -24.7379   15.4710 H         1 UNK         0.2998 
    122 H122      -48.3320  -21.3304   14.7274 H         1 UNK         0.0697 
    123 H123      -45.9144  -23.1867   15.0477 H         1 UNK         0.0825 
    124 H124      -46.0713  -21.5802   15.7441 H         1 UNK         0.0825 
    125 H125      -45.9993  -21.7695   14.0007 H         1 UNK         0.0825 
    126 H126      -47.5964  -23.6580   13.2367 H         1 UNK         0.3029 
    127 H127      -50.9399  -24.6359   12.3620 H         1 UNK         0.0897 
    128 H128      -50.1213  -24.3299   10.0308 H         1 UNK         0.0792 
    129 H129      -48.8867  -23.2066   10.5958 H         1 UNK         0.0792 
    130 H130      -50.5892  -22.7968   10.7522 H         1 UNK         0.0792 
    131 H131      -48.4258  -25.5712   11.4152 H         1 UNK         0.3086 
    132 H132      -47.7051  -27.5737   14.2374 H         1 UNK         0.0583 
    133 H133      -47.7846  -29.6220   13.1022 H         1 UNK         0.1020 
    134 H134      -49.4276  -29.1147   13.2336 H         1 UNK         0.1020 
    135 H135      -50.9340  -28.7607   11.5803 H         1 UNK         0.0694 
    136 H136      -50.4713  -27.7791   10.2176 H         1 UNK         0.0694 
    137 H137      -46.9064  -26.6826   11.5201 H         1 UNK         0.2989 
    138 H138      -43.6443  -26.1449   12.7080 H         1 UNK         0.1055 
    139 H139      -43.3505  -28.5340   12.0054 H         1 UNK         0.0806 
    140 H140      -42.8105  -27.4310   10.7522 H         1 UNK         0.0806 
    141 H141      -44.3643  -28.2539   10.5967 H         1 UNK         0.0806 
    142 H142      -44.6083  -25.8130   10.0864 H         1 UNK         0.3061 
    143 H143      -46.5464  -22.8884   10.4771 H         1 UNK         0.0734 
    144 H144      -44.8361  -21.8628    9.0306 H         1 UNK         0.0832 
    145 H145      -44.1952  -22.0468   10.6530 H         1 UNK         0.0832 
    146 H146      -43.6980  -23.1627    9.3889 H         1 UNK         0.0832 
    147 H147      -45.8387  -23.8671    8.0639 H         1 UNK         0.3156 
    148 H148      -47.0064  -25.1150    6.7360 H         1 UNK         0.0589 
    149 H149      -47.9679  -27.7037    8.0860 H         1 UNK         0.0808 
    150 H150      -47.7899  -27.4646    6.3483 H         1 UNK         0.0808 
    151 H151      -46.3771  -27.4324    7.3924 H         1 UNK         0.0808 
    152 H152      -49.6636  -25.9148    7.8119 H         1 UNK         0.3098 
    153 H153      -51.3007  -23.8198    8.0199 H         1 UNK         0.0720 
    154 H154      -52.5806  -22.5478    6.3144 H         1 UNK         0.0791 
    155 H155      -51.2515  -22.7158    5.1662 H         1 UNK         0.0791 
    156 H156      -51.0373  -21.7811    6.6405 H         1 UNK         0.0791 
    157 H157      -52.1327  -25.0129    5.5117 H         1 UNK         0.3028 
@<TRIPOS>BOND
     1    1    2 1    
     2    1   82 1    
     3    1   83 1    
     4    1   84 1    
     5    2    3 2    
     6    2    4 am   BACKBONE|DICT|INTERRES
     7    4    5 1    
     8    4   85 1    
     9    5    6 1    
    10    5   80 1    
    11    5   86 1    
    12    6    7 1    
    13    6   87 1    
    14    6   88 1    
    15    7    8 1    
    16    8    9 1    
    17    8   89 1    
    18    8   90 1    
    19    9   10 ar   
    20    9   14 ar   
    21   10   11 ar   
    22   10   91 1    
    23   11   12 ar   
    24   11   58 1    
    25   12   13 ar   
    26   12   92 1    
    27   13   14 ar   
    28   13   15 1    
    29   14   93 1    
    30   15   16 1    
    31   15   94 1    
    32   15   95 1    
    33   16   17 1    
    34   17   18 1    
    35   17   96 1    
    36   17   97 1    
    37   18   19 1    
    38   18   22 1    
    39   18   98 1    
    40   19   20 am   BACKBONE|DICT|INTERRES
    41   19   21 2    
    42   20   99 1    
    43   20  100 1    
    44   22   23 am   BACKBONE|DICT|INTERRES
    45   22  101 1    
    46   23   24 2    
    47   23   25 1    
    48   25   26 1    
    49   25   27 1    
    50   25  102 1    
    51   26  103 1    
    52   26  104 1    
    53   26  105 1    
    54   27   28 am   BACKBONE|DICT|INTERRES
    55   27  106 1    
    56   28   29 2    
    57   28   30 1    
    58   30   31 1    
    59   30   32 1    
    60   30  107 1    
    61   31  108 1    
    62   31  109 1    
    63   31  110 1    
    64   32   33 am   BACKBONE|DICT|INTERRES
    65   32  111 1    
    66   33   34 2    
    67   33   35 1    
    68   35   36 1    
    69   35   37 1    
    70   35  112 1    
    71   36  113 1    
    72   36  114 1    
    73   36  115 1    
    74   37   38 am   BACKBONE|DICT|INTERRES
    75   37  116 1    
    76   38   39 2    
    77   38   40 1    
    78   40   41 1    
    79   40   42 1    
    80   40  117 1    
    81   41  118 1    
    82   41  119 1    
    83   41  120 1    
    84   42   43 am   BACKBONE|DICT|INTERRES
    85   42  121 1    
    86   43   44 2    
    87   43   45 1    
    88   45   46 1    
    89   45   47 1    
    90   45  122 1    
    91   46  123 1    
    92   46  124 1    
    93   46  125 1    
    94   47   48 am   BACKBONE|DICT|INTERRES
    95   47  126 1    
    96   48   49 2    
    97   48   50 1    
    98   50   51 1    
    99   50   52 1    
   100   50  127 1    
   101   51  128 1    
   102   51  129 1    
   103   51  130 1    
   104   52   53 am   BACKBONE|DICT|INTERRES
   105   52  131 1    
   106   53   54 2    
   107   53   55 1    
   108   55   56 1    
   109   55   59 1    
   110   55  132 1    
   111   56   57 1    
   112   56  133 1    
   113   56  134 1    
   114   57   58 1    
   115   58  135 1    
   116   58  136 1    
   117   59   60 am   BACKBONE|DICT|INTERRES
   118   59  137 1    
   119   60   61 2    
   120   60   62 1    
   121   62   63 1    
   122   62   64 1    
   123   62  138 1    
   124   63  139 1    
   125   63  140 1    
   126   63  141 1    
   127   64   65 am   BACKBONE|DICT|INTERRES
   128   64  142 1    
   129   65   66 2    
   130   65   67 1    
   131   67   68 1    
   132   67   69 1    
   133   67  143 1    
   134   68  144 1    
   135   68  145 1    
   136   68  146 1    
   137   69   70 am   BACKBONE|DICT|INTERRES
   138   69  147 1    
   139   70   71 2    
   140   70   72 1    
   141   72   73 1    
   142   72   74 1    
   143   72  148 1    
   144   73  149 1    
   145   73  150 1    
   146   73  151 1    
   147   74   75 am   BACKBONE|DICT|INTERRES
   148   74  152 1    
   149   75   76 2    
   150   75   77 1    
   151   77   78 1    
   152   77   79 1    
   153   77  153 1    
   154   78  154 1    
   155   78  155 1    
   156   78  156 1    
   157   79   80 am   BACKBONE|DICT|INTERRES
   158   79  157 1    
   159   80   81 2    
@<TRIPOS>SUBSTRUCTURE
     1 UNK         1 GROUP             0       ****    0 ROOT    
