@<TRIPOS>MOLECULE
3R207
157   159    1
SMALL
USER_CHARGES


@<TRIPOS>ATOM
      1 CA        -45.6048  -30.1371   11.4721 C.3       0 UNK        -0.1975 
      2 C         -46.1757  -29.8984   10.0819 C.2       0 UNK         0.4852 
      3 O         -45.8890  -30.6656    9.1624 O.2       0 UNK        -0.5216 
      4 N         -46.9831  -28.8404    9.9267 N.am      1 UNK        -0.4461 
      5 CA        -47.6463  -28.4528    8.6729 C.3       1 UNK         0.0864 
      6 C6        -48.7452  -27.3930    8.9195 C.3       14 UNK        -0.0898 
      7 S7        -50.0740  -28.0433    9.9863 S.3       14 UNK        -0.2598 
      8 C8        -51.4563  -28.2171    8.8156 C.3       14 UNK         0.0286 
      9 C9        -52.4385  -27.0641    8.9528 C.ar      14 UNK        -0.0844 
     10 C10       -52.2659  -25.8845    8.2233 C.ar      14 UNK        -0.0881 
     11 C11       -53.1659  -24.8242    8.3728 C.ar      14 UNK        -0.0643 
     12 C12       -54.2556  -24.9660    9.2384 C.ar      14 UNK        -0.0930 
     13 C13       -54.4587  -26.1471    9.9582 C.ar      14 UNK        -0.0827 
     14 C14       -53.5327  -27.1883    9.8133 C.ar      14 UNK        -0.1249 
     15 C15       -55.6957  -26.2394   10.8578 C.3       14 UNK         0.0141 
     16 S16       -55.9964  -27.8611   11.6440 S.3       14 UNK        -0.2313 
     17 C17       -57.6202  -27.5800   12.4276 C.3       14 UNK        -0.0915 
     18 CA        -57.5072  -27.1521   13.9212 C.3       13 UNK         0.0968 
     19 C         -58.8645  -26.7573   14.5828 C.2       13 UNK         0.5732 
     20 N         -59.8358  -26.2665   13.8236 N.am      13 UNK        -0.7310 
     21 O         -59.0305  -26.8339   15.7995 O.2       13 UNK        -0.5035 
     22 N         -56.7275  -28.1034   14.7280 N.am      13 UNK        -0.4233 
     23 C         -57.0837  -29.3460   15.0759 C.2       13 UNK         0.4989 
     24 O         -58.1314  -29.8962   14.7289 O.2       13 UNK        -0.4996 
     25 CA        -56.0707  -30.0868   15.9673 C.3       12 UNK         0.0216 
     26 CB        -56.5435  -31.4886   16.4106 C.3       12 UNK        -0.1964 
     27 N         -54.7410  -30.1339   15.3479 N.am      12 UNK        -0.4276 
     28 C         -54.3726  -30.7802   14.2311 C.2       12 UNK         0.5020 
     29 O         -55.1208  -31.5021   13.5707 O.2       12 UNK        -0.5489 
     30 CA        -52.9154  -30.6018   13.7601 C.3       11 UNK         0.0294 
     31 CB        -52.8565  -29.7433   12.4879 C.3       11 UNK        -0.2019 
     32 N         -52.0269  -30.0087   14.7623 N.am      11 UNK        -0.4493 
     33 C         -51.5638  -30.6352   15.8527 C.2       11 UNK         0.4932 
     34 O         -51.8404  -31.7977   16.1479 O.2       11 UNK        -0.5029 
     35 CA        -50.6491  -29.8174   16.7751 C.3       10 UNK         0.0280 
     36 CB        -49.2136  -29.7889   16.2241 C.3       10 UNK        -0.1976 
     37 N         -51.1444  -28.4477   16.9259 N.am      10 UNK        -0.4242 
     38 C         -52.0010  -28.0495   17.8776 C.2       10 UNK         0.5072 
     39 O         -52.4327  -28.7888   18.7628 O.2       10 UNK        -0.5224 
     40 CA        -52.4612  -26.5791   17.8459 C.3       9 UNK         0.0343 
     41 CB        -51.5510  -25.7129   18.7315 C.3       9 UNK        -0.2003 
     42 N         -52.5062  -26.0087   16.4975 N.am      9 UNK        -0.4272 
     43 C         -53.3822  -26.3715   15.5506 C.2       9 UNK         0.4988 
     44 O         -54.2851  -27.1865   15.7339 O.2       9 UNK        -0.5108 
     45 CA        -53.2045  -25.7547   14.1520 C.3       8 UNK         0.0248 
     46 CB        -54.0442  -24.4753   14.0174 C.3       8 UNK        -0.2001 
     47 N         -51.8144  -25.4593   13.7878 N.am      8 UNK        -0.4140 
     48 C         -50.7987  -26.3330   13.7779 C.2       8 UNK         0.5028 
     49 O         -50.9020  -27.4998   14.1604 O.2       8 UNK        -0.5428 
     50 CA        -49.4472  -25.8055   13.2632 C.3       7 UNK         0.0264 
     51 CB        -48.3444  -26.8813   13.2922 C.3       7 UNK        -0.1988 
     52 N         -49.5623  -25.2800   11.9013 N.am      7 UNK        -0.4454 
     53 C         -50.0291  -24.0689   11.5734 C.2       7 UNK         0.5027 
     54 O         -50.4241  -23.2443   12.4001 O.2       7 UNK        -0.5083 
     55 CA        -50.0072  -23.7127   10.0830 C.3       6 UNK         0.0844 
     56 C56       -51.1703  -22.7696    9.6791 C.3       14 UNK        -0.0967 
     57 S57       -51.3635  -22.7217    7.8640 S.3       14 UNK        -0.2604 
     58 C58       -52.9826  -23.5225    7.5980 C.3       14 UNK         0.0134 
     59 N         -48.6999  -23.1120    9.8284 N.am      6 UNK        -0.4116 
     60 C         -47.8633  -23.4598    8.8464 C.2       5 UNK         0.5034 
     61 O         -48.0873  -24.3479    8.0220 O.2       5 UNK        -0.5045 
     62 CA        -46.5157  -22.7229    8.8125 C.3       5 UNK         0.0224 
     63 CB        -45.4417  -23.5458    9.5408 C.3       5 UNK        -0.1978 
     64 N         -46.0934  -22.4897    7.4315 N.am      5 UNK        -0.4737 
     65 C         -46.6209  -21.5461    6.6385 C.2       4 UNK         0.5027 
     66 O         -47.4215  -20.6967    7.0315 O.2       4 UNK        -0.5211 
     67 CA        -46.1848  -21.5326    5.1626 C.3       4 UNK         0.0297 
     68 CB        -45.0677  -20.5002    4.9409 C.3       4 UNK        -0.1993 
     69 N         -45.7300  -22.8409    4.6908 N.am      4 UNK        -0.4486 
     70 C         -46.5267  -23.8886    4.4417 C.2       3 UNK         0.4961 
     71 O         -47.7555  -23.8490    4.5014 O.2       3 UNK        -0.5105 
     72 CA        -45.8342  -25.2023    4.0376 C.3       3 UNK         0.0299 
     73 CB        -44.5934  -24.9813    3.1438 C.3       3 UNK        -0.1972 
     74 N         -45.4991  -26.0564    5.1827 N.am      3 UNK        -0.4305 
     75 C         -44.7222  -25.7715    6.2367 C.2       2 UNK         0.5006 
     76 O         -44.2399  -24.6592    6.4611 O.2       2 UNK        -0.5106 
     77 CA        -44.4095  -26.9487    7.1825 C.3       2 UNK         0.0296 
     78 CB        -43.1980  -26.6673    8.0920 C.3       2 UNK        -0.2002 
     79 N         -45.5449  -27.3480    8.0165 N.am      2 UNK        -0.4032 
     80 C         -46.6491  -27.9808    7.5919 C.2       1 UNK         0.5000 
     81 O         -46.8757  -28.2379    6.4071 O.2       1 UNK        -0.5238 
     82 H82       -45.8987  -31.1222   11.8335 H         1 UNK         0.0889 
     83 H83       -45.9537  -29.3955   12.1907 H         1 UNK         0.0889 
     84 H84       -44.5163  -30.0955   11.4427 H         1 UNK         0.0889 
     85 H85       -47.2071  -28.2724   10.7300 H         1 UNK         0.3028 
     86 H86       -48.1290  -29.3472    8.2721 H         1 UNK         0.0864 
     87 H87       -49.1686  -27.0349    7.9790 H         1 UNK         0.0720 
     88 H88       -48.3154  -26.5195    9.4092 H         1 UNK         0.0720 
     89 H89       -51.9642  -29.1607    9.0214 H         1 UNK         0.0814 
     90 H90       -51.0936  -28.2944    7.7898 H         1 UNK         0.0814 
     91 H91       -51.4223  -25.7810    7.5542 H         1 UNK         0.1469 
     92 H92       -54.9601  -24.1523    9.3469 H         1 UNK         0.1381 
     93 H93       -53.6549  -28.1106   10.3589 H         1 UNK         0.1206 
     94 H94       -55.6201  -25.4843   11.6405 H         1 UNK         0.0813 
     95 H95       -56.5710  -25.9823   10.2595 H         1 UNK         0.0813 
     96 H96       -58.2018  -28.4989   12.3400 H         1 UNK         0.0638 
     97 H97       -58.1527  -26.8300   11.8421 H         1 UNK         0.0638 
     98 H98       -56.9263  -26.2306   13.9449 H         1 UNK         0.0568 
     99 H99       -59.7244  -26.1717   12.8270 H         1 UNK         0.3450 
    100 H100      -60.7025  -25.9919   14.2589 H         1 UNK         0.3450 
    101 H101      -55.8447  -27.7465   15.0890 H         1 UNK         0.2987 
    102 H102      -55.9612  -29.4835   16.8700 H         1 UNK         0.0766 
    103 H103      -56.7287  -32.1468   15.5614 H         1 UNK         0.0798 
    104 H104      -57.4743  -31.4223   16.9752 H         1 UNK         0.0798 
    105 H105      -55.8069  -31.9700   17.0538 H         1 UNK         0.0798 
    106 H106      -54.0547  -29.5146   15.7590 H         1 UNK         0.3198 
    107 H107      -52.5342  -31.5958   13.5163 H         1 UNK         0.0843 
    108 H108      -53.1985  -28.7262   12.6782 H         1 UNK         0.0831 
    109 H109      -53.4883  -30.1612   11.7032 H         1 UNK         0.0831 
    110 H110      -51.8422  -29.6843   12.0924 H         1 UNK         0.0831 
    111 H111      -51.6897  -29.0660   14.5657 H         1 UNK         0.3133 
    112 H112      -50.6231  -30.3073   17.7508 H         1 UNK         0.0566 
    113 H113      -49.1668  -29.3411   15.2309 H         1 UNK         0.0814 
    114 H114      -48.8088  -30.7987   16.1435 H         1 UNK         0.0814 
    115 H115      -48.5487  -29.2246   16.8780 H         1 UNK         0.0814 
    116 H116      -50.8994  -27.7999   16.1855 H         1 UNK         0.3091 
    117 H117      -53.4716  -26.5436   18.2594 H         1 UNK         0.0702 
    118 H118      -51.9116  -24.6856   18.7866 H         1 UNK         0.0785 
    119 H119      -50.5258  -25.6911   18.3596 H         1 UNK         0.0785 
    120 H120      -51.5192  -26.0981   19.7518 H         1 UNK         0.0785 
    121 H121      -51.8018  -25.3244   16.2638 H         1 UNK         0.2998 
    122 H122      -53.5780  -26.4821   13.4289 H         1 UNK         0.0697 
    123 H123      -53.6924  -23.6897   14.6873 H         1 UNK         0.0825 
    124 H124      -55.0905  -24.6640   14.2594 H         1 UNK         0.0825 
    125 H125      -54.0127  -24.0856   12.9996 H         1 UNK         0.0825 
    126 H126      -51.6173  -24.5221   13.4521 H         1 UNK         0.3029 
    127 H127      -49.1396  -24.9972   13.9304 H         1 UNK         0.0897 
    128 H128      -48.6119  -27.7524   12.6931 H         1 UNK         0.0792 
    129 H129      -48.1705  -27.2300   14.3109 H         1 UNK         0.0792 
    130 H130      -47.3968  -26.4912   12.9208 H         1 UNK         0.0792 
    131 H131      -49.3379  -25.9278   11.1589 H         1 UNK         0.3086 
    132 H132      -50.1114  -24.6489    9.5315 H         1 UNK         0.0583 
    133 H133      -52.1092  -23.0842   10.1376 H         1 UNK         0.1020 
    134 H134      -50.9924  -21.7556   10.0418 H         1 UNK         0.1020 
    135 H135      -53.7624  -22.8057    7.8603 H         1 UNK         0.0694 
    136 H136      -53.1019  -23.7259    6.5332 H         1 UNK         0.0694 
    137 H137      -48.4172  -22.4023   10.4898 H         1 UNK         0.2989 
    138 H138      -46.6171  -21.7573    9.3135 H         1 UNK         0.1055 
    139 H139      -45.3459  -24.5427    9.1116 H         1 UNK         0.0806 
    140 H140      -45.6903  -23.6684   10.5958 H         1 UNK         0.0806 
    141 H141      -44.4655  -23.0632    9.4901 H         1 UNK         0.0806 
    142 H142      -45.4690  -23.1786    7.0222 H         1 UNK         0.3061 
    143 H143      -47.0501  -21.2348    4.5663 H         1 UNK         0.0734 
    144 H144      -44.1694  -20.7485    5.5078 H         1 UNK         0.0832 
    145 H145      -44.7937  -20.4302    3.8880 H         1 UNK         0.0832 
    146 H146      -45.3878  -19.5065    5.2575 H         1 UNK         0.0832 
    147 H147      -44.7317  -22.9963    4.6678 H         1 UNK         0.3156 
    148 H148      -46.5608  -25.7618    3.4462 H         1 UNK         0.0589 
    149 H149      -44.2395  -25.9255    2.7297 H         1 UNK         0.0808 
    150 H150      -44.8285  -24.3307    2.3002 H         1 UNK         0.0808 
    151 H151      -43.7612  -24.5309    3.6854 H         1 UNK         0.0808 
    152 H152      -45.9434  -26.9705    5.1921 H         1 UNK         0.3098 
    153 H153      -44.1442  -27.8000    6.5516 H         1 UNK         0.0720 
    154 H154      -43.3877  -25.8502    8.7880 H         1 UNK         0.0791 
    155 H155      -42.3237  -26.3917    7.5006 H         1 UNK         0.0791 
    156 H156      -42.9264  -27.5479    8.6746 H         1 UNK         0.0791 
    157 H157      -45.4522  -27.1819    9.0071 H         1 UNK         0.3028 
@<TRIPOS>BOND
     1    1    2 1    
     2    1   82 1    
     3    1   83 1    
     4    1   84 1    
     5    2    3 2    
     6    2    4 am   BACKBONE|DICT|INTERRES
     7    4    5 1    
     8    4   85 1    
     9    5    6 1    
    10    5   80 1    
    11    5   86 1    
    12    6    7 1    
    13    6   87 1    
    14    6   88 1    
    15    7    8 1    
    16    8    9 1    
    17    8   89 1    
    18    8   90 1    
    19    9   10 ar   
    20    9   14 ar   
    21   10   11 ar   
    22   10   91 1    
    23   11   12 ar   
    24   11   58 1    
    25   12   13 ar   
    26   12   92 1    
    27   13   14 ar   
    28   13   15 1    
    29   14   93 1    
    30   15   16 1    
    31   15   94 1    
    32   15   95 1    
    33   16   17 1    
    34   17   18 1    
    35   17   96 1    
    36   17   97 1    
    37   18   19 1    
    38   18   22 1    
    39   18   98 1    
    40   19   20 am   BACKBONE|DICT|INTERRES
    41   19   21 2    
    42   20   99 1    
    43   20  100 1    
    44   22   23 am   BACKBONE|DICT|INTERRES
    45   22  101 1    
    46   23   24 2    
    47   23   25 1    
    48   25   26 1    
    49   25   27 1    
    50   25  102 1    
    51   26  103 1    
    52   26  104 1    
    53   26  105 1    
    54   27   28 am   BACKBONE|DICT|INTERRES
    55   27  106 1    
    56   28   29 2    
    57   28   30 1    
    58   30   31 1    
    59   30   32 1    
    60   30  107 1    
    61   31  108 1    
    62   31  109 1    
    63   31  110 1    
    64   32   33 am   BACKBONE|DICT|INTERRES
    65   32  111 1    
    66   33   34 2    
    67   33   35 1    
    68   35   36 1    
    69   35   37 1    
    70   35  112 1    
    71   36  113 1    
    72   36  114 1    
    73   36  115 1    
    74   37   38 am   BACKBONE|DICT|INTERRES
    75   37  116 1    
    76   38   39 2    
    77   38   40 1    
    78   40   41 1    
    79   40   42 1    
    80   40  117 1    
    81   41  118 1    
    82   41  119 1    
    83   41  120 1    
    84   42   43 am   BACKBONE|DICT|INTERRES
    85   42  121 1    
    86   43   44 2    
    87   43   45 1    
    88   45   46 1    
    89   45   47 1    
    90   45  122 1    
    91   46  123 1    
    92   46  124 1    
    93   46  125 1    
    94   47   48 am   BACKBONE|DICT|INTERRES
    95   47  126 1    
    96   48   49 2    
    97   48   50 1    
    98   50   51 1    
    99   50   52 1    
   100   50  127 1    
   101   51  128 1    
   102   51  129 1    
   103   51  130 1    
   104   52   53 am   BACKBONE|DICT|INTERRES
   105   52  131 1    
   106   53   54 2    
   107   53   55 1    
   108   55   56 1    
   109   55   59 1    
   110   55  132 1    
   111   56   57 1    
   112   56  133 1    
   113   56  134 1    
   114   57   58 1    
   115   58  135 1    
   116   58  136 1    
   117   59   60 am   BACKBONE|DICT|INTERRES
   118   59  137 1    
   119   60   61 2    
   120   60   62 1    
   121   62   63 1    
   122   62   64 1    
   123   62  138 1    
   124   63  139 1    
   125   63  140 1    
   126   63  141 1    
   127   64   65 am   BACKBONE|DICT|INTERRES
   128   64  142 1    
   129   65   66 2    
   130   65   67 1    
   131   67   68 1    
   132   67   69 1    
   133   67  143 1    
   134   68  144 1    
   135   68  145 1    
   136   68  146 1    
   137   69   70 am   BACKBONE|DICT|INTERRES
   138   69  147 1    
   139   70   71 2    
   140   70   72 1    
   141   72   73 1    
   142   72   74 1    
   143   72  148 1    
   144   73  149 1    
   145   73  150 1    
   146   73  151 1    
   147   74   75 am   BACKBONE|DICT|INTERRES
   148   74  152 1    
   149   75   76 2    
   150   75   77 1    
   151   77   78 1    
   152   77   79 1    
   153   77  153 1    
   154   78  154 1    
   155   78  155 1    
   156   78  156 1    
   157   79   80 am   BACKBONE|DICT|INTERRES
   158   79  157 1    
   159   80   81 2    
@<TRIPOS>SUBSTRUCTURE
     1 UNK         1 GROUP             0       ****    0 ROOT    
