@<TRIPOS>MOLECULE
3R207
157   159    1
SMALL
USER_CHARGES


@<TRIPOS>ATOM
      1 CA        -52.4293  -24.4106    4.1898 C.3       0 UNK        -0.1975 
      2 C         -52.2559  -24.4335    5.7006 C.2       0 UNK         0.4852 
      3 O         -52.4481  -23.4098    6.3579 O.2       0 UNK        -0.5216 
      4 N         -51.8692  -25.5866    6.2612 N.am      1 UNK        -0.4461 
      5 CA        -51.6629  -25.8454    7.6937 C.3       1 UNK         0.0864 
      6 C6        -51.8174  -27.3557    8.0100 C.3       14 UNK        -0.0898 
      7 S7        -50.7799  -28.4473    6.9751 S.3       14 UNK        -0.2598 
      8 C8        -51.7118  -30.0154    7.0640 C.3       14 UNK         0.0286 
      9 C9        -51.8929  -30.5288    8.4899 C.ar      14 UNK        -0.0844 
     10 C10       -50.8040  -30.5927    9.3634 C.ar      14 UNK        -0.0881 
     11 C11       -50.9672  -31.0300   10.6806 C.ar      14 UNK        -0.0643 
     12 C12       -52.2278  -31.4628   11.0986 C.ar      14 UNK        -0.0930 
     13 C13       -53.3279  -31.4400   10.2354 C.ar      14 UNK        -0.0827 
     14 C14       -53.1498  -30.9581    8.9296 C.ar      14 UNK        -0.1249 
     15 C15       -54.6643  -31.9660   10.7727 C.3       14 UNK         0.0141 
     16 S16       -56.0828  -31.8888    9.6221 S.3       14 UNK        -0.2313 
     17 C17       -57.1356  -30.5899   10.3556 C.3       14 UNK        -0.0915 
     18 CA        -56.7996  -29.1728    9.8072 C.3       13 UNK         0.0968 
     19 C         -57.9704  -28.1496    9.9550 C.2       13 UNK         0.5732 
     20 N         -57.7014  -26.8530   10.0541 N.am      13 UNK        -0.7310 
     21 O         -59.1412  -28.5231    9.9395 O.2       13 UNK        -0.5035 
     22 N         -55.4870  -28.6965   10.2812 N.am      13 UNK        -0.4233 
     23 C         -55.1818  -28.3154   11.5302 C.2       13 UNK         0.4989 
     24 O         -55.9921  -28.2525   12.4578 O.2       13 UNK        -0.4996 
     25 CA        -53.7217  -27.8762   11.7431 C.3       12 UNK         0.0216 
     26 CB        -53.4956  -26.4826   11.1292 C.3       12 UNK        -0.1964 
     27 N         -53.3015  -27.8506   13.1493 N.am      12 UNK        -0.4276 
     28 C         -53.2439  -28.9064   13.9759 C.2       12 UNK         0.5020 
     29 O         -53.5591  -30.0505   13.6507 O.2       12 UNK        -0.5489 
     30 CA        -52.7128  -28.6714   15.4013 C.3       11 UNK         0.0294 
     31 CB        -51.3730  -29.4047   15.5955 C.3       11 UNK        -0.2019 
     32 N         -52.5023  -27.2541   15.7003 N.am      11 UNK        -0.4493 
     33 C         -53.2135  -26.5170   16.5619 C.2       11 UNK         0.4932 
     34 O         -54.1863  -26.9414   17.1876 O.2       11 UNK        -0.5029 
     35 CA        -52.7482  -25.0568   16.7488 C.3       10 UNK         0.0280 
     36 CB        -53.2939  -24.4048   18.0370 C.3       10 UNK        -0.1976 
     37 N         -51.2894  -24.9092   16.6549 N.am      10 UNK        -0.4242 
     38 C         -50.3537  -25.4551   17.4498 C.2       10 UNK         0.5072 
     39 O         -50.6076  -26.0989   18.4687 O.2       10 UNK        -0.5224 
     40 CA        -48.8782  -25.2933   17.0280 C.3       9 UNK         0.0343 
     41 CB        -48.3017  -26.6482   16.5826 C.3       9 UNK        -0.2003 
     42 N         -48.6778  -24.3220   15.9493 N.am      9 UNK        -0.4272 
     43 C         -48.6974  -22.9903   16.1022 C.2       9 UNK         0.4988 
     44 O         -48.8092  -22.4251   17.1901 O.2       9 UNK        -0.5108 
     45 CA        -48.6156  -22.1488   14.8167 C.3       8 UNK         0.0248 
     46 CB        -47.1524  -21.8510   14.4507 C.3       8 UNK        -0.2001 
     47 N         -49.2890  -22.7932   13.6842 N.am      8 UNK        -0.4140 
     48 C         -50.6189  -22.9391   13.5798 C.2       8 UNK         0.5028 
     49 O         -51.4218  -22.5079   14.4065 O.2       8 UNK        -0.5428 
     50 CA        -51.1412  -23.7524   12.3833 C.3       7 UNK         0.0264 
     51 CB        -51.3226  -22.8530   11.1522 C.3       7 UNK        -0.1988 
     52 N         -50.2824  -24.8966   12.0568 N.am      7 UNK        -0.4454 
     53 C         -50.1165  -25.9548   12.8657 C.2       7 UNK         0.5027 
     54 O         -50.7234  -26.0918   13.9268 O.2       7 UNK        -0.5083 
     55 CA        -49.0980  -27.0305   12.4514 C.3       6 UNK         0.0844 
     56 C56       -49.8086  -28.2363   11.7986 C.3       14 UNK        -0.0967 
     57 S57       -48.6694  -29.6315   11.5204 S.3       14 UNK        -0.2604 
     58 C58       -49.7960  -31.0615   11.6606 C.3       14 UNK         0.0134 
     59 N         -48.0331  -26.4894   11.6057 N.am      6 UNK        -0.4116 
     60 C         -47.0829  -25.6368   12.0113 C.2       5 UNK         0.5034 
     61 O         -47.0577  -25.1501   13.1431 O.2       5 UNK        -0.5045 
     62 CA        -46.0149  -25.2136   10.9817 C.3       5 UNK         0.0224 
     63 CB        -44.5909  -25.2631   11.5724 C.3       5 UNK        -0.1978 
     64 N         -46.0967  -25.9305    9.6984 N.am      5 UNK        -0.4737 
     65 C         -45.8633  -27.2303    9.4498 C.2       4 UNK         0.5027 
     66 O         -45.4194  -28.0158   10.2860 O.2       4 UNK        -0.5211 
     67 CA        -46.2382  -27.7651    8.0535 C.3       4 UNK         0.0297 
     68 CB        -47.2919  -28.8784    8.1740 C.3       4 UNK        -0.1993 
     69 N         -46.7799  -26.7199    7.1825 N.am      4 UNK        -0.4486 
     70 C         -46.0689  -26.0192    6.2889 C.2       3 UNK         0.4961 
     71 O         -44.8803  -26.2238    6.0425 O.2       3 UNK        -0.5105 
     72 CA        -46.8023  -24.8754    5.5619 C.3       3 UNK         0.0299 
     73 CB        -47.3917  -25.3765    4.2335 C.3       3 UNK        -0.1972 
     74 N         -47.8684  -24.2584    6.3583 N.am      3 UNK        -0.4305 
     75 C         -47.6947  -23.6261    7.5289 C.2       2 UNK         0.5006 
     76 O         -46.5973  -23.4584    8.0584 O.2       2 UNK        -0.5106 
     77 CA        -48.9553  -23.1481    8.2669 C.3       2 UNK         0.0296 
     78 CB        -49.2212  -21.6630    7.9763 C.3       2 UNK        -0.2002 
     79 N         -50.1512  -23.9275    7.9387 N.am      2 UNK        -0.4032 
     80 C         -50.3547  -25.2171    8.2392 C.2       1 UNK         0.5000 
     81 O         -49.5536  -25.8831    8.9020 O.2       1 UNK        -0.5238 
     82 H82       -52.2116  -25.3790    3.7397 H         1 UNK         0.0889 
     83 H83       -51.7619  -23.6722    3.7464 H         1 UNK         0.0889 
     84 H84       -53.4538  -24.1408    3.9350 H         1 UNK         0.0889 
     85 H85       -51.6976  -26.3883    5.6694 H         1 UNK         0.3028 
     86 H86       -52.4639  -25.3342    8.2322 H         1 UNK         0.0864 
     87 H87       -52.8595  -27.6403    7.8571 H         1 UNK         0.0720 
     88 H88       -51.6121  -27.5640    9.0594 H         1 UNK         0.0720 
     89 H89       -51.1821  -30.7721    6.4841 H         1 UNK         0.0814 
     90 H90       -52.6781  -29.8746    6.5772 H         1 UNK         0.0814 
     91 H91       -49.8289  -30.2785    9.0201 H         1 UNK         0.1469 
     92 H92       -52.3572  -31.8220   12.1107 H         1 UNK         0.1381 
     93 H93       -53.9799  -30.9257    8.2393 H         1 UNK         0.1206 
     94 H94       -54.9094  -31.4369   11.6943 H         1 UNK         0.0813 
     95 H95       -54.5277  -33.0108   11.0546 H         1 UNK         0.0813 
     96 H96       -58.1605  -30.8695   10.1073 H         1 UNK         0.0638 
     97 H97       -57.0783  -30.6202   11.4445 H         1 UNK         0.0638 
     98 H98       -56.6927  -29.2686    8.7262 H         1 UNK         0.0568 
     99 H99       -58.4629  -26.1983   10.1366 H         1 UNK         0.3450 
    100 H100      -56.7500  -26.5254   10.0614 H         1 UNK         0.3450 
    101 H101      -54.7555  -28.7029    9.5868 H         1 UNK         0.2987 
    102 H102      -53.0828  -28.5945   11.2251 H         1 UNK         0.0766 
    103 H103      -52.4369  -26.2397   11.0821 H         1 UNK         0.0798 
    104 H104      -53.9992  -25.7024   11.7014 H         1 UNK         0.0798 
    105 H105      -53.8736  -26.4254   10.1080 H         1 UNK         0.0798 
    106 H106      -53.0439  -26.9520   13.5287 H         1 UNK         0.3198 
    107 H107      -53.4431  -29.1004   16.0904 H         1 UNK         0.0843 
    108 H108      -50.6036  -29.0284   14.9203 H         1 UNK         0.0831 
    109 H109      -51.4788  -30.4739   15.4067 H         1 UNK         0.0831 
    110 H110      -51.0056  -29.2915   16.6157 H         1 UNK         0.0831 
    111 H111      -51.7355  -26.8014   15.2026 H         1 UNK         0.3133 
    112 H112      -53.1572  -24.5015   15.9035 H         1 UNK         0.0566 
    113 H113      -52.9527  -23.3742   18.1343 H         1 UNK         0.0814 
    114 H114      -54.3844  -24.3850   18.0329 H         1 UNK         0.0814 
    115 H115      -52.9836  -24.9476   18.9302 H         1 UNK         0.0814 
    116 H116      -50.9644  -24.4096   15.8379 H         1 UNK         0.3091 
    117 H117      -48.3213  -24.9565   17.9049 H         1 UNK         0.0702 
    118 H118      -47.2586  -26.5586   16.2784 H         1 UNK         0.0785 
    119 H119      -48.8616  -27.0694   15.7478 H         1 UNK         0.0785 
    120 H120      -48.3409  -27.3743   17.3957 H         1 UNK         0.0785 
    121 H121      -48.5328  -24.6965   15.0211 H         1 UNK         0.2998 
    122 H122      -49.1165  -21.1978   15.0112 H         1 UNK         0.0697 
    123 H123      -46.5875  -22.7624   14.2523 H         1 UNK         0.0825 
    124 H124      -46.6479  -21.3287   15.2648 H         1 UNK         0.0825 
    125 H125      -47.0846  -21.2145   13.5684 H         1 UNK         0.0825 
    126 H126      -48.6961  -23.2115   12.9821 H         1 UNK         0.3029 
    127 H127      -52.1236  -24.1402   12.6619 H         1 UNK         0.0897 
    128 H128      -50.3793  -22.4153   10.8276 H         1 UNK         0.0792 
    129 H129      -52.0000  -22.0270   11.3738 H         1 UNK         0.0792 
    130 H130      -51.7542  -23.4024   10.3163 H         1 UNK         0.0792 
    131 H131      -49.7774  -24.8761   11.1813 H         1 UNK         0.3086 
    132 H132      -48.6288  -27.3826   13.3722 H         1 UNK         0.0583 
    133 H133      -50.6284  -28.5856   12.4278 H         1 UNK         0.1020 
    134 H134      -50.2511  -27.9547   10.8429 H         1 UNK         0.1020 
    135 H135      -49.2244  -31.9747   11.4913 H         1 UNK         0.0694 
    136 H136      -50.1608  -31.1091   12.6881 H         1 UNK         0.0694 
    137 H137      -48.0115  -26.8152   10.6496 H         1 UNK         0.2989 
    138 H138      -46.2316  -24.1696   10.7501 H         1 UNK         0.1055 
    139 H139      -44.5021  -24.5972   12.4318 H         1 UNK         0.0806 
    140 H140      -43.8468  -24.9470   10.8414 H         1 UNK         0.0806 
    141 H141      -44.3247  -26.2636   11.9136 H         1 UNK         0.0806 
    142 H142      -46.4043  -25.3571    8.9209 H         1 UNK         0.3061 
    143 H143      -45.3358  -28.1934    7.6123 H         1 UNK         0.0734 
    144 H144      -47.5558  -29.2863    7.1982 H         1 UNK         0.0832 
    145 H145      -46.9250  -29.7063    8.7821 H         1 UNK         0.0832 
    146 H146      -48.2062  -28.5111    8.6417 H         1 UNK         0.0832 
    147 H147      -47.7518  -26.4791    7.3287 H         1 UNK         0.3156 
    148 H148      -46.0650  -24.1008    5.3403 H         1 UNK         0.0589 
    149 H149      -48.1567  -26.1380    4.3914 H         1 UNK         0.0808 
    150 H150      -47.8392  -24.5619    3.6637 H         1 UNK         0.0808 
    151 H151      -46.6168  -25.8194    3.6060 H         1 UNK         0.0808 
    152 H152      -48.8071  -24.3391    5.9972 H         1 UNK         0.3098 
    153 H153      -48.7613  -23.2625    9.3347 H         1 UNK         0.0720 
    154 H154      -50.0697  -21.2904    8.5504 H         1 UNK         0.0791 
    155 H155      -49.4310  -21.4896    6.9200 H         1 UNK         0.0791 
    156 H156      -48.3577  -21.0517    8.2428 H         1 UNK         0.0791 
    157 H157      -50.8789  -23.4614    7.4004 H         1 UNK         0.3028 
@<TRIPOS>BOND
     1    1    2 1    
     2    1   82 1    
     3    1   83 1    
     4    1   84 1    
     5    2    3 2    
     6    2    4 am   BACKBONE|DICT|INTERRES
     7    4    5 1    
     8    4   85 1    
     9    5    6 1    
    10    5   80 1    
    11    5   86 1    
    12    6    7 1    
    13    6   87 1    
    14    6   88 1    
    15    7    8 1    
    16    8    9 1    
    17    8   89 1    
    18    8   90 1    
    19    9   10 ar   
    20    9   14 ar   
    21   10   11 ar   
    22   10   91 1    
    23   11   12 ar   
    24   11   58 1    
    25   12   13 ar   
    26   12   92 1    
    27   13   14 ar   
    28   13   15 1    
    29   14   93 1    
    30   15   16 1    
    31   15   94 1    
    32   15   95 1    
    33   16   17 1    
    34   17   18 1    
    35   17   96 1    
    36   17   97 1    
    37   18   19 1    
    38   18   22 1    
    39   18   98 1    
    40   19   20 am   BACKBONE|DICT|INTERRES
    41   19   21 2    
    42   20   99 1    
    43   20  100 1    
    44   22   23 am   BACKBONE|DICT|INTERRES
    45   22  101 1    
    46   23   24 2    
    47   23   25 1    
    48   25   26 1    
    49   25   27 1    
    50   25  102 1    
    51   26  103 1    
    52   26  104 1    
    53   26  105 1    
    54   27   28 am   BACKBONE|DICT|INTERRES
    55   27  106 1    
    56   28   29 2    
    57   28   30 1    
    58   30   31 1    
    59   30   32 1    
    60   30  107 1    
    61   31  108 1    
    62   31  109 1    
    63   31  110 1    
    64   32   33 am   BACKBONE|DICT|INTERRES
    65   32  111 1    
    66   33   34 2    
    67   33   35 1    
    68   35   36 1    
    69   35   37 1    
    70   35  112 1    
    71   36  113 1    
    72   36  114 1    
    73   36  115 1    
    74   37   38 am   BACKBONE|DICT|INTERRES
    75   37  116 1    
    76   38   39 2    
    77   38   40 1    
    78   40   41 1    
    79   40   42 1    
    80   40  117 1    
    81   41  118 1    
    82   41  119 1    
    83   41  120 1    
    84   42   43 am   BACKBONE|DICT|INTERRES
    85   42  121 1    
    86   43   44 2    
    87   43   45 1    
    88   45   46 1    
    89   45   47 1    
    90   45  122 1    
    91   46  123 1    
    92   46  124 1    
    93   46  125 1    
    94   47   48 am   BACKBONE|DICT|INTERRES
    95   47  126 1    
    96   48   49 2    
    97   48   50 1    
    98   50   51 1    
    99   50   52 1    
   100   50  127 1    
   101   51  128 1    
   102   51  129 1    
   103   51  130 1    
   104   52   53 am   BACKBONE|DICT|INTERRES
   105   52  131 1    
   106   53   54 2    
   107   53   55 1    
   108   55   56 1    
   109   55   59 1    
   110   55  132 1    
   111   56   57 1    
   112   56  133 1    
   113   56  134 1    
   114   57   58 1    
   115   58  135 1    
   116   58  136 1    
   117   59   60 am   BACKBONE|DICT|INTERRES
   118   59  137 1    
   119   60   61 2    
   120   60   62 1    
   121   62   63 1    
   122   62   64 1    
   123   62  138 1    
   124   63  139 1    
   125   63  140 1    
   126   63  141 1    
   127   64   65 am   BACKBONE|DICT|INTERRES
   128   64  142 1    
   129   65   66 2    
   130   65   67 1    
   131   67   68 1    
   132   67   69 1    
   133   67  143 1    
   134   68  144 1    
   135   68  145 1    
   136   68  146 1    
   137   69   70 am   BACKBONE|DICT|INTERRES
   138   69  147 1    
   139   70   71 2    
   140   70   72 1    
   141   72   73 1    
   142   72   74 1    
   143   72  148 1    
   144   73  149 1    
   145   73  150 1    
   146   73  151 1    
   147   74   75 am   BACKBONE|DICT|INTERRES
   148   74  152 1    
   149   75   76 2    
   150   75   77 1    
   151   77   78 1    
   152   77   79 1    
   153   77  153 1    
   154   78  154 1    
   155   78  155 1    
   156   78  156 1    
   157   79   80 am   BACKBONE|DICT|INTERRES
   158   79  157 1    
   159   80   81 2    
@<TRIPOS>SUBSTRUCTURE
     1 UNK         1 GROUP             0       ****    0 ROOT    
