@<TRIPOS>MOLECULE
3R207
157   159    1
SMALL
USER_CHARGES


@<TRIPOS>ATOM
      1 CA        -50.1689  -32.2828    7.0844 C.3       0 UNK        -0.1975 
      2 C         -50.1963  -31.3524    5.8814 C.2       0 UNK         0.4852 
      3 O         -49.6767  -31.7010    4.8207 O.2       0 UNK        -0.5216 
      4 N         -50.7956  -30.1653    6.0434 N.am      1 UNK        -0.4461 
      5 CA        -50.9031  -29.1325    5.0057 C.3       1 UNK         0.0864 
      6 C6        -51.9561  -28.0560    5.3678 C.3       14 UNK        -0.0898 
      7 S7        -53.6626  -28.6691    5.6015 S.3       14 UNK        -0.2598 
      8 C8        -53.7286  -29.4141    7.2755 C.3       14 UNK         0.0286 
      9 C9        -52.8098  -28.7862    8.3201 C.ar      14 UNK        -0.0844 
     10 C10       -52.8026  -27.4040    8.5430 C.ar      14 UNK        -0.0881 
     11 C11       -51.9523  -26.8456    9.5014 C.ar      14 UNK        -0.0643 
     12 C12       -51.1407  -27.6817   10.2713 C.ar      14 UNK        -0.0930 
     13 C13       -51.1650  -29.0657   10.0875 C.ar      14 UNK        -0.0827 
     14 C14       -51.9900  -29.6099    9.0998 C.ar      14 UNK        -0.1249 
     15 C15       -50.3187  -29.9665   10.9799 C.3       14 UNK         0.0141 
     16 S16       -51.3244  -31.0486   12.0525 S.3       14 UNK        -0.2313 
     17 C17       -52.4946  -29.8699   12.8102 C.3       14 UNK        -0.0915 
     18 CA        -53.9095  -29.9758   12.1685 C.3       13 UNK         0.0968 
     19 C         -54.8715  -30.8586   13.0105 C.2       13 UNK         0.5732 
     20 N         -54.6554  -32.1670   13.0163 N.am      13 UNK        -0.7310 
     21 O         -55.7820  -30.3786   13.6830 O.2       13 UNK        -0.5035 
     22 N         -54.4561  -28.6515   11.8469 N.am      13 UNK        -0.4233 
     23 C         -55.4516  -28.4343   10.9754 C.2       13 UNK         0.4989 
     24 O         -56.0183  -29.3349   10.3524 O.2       13 UNK        -0.4996 
     25 CA        -55.8553  -26.9683   10.7110 C.3       12 UNK         0.0216 
     26 CB        -57.3034  -26.8199   10.1955 C.3       12 UNK        -0.1964 
     27 N         -55.5893  -26.0722   11.8408 N.am      12 UNK        -0.4276 
     28 C         -56.1762  -26.0781   13.0444 C.2       12 UNK         0.5020 
     29 O         -57.1168  -26.8066   13.3671 O.2       12 UNK        -0.5489 
     30 CA        -55.5799  -25.1103   14.0814 C.3       11 UNK         0.0294 
     31 CB        -56.6458  -24.1354   14.6097 C.3       11 UNK        -0.2019 
     32 N         -54.9764  -25.8309   15.2043 N.am      11 UNK        -0.4493 
     33 C         -53.9587  -26.6953   15.0983 C.2       11 UNK         0.4932 
     34 O         -53.4109  -26.9862   14.0328 O.2       11 UNK        -0.5029 
     35 CA        -53.4978  -27.3664   16.4049 C.3       10 UNK         0.0280 
     36 CB        -54.3390  -28.6230   16.6824 C.3       10 UNK        -0.1976 
     37 N         -52.0830  -27.7437   16.3606 N.am      10 UNK        -0.4242 
     38 C         -51.0640  -26.8822   16.2424 C.2       10 UNK         0.5072 
     39 O         -51.1950  -25.6558   16.2740 O.2       10 UNK        -0.5224 
     40 CA        -49.6779  -27.5174   16.0304 C.3       9 UNK         0.0343 
     41 CB        -49.6239  -28.2718   14.6874 C.3       9 UNK        -0.2003 
     42 N         -48.6134  -26.5145   16.0386 N.am      9 UNK        -0.4272 
     43 C         -48.0873  -25.9451   17.1302 C.2       9 UNK         0.4988 
     44 O         -48.4068  -26.2484   18.2809 O.2       9 UNK        -0.5108 
     45 CA        -47.0138  -24.8673   16.9111 C.3       8 UNK         0.0248 
     46 CB        -45.6483  -25.5172   16.6297 C.3       8 UNK        -0.2001 
     47 N         -47.3542  -23.9621   15.8085 N.am      8 UNK        -0.4140 
     48 C         -47.4389  -22.6263   15.9073 C.2       8 UNK         0.5028 
     49 O         -47.2436  -22.0041   16.9527 O.2       8 UNK        -0.5428 
     50 CA        -47.7811  -21.8284   14.6307 C.3       7 UNK         0.0264 
     51 CB        -46.5061  -21.2216   14.0233 C.3       7 UNK        -0.1988 
     52 N         -48.4663  -22.6262   13.6108 N.am      7 UNK        -0.4454 
     53 C         -49.7310  -23.0634   13.7264 C.2       7 UNK         0.5027 
     54 O         -50.4856  -22.6814   14.6213 O.2       7 UNK        -0.5083 
     55 CA        -50.2477  -24.1174   12.7151 C.3       6 UNK         0.0844 
     56 C56       -51.4192  -23.5580   11.8627 C.3       14 UNK        -0.0967 
     57 S57       -52.5601  -24.8766   11.3302 S.3       14 UNK        -0.2604 
     58 C58       -51.8883  -25.3420    9.7083 C.3       14 UNK         0.0134 
     59 N         -49.1918  -24.7031   11.8740 N.am      6 UNK        -0.4116 
     60 C         -48.1533  -25.4289   12.3156 C.2       5 UNK         0.5034 
     61 O         -47.9688  -25.7013   13.5000 O.2       5 UNK        -0.5045 
     62 CA        -47.0954  -25.8656   11.2894 C.3       5 UNK         0.0224 
     63 CB        -47.3625  -27.3009   10.8109 C.3       5 UNK        -0.1978 
     64 N         -46.9697  -24.9757   10.1314 N.am      5 UNK        -0.4737 
     65 C         -46.6572  -23.6717   10.1814 C.2       4 UNK         0.5027 
     66 O         -46.4605  -23.0578   11.2298 O.2       4 UNK        -0.5211 
     67 CA        -46.5853  -22.9232    8.8388 C.3       4 UNK         0.0297 
     68 CB        -45.1338  -22.8578    8.3395 C.3       4 UNK        -0.1993 
     69 N         -47.4271  -23.5251    7.8002 N.am      4 UNK        -0.4486 
     70 C         -48.7646  -23.5597    7.8172 C.2       3 UNK         0.4961 
     71 O         -49.4455  -23.0473    8.7052 O.2       3 UNK        -0.5105 
     72 CA        -49.4635  -24.3330    6.6855 C.3       3 UNK         0.0299 
     73 CB        -49.5153  -23.5035    5.3882 C.3       3 UNK        -0.1972 
     74 N         -48.9268  -25.6830    6.4492 N.am      3 UNK        -0.4305 
     75 C         -47.7305  -26.0526    5.9607 C.2       2 UNK         0.5006 
     76 O         -46.8358  -25.2593    5.6662 O.2       2 UNK        -0.5106 
     77 CA        -47.4697  -27.5639    5.7995 C.3       2 UNK         0.0296 
     78 CB        -46.5643  -28.0736    6.9324 C.3       2 UNK        -0.2002 
     79 N         -48.6987  -28.3622    5.7774 N.am      2 UNK        -0.4032 
     80 C         -49.5553  -28.4255    4.7457 C.2       1 UNK         0.5000 
     81 O         -49.3411  -27.9111    3.6468 O.2       1 UNK        -0.5238 
     82 H82       -51.0988  -32.8475    7.1467 H         1 UNK         0.0889 
     83 H83       -50.0353  -31.7277    8.0122 H         1 UNK         0.0889 
     84 H84       -49.3452  -32.9915    7.0004 H         1 UNK         0.0889 
     85 H85       -51.2277  -29.9359    6.9286 H         1 UNK         0.3028 
     86 H86       -51.2077  -29.6143    4.0739 H         1 UNK         0.0864 
     87 H87       -51.6405  -27.4798    6.2353 H         1 UNK         0.0720 
     88 H88       -52.0171  -27.3258    4.5580 H         1 UNK         0.0720 
     89 H89       -53.5161  -30.4794    7.1738 H         1 UNK         0.0814 
     90 H90       -54.7551  -29.3525    7.6399 H         1 UNK         0.0814 
     91 H91       -53.4433  -26.7641    7.9516 H         1 UNK         0.1469 
     92 H92       -50.5106  -27.2494   11.0357 H         1 UNK         0.1381 
     93 H93       -52.0206  -30.6832    8.9719 H         1 UNK         0.1206 
     94 H94       -49.6586  -29.3725   11.6133 H         1 UNK         0.0813 
     95 H95       -49.6705  -30.5849   10.3582 H         1 UNK         0.0813 
     96 H96       -52.0849  -28.8653   12.7017 H         1 UNK         0.0638 
     97 H97       -52.5227  -30.0439   13.8873 H         1 UNK         0.0638 
     98 H98       -53.8136  -30.4796   11.2047 H         1 UNK         0.0568 
     99 H99       -53.8900  -32.5652   12.4946 H         1 UNK         0.3450 
    100 H100      -55.2561  -32.7624   13.5640 H         1 UNK         0.3450 
    101 H101      -54.0749  -27.8770   12.3806 H         1 UNK         0.2987 
    102 H102      -55.1972  -26.6264    9.9119 H         1 UNK         0.0766 
    103 H103      -57.4388  -27.3531    9.2537 H         1 UNK         0.0798 
    104 H104      -57.5555  -25.7753   10.0133 H         1 UNK         0.0798 
    105 H105      -58.0290  -27.2236   10.9020 H         1 UNK         0.0798 
    106 H106      -54.7834  -25.4693   11.7181 H         1 UNK         0.3198 
    107 H107      -54.7908  -24.5213   13.6083 H         1 UNK         0.0843 
    108 H108      -57.4472  -24.6573   15.1344 H         1 UNK         0.0831 
    109 H109      -57.1028  -23.5787   13.7905 H         1 UNK         0.0831 
    110 H110      -56.2138  -23.4054   15.2946 H         1 UNK         0.0831 
    111 H111      -55.3923  -25.6803   16.1118 H         1 UNK         0.3133 
    112 H112      -53.6323  -26.6613   17.2278 H         1 UNK         0.0566 
    113 H113      -54.2253  -29.3661   15.8919 H         1 UNK         0.0814 
    114 H114      -55.4005  -28.3794   16.7443 H         1 UNK         0.0814 
    115 H115      -54.0599  -29.0900   17.6271 H         1 UNK         0.0814 
    116 H116      -51.8854  -28.7313   16.3039 H         1 UNK         0.3091 
    117 H117      -49.4948  -28.2263   16.8407 H         1 UNK         0.0702 
    118 H118      -48.6171  -28.6280   14.4688 H         1 UNK         0.0785 
    119 H119      -49.9420  -27.6392   13.8571 H         1 UNK         0.0785 
    120 H120      -50.2749  -29.1458   14.6970 H         1 UNK         0.0785 
    121 H121      -48.3098  -26.2000   15.1191 H         1 UNK         0.2998 
    122 H122      -46.9328  -24.3097   17.8464 H         1 UNK         0.0697 
    123 H123      -44.8611  -24.7664   16.5603 H         1 UNK         0.0825 
    124 H124      -45.6540  -26.0830   15.6970 H         1 UNK         0.0825 
    125 H125      -45.3702  -26.2054   17.4291 H         1 UNK         0.0825 
    126 H126      -47.5537  -24.3963   14.9136 H         1 UNK         0.3029 
    127 H127      -48.4407  -21.0088   14.9245 H         1 UNK         0.0897 
    128 H128      -45.7963  -21.9935   13.7226 H         1 UNK         0.0792 
    129 H129      -46.0000  -20.5754   14.7419 H         1 UNK         0.0792 
    130 H130      -46.7326  -20.6156   13.1458 H         1 UNK         0.0792 
    131 H131      -47.9020  -22.9362   12.8266 H         1 UNK         0.3086 
    132 H132      -50.6378  -24.9277   13.3363 H         1 UNK         0.0583 
    133 H133      -52.0267  -22.8573   12.4395 H         1 UNK         0.1020 
    134 H134      -51.0562  -22.9909   11.0033 H         1 UNK         0.1020 
    135 H135      -52.4304  -24.8081    8.9265 H         1 UNK         0.0694 
    136 H136      -50.8476  -25.0342    9.6305 H         1 UNK         0.0694 
    137 H137      -49.2262  -24.4726   10.8914 H         1 UNK         0.2989 
    138 H138      -46.1360  -25.8559   11.8117 H         1 UNK         0.1055 
    139 H139      -46.5099  -27.6938   10.2572 H         1 UNK         0.0806 
    140 H140      -48.2391  -27.3601   10.1661 H         1 UNK         0.0806 
    141 H141      -47.5278  -27.9721   11.6553 H         1 UNK         0.0806 
    142 H142      -47.1073  -25.3876    9.2208 H         1 UNK         0.3061 
    143 H143      -46.9377  -21.9041    9.0118 H         1 UNK         0.0734 
    144 H144      -44.7340  -23.8503    8.1275 H         1 UNK         0.0832 
    145 H145      -45.0536  -22.2622    7.4300 H         1 UNK         0.0832 
    146 H146      -44.4850  -22.3967    9.0857 H         1 UNK         0.0832 
    147 H147      -46.9616  -23.9943    7.0253 H         1 UNK         0.3156 
    148 H148      -50.4951  -24.4859    7.0068 H         1 UNK         0.0589 
    149 H149      -50.0755  -24.0218    4.6099 H         1 UNK         0.0808 
    150 H150      -48.5207  -23.2878    4.9969 H         1 UNK         0.0808 
    151 H151      -50.0089  -22.5459    5.5596 H         1 UNK         0.0808 
    152 H152      -49.5561  -26.4302    6.7009 H         1 UNK         0.3098 
    153 H153      -46.9461  -27.7052    4.8516 H         1 UNK         0.0720 
    154 H154      -45.6362  -27.5020    6.9820 H         1 UNK         0.0791 
    155 H155      -46.2906  -29.1178    6.7801 H         1 UNK         0.0791 
    156 H156      -47.0509  -27.9936    7.9041 H         1 UNK         0.0791 
    157 H157      -48.9436  -28.8481    6.6277 H         1 UNK         0.3028 
@<TRIPOS>BOND
     1    1    2 1    
     2    1   82 1    
     3    1   83 1    
     4    1   84 1    
     5    2    3 2    
     6    2    4 am   BACKBONE|DICT|INTERRES
     7    4    5 1    
     8    4   85 1    
     9    5    6 1    
    10    5   80 1    
    11    5   86 1    
    12    6    7 1    
    13    6   87 1    
    14    6   88 1    
    15    7    8 1    
    16    8    9 1    
    17    8   89 1    
    18    8   90 1    
    19    9   10 ar   
    20    9   14 ar   
    21   10   11 ar   
    22   10   91 1    
    23   11   12 ar   
    24   11   58 1    
    25   12   13 ar   
    26   12   92 1    
    27   13   14 ar   
    28   13   15 1    
    29   14   93 1    
    30   15   16 1    
    31   15   94 1    
    32   15   95 1    
    33   16   17 1    
    34   17   18 1    
    35   17   96 1    
    36   17   97 1    
    37   18   19 1    
    38   18   22 1    
    39   18   98 1    
    40   19   20 am   BACKBONE|DICT|INTERRES
    41   19   21 2    
    42   20   99 1    
    43   20  100 1    
    44   22   23 am   BACKBONE|DICT|INTERRES
    45   22  101 1    
    46   23   24 2    
    47   23   25 1    
    48   25   26 1    
    49   25   27 1    
    50   25  102 1    
    51   26  103 1    
    52   26  104 1    
    53   26  105 1    
    54   27   28 am   BACKBONE|DICT|INTERRES
    55   27  106 1    
    56   28   29 2    
    57   28   30 1    
    58   30   31 1    
    59   30   32 1    
    60   30  107 1    
    61   31  108 1    
    62   31  109 1    
    63   31  110 1    
    64   32   33 am   BACKBONE|DICT|INTERRES
    65   32  111 1    
    66   33   34 2    
    67   33   35 1    
    68   35   36 1    
    69   35   37 1    
    70   35  112 1    
    71   36  113 1    
    72   36  114 1    
    73   36  115 1    
    74   37   38 am   BACKBONE|DICT|INTERRES
    75   37  116 1    
    76   38   39 2    
    77   38   40 1    
    78   40   41 1    
    79   40   42 1    
    80   40  117 1    
    81   41  118 1    
    82   41  119 1    
    83   41  120 1    
    84   42   43 am   BACKBONE|DICT|INTERRES
    85   42  121 1    
    86   43   44 2    
    87   43   45 1    
    88   45   46 1    
    89   45   47 1    
    90   45  122 1    
    91   46  123 1    
    92   46  124 1    
    93   46  125 1    
    94   47   48 am   BACKBONE|DICT|INTERRES
    95   47  126 1    
    96   48   49 2    
    97   48   50 1    
    98   50   51 1    
    99   50   52 1    
   100   50  127 1    
   101   51  128 1    
   102   51  129 1    
   103   51  130 1    
   104   52   53 am   BACKBONE|DICT|INTERRES
   105   52  131 1    
   106   53   54 2    
   107   53   55 1    
   108   55   56 1    
   109   55   59 1    
   110   55  132 1    
   111   56   57 1    
   112   56  133 1    
   113   56  134 1    
   114   57   58 1    
   115   58  135 1    
   116   58  136 1    
   117   59   60 am   BACKBONE|DICT|INTERRES
   118   59  137 1    
   119   60   61 2    
   120   60   62 1    
   121   62   63 1    
   122   62   64 1    
   123   62  138 1    
   124   63  139 1    
   125   63  140 1    
   126   63  141 1    
   127   64   65 am   BACKBONE|DICT|INTERRES
   128   64  142 1    
   129   65   66 2    
   130   65   67 1    
   131   67   68 1    
   132   67   69 1    
   133   67  143 1    
   134   68  144 1    
   135   68  145 1    
   136   68  146 1    
   137   69   70 am   BACKBONE|DICT|INTERRES
   138   69  147 1    
   139   70   71 2    
   140   70   72 1    
   141   72   73 1    
   142   72   74 1    
   143   72  148 1    
   144   73  149 1    
   145   73  150 1    
   146   73  151 1    
   147   74   75 am   BACKBONE|DICT|INTERRES
   148   74  152 1    
   149   75   76 2    
   150   75   77 1    
   151   77   78 1    
   152   77   79 1    
   153   77  153 1    
   154   78  154 1    
   155   78  155 1    
   156   78  156 1    
   157   79   80 am   BACKBONE|DICT|INTERRES
   158   79  157 1    
   159   80   81 2    
@<TRIPOS>SUBSTRUCTURE
     1 UNK         1 GROUP             0       ****    0 ROOT    
