@<TRIPOS>MOLECULE
3R207
157   159    1
SMALL
USER_CHARGES


@<TRIPOS>ATOM
      1 CA        -48.1447  -30.8848    8.3284 C.3       0 UNK        -0.1975 
      2 C         -48.2282  -30.5992    6.8389 C.2       0 UNK         0.4852 
      3 O         -47.2549  -30.8214    6.1180 O.2       0 UNK        -0.5216 
      4 N         -49.3849  -30.1088    6.3731 N.am      1 UNK        -0.4461 
      5 CA        -49.6449  -29.8083    4.9581 C.3       1 UNK         0.0864 
      6 C6        -51.1581  -29.7510    4.6329 C.3       14 UNK        -0.0898 
      7 S7        -52.0275  -31.2782    5.1306 S.3       14 UNK        -0.2598 
      8 C8        -53.3606  -30.6422    6.1981 C.3       14 UNK         0.0286 
      9 C9        -52.8422  -29.8583    7.3975 C.ar      14 UNK        -0.0844 
     10 C10       -53.0900  -28.4855    7.4963 C.ar      14 UNK        -0.0881 
     11 C11       -52.6564  -27.7631    8.6105 C.ar      14 UNK        -0.0643 
     12 C12       -51.9455  -28.4185    9.6203 C.ar      14 UNK        -0.0930 
     13 C13       -51.7132  -29.7958    9.5457 C.ar      14 UNK        -0.0827 
     14 C14       -52.1579  -30.5093    8.4284 C.ar      14 UNK        -0.1249 
     15 C15       -51.0201  -30.5228   10.6896 C.3       14 UNK         0.0141 
     16 S16       -52.2224  -31.2452   11.8511 S.3       14 UNK        -0.2313 
     17 C17       -52.9172  -29.7541   12.6351 C.3       14 UNK        -0.0915 
     18 CA        -54.2587  -29.3075   11.9929 C.3       13 UNK         0.0968 
     19 C         -55.4644  -30.1036   12.5656 C.2       13 UNK         0.5732 
     20 N         -55.8296  -31.2152   11.9422 N.am      13 UNK        -0.7310 
     21 O         -56.0456  -29.7404   13.5869 O.2       13 UNK        -0.5035 
     22 N         -54.4183  -27.8562   12.1300 N.am      13 UNK        -0.4233 
     23 C         -55.3832  -27.1110   11.5804 C.2       13 UNK         0.4989 
     24 O         -56.2123  -27.5396   10.7765 O.2       13 UNK        -0.4996 
     25 CA        -55.4287  -25.6366   12.0369 C.3       12 UNK         0.0216 
     26 CB        -56.5738  -24.8427   11.3813 C.3       12 UNK        -0.1964 
     27 N         -55.5518  -25.5469   13.4958 N.am      12 UNK        -0.4276 
     28 C         -54.5432  -25.7217   14.3568 C.2       12 UNK         0.5020 
     29 O         -53.3649  -25.8578   14.0033 O.2       12 UNK        -0.5489 
     30 CA        -54.9182  -25.8394   15.8376 C.3       11 UNK         0.0294 
     31 CB        -55.6340  -27.1797   16.1041 C.3       11 UNK        -0.2019 
     32 N         -53.6889  -25.7627   16.6162 N.am      11 UNK        -0.4493 
     33 C         -53.5806  -25.6058   17.9401 C.2       11 UNK         0.4932 
     34 O         -54.5491  -25.4858   18.6920 O.2       11 UNK        -0.5029 
     35 CA        -52.1545  -25.5394   18.5214 C.3       10 UNK         0.0280 
     36 CB        -52.0435  -26.1838   19.9201 C.3       10 UNK        -0.1976 
     37 N         -51.1234  -26.0370   17.5994 N.am      10 UNK        -0.4242 
     38 C         -50.8797  -27.3048   17.2257 C.2       10 UNK         0.5072 
     39 O         -51.4852  -28.2751   17.6822 O.2       10 UNK        -0.5224 
     40 CA        -49.8109  -27.5510   16.1344 C.3       9 UNK         0.0343 
     41 CB        -50.4111  -28.3518   14.9646 C.3       9 UNK        -0.2003 
     42 N         -49.2094  -26.3318   15.5875 N.am      9 UNK        -0.4272 
     43 C         -48.3466  -25.5222   16.2180 C.2       9 UNK         0.4988 
     44 O         -47.8523  -25.7694   17.3176 O.2       9 UNK        -0.5108 
     45 CA        -48.0470  -24.1735   15.5366 C.3       8 UNK         0.0248 
     46 CB        -46.8271  -24.2936   14.6123 C.3       8 UNK        -0.2001 
     47 N         -49.1915  -23.6512   14.7785 N.am      8 UNK        -0.4140 
     48 C         -50.3844  -23.3294   15.2995 C.2       8 UNK         0.5028 
     49 O         -50.6178  -23.3542   16.5073 O.2       8 UNK        -0.5428 
     50 CA        -51.5372  -22.9969   14.3337 C.3       7 UNK         0.0264 
     51 CB        -51.6303  -21.4830   14.0601 C.3       7 UNK        -0.1988 
     52 N         -51.5331  -23.7925   13.0952 N.am      7 UNK        -0.4454 
     53 C         -50.6698  -23.7196   12.0719 C.2       7 UNK         0.5027 
     54 O         -49.7411  -22.9115   12.0215 O.2       7 UNK        -0.5083 
     55 CA        -50.8361  -24.7492   10.9367 C.3       6 UNK         0.0844 
     56 C56       -51.5066  -24.0996    9.6999 C.3       14 UNK        -0.0967 
     57 S57       -51.6178  -25.2255    8.2655 S.3       14 UNK        -0.2604 
     58 C58       -53.0060  -26.2894    8.7489 C.3       14 UNK         0.0134 
     59 N         -49.5494  -25.3655   10.6054 N.am      6 UNK        -0.4116 
     60 C         -48.7947  -26.0855   11.4455 C.2       5 UNK         0.5034 
     61 O         -49.1134  -26.3409   12.6076 O.2       5 UNK        -0.5045 
     62 CA        -47.4621  -26.6105   10.8951 C.3       5 UNK         0.0224 
     63 CB        -47.6776  -27.9508   10.1775 C.3       5 UNK        -0.1978 
     64 N         -46.8445  -25.6568    9.9689 N.am      5 UNK        -0.4737 
     65 C         -45.9894  -24.6934   10.3435 C.2       4 UNK         0.5027 
     66 O         -45.5847  -24.5529   11.4968 O.2       4 UNK        -0.5211 
     67 CA        -45.4783  -23.7259    9.2586 C.3       4 UNK         0.0297 
     68 CB        -44.1167  -24.1961    8.7218 C.3       4 UNK        -0.1993 
     69 N         -46.4058  -23.5667    8.1381 N.am      4 UNK        -0.4486 
     70 C         -47.5920  -22.9474    8.2064 C.2       3 UNK         0.4961 
     71 O         -47.9885  -22.3393    9.1987 O.2       3 UNK        -0.5105 
     72 CA        -48.5036  -23.0274    6.9669 C.3       3 UNK         0.0299 
     73 CB        -48.4860  -21.6932    6.2032 C.3       3 UNK        -0.1972 
     74 N         -48.1945  -24.1183    6.0334 N.am      3 UNK        -0.4305 
     75 C         -48.1982  -25.4261    6.3248 C.2       2 UNK         0.5006 
     76 O         -48.3741  -25.8867    7.4567 O.2       2 UNK        -0.5106 
     77 CA        -47.8878  -26.3720    5.1640 C.3       2 UNK         0.0296 
     78 CB        -46.3696  -26.5918    5.0308 C.3       2 UNK        -0.2002 
     79 N         -48.5549  -27.6430    5.4142 N.am      2 UNK        -0.4032 
     80 C         -48.9370  -28.5222    4.4795 C.2       1 UNK         0.5000 
     81 O         -48.7519  -28.3542    3.2721 O.2       1 UNK        -0.5238 
     82 H82       -48.3858  -31.9287    8.5269 H         1 UNK         0.0889 
     83 H83       -48.8356  -30.2560    8.8851 H         1 UNK         0.0889 
     84 H84       -47.1386  -30.6889    8.6985 H         1 UNK         0.0889 
     85 H85       -50.1699  -29.9774    6.9979 H         1 UNK         0.3028 
     86 H86       -49.2206  -30.6248    4.3690 H         1 UNK         0.0864 
     87 H87       -51.3096  -29.6236    3.5593 H         1 UNK         0.0720 
     88 H88       -51.6201  -28.8827    5.1042 H         1 UNK         0.0720 
     89 H89       -53.9561  -31.4837    6.5547 H         1 UNK         0.0814 
     90 H90       -54.0330  -30.0304    5.5946 H         1 UNK         0.0814 
     91 H91       -53.6404  -27.9797    6.7147 H         1 UNK         0.1469 
     92 H92       -51.6113  -27.8623   10.4844 H         1 UNK         0.1381 
     93 H93       -51.9891  -31.5761    8.3687 H         1 UNK         0.1206 
     94 H94       -50.4037  -31.3310   10.2948 H         1 UNK         0.0813 
     95 H95       -50.3440  -29.8533   11.2236 H         1 UNK         0.0813 
     96 H96       -52.1711  -28.9627   12.5566 H         1 UNK         0.0638 
     97 H97       -53.0298  -29.9352   13.7059 H         1 UNK         0.0638 
     98 H98       -54.2205  -29.4994   10.9192 H         1 UNK         0.0568 
     99 H99       -55.3354  -31.5348   11.1237 H         1 UNK         0.3450 
    100 H100      -56.6004  -31.7522   12.3067 H         1 UNK         0.3450 
    101 H101      -53.8205  -27.4032   12.8119 H         1 UNK         0.2987 
    102 H102      -54.4895  -25.1710   11.7312 H         1 UNK         0.0766 
    103 H103      -56.4869  -24.8581   10.2940 H         1 UNK         0.0798 
    104 H104      -56.5592  -23.7973   11.6902 H         1 UNK         0.0798 
    105 H105      -57.5510  -25.2548   11.6365 H         1 UNK         0.0798 
    106 H106      -56.4916  -25.4772   13.8608 H         1 UNK         0.3198 
    107 H107      -55.5662  -25.0027   16.1064 H         1 UNK         0.0843 
    108 H108      -55.9258  -27.2802   17.1494 H         1 UNK         0.0831 
    109 H109      -54.9977  -28.0300   15.8536 H         1 UNK         0.0831 
    110 H110      -56.5447  -27.2726   15.5112 H         1 UNK         0.0831 
    111 H111      -52.8514  -25.8277   16.0506 H         1 UNK         0.3133 
    112 H112      -51.9409  -24.4769   18.6446 H         1 UNK         0.0566 
    113 H113      -51.0233  -26.1356   20.3004 H         1 UNK         0.0814 
    114 H114      -52.3527  -27.2292   19.9137 H         1 UNK         0.0814 
    115 H115      -52.6804  -25.6662   20.6384 H         1 UNK         0.0814 
    116 H116      -50.5876  -25.2989   17.1543 H         1 UNK         0.3091 
    117 H117      -49.0183  -28.1477   16.5900 H         1 UNK         0.0702 
    118 H118      -49.6558  -28.5882   14.2147 H         1 UNK         0.0785 
    119 H119      -51.2090  -27.7951   14.4715 H         1 UNK         0.0785 
    120 H120      -50.8329  -29.2988   15.3038 H         1 UNK         0.0785 
    121 H121      -49.4782  -26.0901   14.6392 H         1 UNK         0.2998 
    122 H122      -47.8142  -23.4504   16.3209 H         1 UNK         0.0697 
    123 H123      -46.9974  -25.0144   13.8123 H         1 UNK         0.0825 
    124 H124      -45.9483  -24.6258   15.1663 H         1 UNK         0.0825 
    125 H125      -46.5775  -23.3376   14.1517 H         1 UNK         0.0825 
    126 H126      -49.0861  -23.5655   13.7723 H         1 UNK         0.3029 
    127 H127      -52.4546  -23.2825   14.8511 H         1 UNK         0.0897 
    128 H128      -50.7253  -21.0902   13.5962 H         1 UNK         0.0792 
    129 H129      -51.7773  -20.9323   14.9901 H         1 UNK         0.0792 
    130 H130      -52.4719  -21.2487   13.4085 H         1 UNK         0.0792 
    131 H131      -52.2092  -24.5530   13.1035 H         1 UNK         0.3086 
    132 H132      -51.4848  -25.5488   11.2994 H         1 UNK         0.0583 
    133 H133      -52.5069  -23.7380    9.9463 H         1 UNK         0.1020 
    134 H134      -50.9410  -23.2204    9.3835 H         1 UNK         0.1020 
    135 H135      -53.2957  -26.0869    9.7786 H         1 UNK         0.0694 
    136 H136      -53.8744  -26.0396    8.1376 H         1 UNK         0.0694 
    137 H137      -49.2198  -25.2220    9.6610 H         1 UNK         0.2989 
    138 H138      -46.7968  -26.7838   11.7441 H         1 UNK         0.1055 
    139 H139      -48.3729  -27.8554    9.3425 H         1 UNK         0.0806 
    140 H140      -46.7390  -28.3470    9.7902 H         1 UNK         0.0806 
    141 H141      -48.0868  -28.6949   10.8619 H         1 UNK         0.0806 
    142 H142      -47.1573  -25.6945    9.0031 H         1 UNK         0.3061 
    143 H143      -45.3431  -22.7489    9.7278 H         1 UNK         0.0734 
    144 H144      -44.1892  -25.1662    8.2282 H         1 UNK         0.0832 
    145 H145      -43.7024  -23.4839    8.0080 H         1 UNK         0.0832 
    146 H146      -43.3932  -24.2972    9.5322 H         1 UNK         0.0832 
    147 H147      -46.1617  -24.0269    7.2739 H         1 UNK         0.3156 
    148 H148      -49.5189  -23.1945    7.3298 H         1 UNK         0.0589 
    149 H149      -49.2088  -21.6916    5.3871 H         1 UNK         0.0808 
    150 H150      -48.7448  -20.8624    6.8614 H         1 UNK         0.0808 
    151 H151      -47.5018  -21.4811    5.7835 H         1 UNK         0.0808 
    152 H152      -48.0096  -23.8432    5.0789 H         1 UNK         0.3098 
    153 H153      -48.2796  -25.9347    4.2429 H         1 UNK         0.0720 
    154 H154      -45.8486  -25.6513    4.8479 H         1 UNK         0.0791 
    155 H155      -46.1369  -27.2557    4.1980 H         1 UNK         0.0791 
    156 H156      -45.9469  -27.0321    5.9351 H         1 UNK         0.0791 
    157 H157      -48.7773  -27.8170    6.3863 H         1 UNK         0.3028 
@<TRIPOS>BOND
     1    1    2 1    
     2    1   82 1    
     3    1   83 1    
     4    1   84 1    
     5    2    3 2    
     6    2    4 am   BACKBONE|DICT|INTERRES
     7    4    5 1    
     8    4   85 1    
     9    5    6 1    
    10    5   80 1    
    11    5   86 1    
    12    6    7 1    
    13    6   87 1    
    14    6   88 1    
    15    7    8 1    
    16    8    9 1    
    17    8   89 1    
    18    8   90 1    
    19    9   10 ar   
    20    9   14 ar   
    21   10   11 ar   
    22   10   91 1    
    23   11   12 ar   
    24   11   58 1    
    25   12   13 ar   
    26   12   92 1    
    27   13   14 ar   
    28   13   15 1    
    29   14   93 1    
    30   15   16 1    
    31   15   94 1    
    32   15   95 1    
    33   16   17 1    
    34   17   18 1    
    35   17   96 1    
    36   17   97 1    
    37   18   19 1    
    38   18   22 1    
    39   18   98 1    
    40   19   20 am   BACKBONE|DICT|INTERRES
    41   19   21 2    
    42   20   99 1    
    43   20  100 1    
    44   22   23 am   BACKBONE|DICT|INTERRES
    45   22  101 1    
    46   23   24 2    
    47   23   25 1    
    48   25   26 1    
    49   25   27 1    
    50   25  102 1    
    51   26  103 1    
    52   26  104 1    
    53   26  105 1    
    54   27   28 am   BACKBONE|DICT|INTERRES
    55   27  106 1    
    56   28   29 2    
    57   28   30 1    
    58   30   31 1    
    59   30   32 1    
    60   30  107 1    
    61   31  108 1    
    62   31  109 1    
    63   31  110 1    
    64   32   33 am   BACKBONE|DICT|INTERRES
    65   32  111 1    
    66   33   34 2    
    67   33   35 1    
    68   35   36 1    
    69   35   37 1    
    70   35  112 1    
    71   36  113 1    
    72   36  114 1    
    73   36  115 1    
    74   37   38 am   BACKBONE|DICT|INTERRES
    75   37  116 1    
    76   38   39 2    
    77   38   40 1    
    78   40   41 1    
    79   40   42 1    
    80   40  117 1    
    81   41  118 1    
    82   41  119 1    
    83   41  120 1    
    84   42   43 am   BACKBONE|DICT|INTERRES
    85   42  121 1    
    86   43   44 2    
    87   43   45 1    
    88   45   46 1    
    89   45   47 1    
    90   45  122 1    
    91   46  123 1    
    92   46  124 1    
    93   46  125 1    
    94   47   48 am   BACKBONE|DICT|INTERRES
    95   47  126 1    
    96   48   49 2    
    97   48   50 1    
    98   50   51 1    
    99   50   52 1    
   100   50  127 1    
   101   51  128 1    
   102   51  129 1    
   103   51  130 1    
   104   52   53 am   BACKBONE|DICT|INTERRES
   105   52  131 1    
   106   53   54 2    
   107   53   55 1    
   108   55   56 1    
   109   55   59 1    
   110   55  132 1    
   111   56   57 1    
   112   56  133 1    
   113   56  134 1    
   114   57   58 1    
   115   58  135 1    
   116   58  136 1    
   117   59   60 am   BACKBONE|DICT|INTERRES
   118   59  137 1    
   119   60   61 2    
   120   60   62 1    
   121   62   63 1    
   122   62   64 1    
   123   62  138 1    
   124   63  139 1    
   125   63  140 1    
   126   63  141 1    
   127   64   65 am   BACKBONE|DICT|INTERRES
   128   64  142 1    
   129   65   66 2    
   130   65   67 1    
   131   67   68 1    
   132   67   69 1    
   133   67  143 1    
   134   68  144 1    
   135   68  145 1    
   136   68  146 1    
   137   69   70 am   BACKBONE|DICT|INTERRES
   138   69  147 1    
   139   70   71 2    
   140   70   72 1    
   141   72   73 1    
   142   72   74 1    
   143   72  148 1    
   144   73  149 1    
   145   73  150 1    
   146   73  151 1    
   147   74   75 am   BACKBONE|DICT|INTERRES
   148   74  152 1    
   149   75   76 2    
   150   75   77 1    
   151   77   78 1    
   152   77   79 1    
   153   77  153 1    
   154   78  154 1    
   155   78  155 1    
   156   78  156 1    
   157   79   80 am   BACKBONE|DICT|INTERRES
   158   79  157 1    
   159   80   81 2    
@<TRIPOS>SUBSTRUCTURE
     1 UNK         1 GROUP             0       ****    0 ROOT    
