@<TRIPOS>MOLECULE
3R207
157   159    1
SMALL
USER_CHARGES


@<TRIPOS>ATOM
      1 CA        -45.8635  -29.1813    8.7424 C.3       0 UNK        -0.1975 
      2 C         -46.6472  -28.4343    7.6747 C.2       0 UNK         0.4852 
      3 O         -46.7222  -27.2067    7.7230 O.2       0 UNK        -0.5216 
      4 N         -47.2192  -29.1675    6.7088 N.am      1 UNK        -0.4461 
      5 CA        -48.0518  -28.6671    5.6028 C.3       1 UNK         0.0864 
      6 C6        -49.4091  -28.0717    6.0695 C.3       14 UNK        -0.0898 
      7 S7        -50.3881  -29.2826    7.0219 S.3       14 UNK        -0.2598 
      8 C8        -50.5120  -28.4657    8.6428 C.3       14 UNK         0.0286 
      9 C9        -51.7571  -27.5960    8.7284 C.ar      14 UNK        -0.0844 
     10 C10       -51.7272  -26.2627    8.3105 C.ar      14 UNK        -0.0881 
     11 C11       -52.8698  -25.4587    8.4101 C.ar      14 UNK        -0.0643 
     12 C12       -54.0451  -26.0028    8.9408 C.ar      14 UNK        -0.0930 
     13 C13       -54.0913  -27.3403    9.3465 C.ar      14 UNK        -0.0827 
     14 C14       -52.9461  -28.1315    9.2311 C.ar      14 UNK        -0.1249 
     15 C15       -55.3867  -27.9523    9.8599 C.3       14 UNK         0.0141 
     16 S16       -55.4197  -28.0908   11.6752 S.3       14 UNK        -0.2313 
     17 C17       -56.9613  -29.0454   11.8614 C.3       14 UNK        -0.0915 
     18 CA        -57.4630  -29.1815   13.3244 C.3       13 UNK         0.0968 
     19 C         -58.8892  -29.8095   13.3268 C.2       13 UNK         0.5732 
     20 N         -59.0558  -31.0803   13.6752 N.am      13 UNK        -0.7310 
     21 O         -59.8597  -29.1285   13.0037 O.2       13 UNK        -0.5035 
     22 N         -56.4793  -29.8623   14.1874 N.am      13 UNK        -0.4233 
     23 C         -56.5859  -30.0019   15.5174 C.2       13 UNK         0.4989 
     24 O         -57.5196  -29.5476   16.1799 O.2       13 UNK        -0.4996 
     25 CA        -55.4669  -30.7640   16.2468 C.3       12 UNK         0.0216 
     26 CB        -54.6662  -31.7222   15.3408 C.3       12 UNK        -0.1964 
     27 N         -54.5655  -29.7721   16.8201 N.am      12 UNK        -0.4276 
     28 C         -54.5415  -29.3803   18.1017 C.2       12 UNK         0.5020 
     29 O         -55.1576  -29.9473   19.0056 O.2       12 UNK        -0.5489 
     30 CA        -53.7007  -28.1302   18.4391 C.3       11 UNK         0.0294 
     31 CB        -52.3165  -28.5391   18.9665 C.3       11 UNK        -0.2019 
     32 N         -53.5351  -27.2228   17.2987 N.am      11 UNK        -0.4493 
     33 C         -54.5411  -26.5632   16.7017 C.2       11 UNK         0.4932 
     34 O         -55.6773  -26.4973   17.1712 O.2       11 UNK        -0.5029 
     35 CA        -54.2655  -25.8922   15.3404 C.3       10 UNK         0.0280 
     36 CB        -54.2332  -24.3630   15.5002 C.3       10 UNK        -0.1976 
     37 N         -53.0444  -26.3322   14.6541 N.am      10 UNK        -0.4242 
     38 C         -52.7218  -27.5929   14.3263 C.2       10 UNK         0.5072 
     39 O         -53.4484  -28.5623   14.5399 O.2       10 UNK        -0.5224 
     40 CA        -51.3249  -27.8359   13.7315 C.3       9 UNK         0.0343 
     41 CB        -51.3838  -27.8302   12.2013 C.3       9 UNK        -0.2003 
     42 N         -50.3055  -26.8878   14.1875 N.am      9 UNK        -0.4272 
     43 C         -49.9176  -26.7311   15.4626 C.2       9 UNK         0.4988 
     44 O         -50.4038  -27.3495   16.4103 O.2       9 UNK        -0.5108 
     45 CA        -48.8238  -25.6864   15.7224 C.3       8 UNK         0.0248 
     46 CB        -47.4437  -26.2145   15.2962 C.3       8 UNK        -0.2001 
     47 N         -49.1206  -24.4401   15.0168 N.am      8 UNK        -0.4140 
     48 C         -49.9659  -23.5037   15.4704 C.2       8 UNK         0.5028 
     49 O         -50.5024  -23.5412   16.5780 O.2       8 UNK        -0.5428 
     50 CA        -50.2820  -22.3294   14.5264 C.3       7 UNK         0.0264 
     51 CB        -49.3115  -21.1631   14.7728 C.3       7 UNK        -0.1988 
     52 N         -50.2550  -22.6920   13.1060 N.am      7 UNK        -0.4454 
     53 C         -51.1031  -23.5531   12.5233 C.2       7 UNK         0.5027 
     54 O         -52.0025  -24.1358   13.1251 O.2       7 UNK        -0.5083 
     55 CA        -50.8839  -23.8457   11.0278 C.3       6 UNK         0.0844 
     56 C56       -51.6585  -22.8261   10.1571 C.3       14 UNK        -0.0967 
     57 S57       -51.3933  -23.0649    8.3667 S.3       14 UNK        -0.2604 
     58 C58       -52.8686  -24.0235    7.8903 C.3       14 UNK         0.0134 
     59 N         -49.4658  -23.9297   10.6690 N.am      6 UNK        -0.4116 
     60 C         -48.5694  -24.7900   11.1661 C.2       5 UNK         0.5034 
     61 O         -48.8162  -25.5633   12.0943 O.2       5 UNK        -0.5045 
     62 CA        -47.1665  -24.7770   10.5229 C.3       5 UNK         0.0224 
     63 CB        -46.3217  -25.9933   10.9439 C.3       5 UNK        -0.1978 
     64 N         -47.2021  -24.7149    9.0562 N.am      5 UNK        -0.4737 
     65 C         -47.4645  -23.6244    8.3221 C.2       4 UNK         0.5027 
     66 O         -47.7592  -22.5349    8.8171 O.2       4 UNK        -0.5211 
     67 CA        -47.3882  -23.7918    6.7930 C.3       4 UNK         0.0297 
     68 CB        -47.5014  -22.4575    6.0267 C.3       4 UNK        -0.1993 
     69 N         -46.1951  -24.5395    6.3847 N.am      4 UNK        -0.4486 
     70 C         -44.9101  -24.2190    6.6089 C.2       3 UNK         0.4961 
     71 O         -44.5397  -23.1528    7.1015 O.2       3 UNK        -0.5105 
     72 CA        -43.8459  -25.2752    6.2547 C.3       3 UNK         0.0299 
     73 CB        -43.2841  -25.9112    7.5377 C.3       3 UNK        -0.1972 
     74 N         -44.3569  -26.3372    5.3859 N.am      3 UNK        -0.4305 
     75 C         -44.5219  -26.2277    4.0603 C.2       2 UNK         0.5006 
     76 O         -44.1865  -25.2397    3.4062 O.2       2 UNK        -0.5106 
     77 CA        -45.1874  -27.4164    3.3418 C.3       2 UNK         0.0296 
     78 CB        -44.1204  -28.3634    2.7686 C.3       2 UNK        -0.2002 
     79 N         -46.1090  -28.1802    4.1920 N.am      2 UNK        -0.4032 
     80 C         -47.2588  -27.7039    4.6941 C.2       1 UNK         0.5000 
     81 O         -47.6591  -26.5540    4.5015 O.2       1 UNK        -0.5238 
     82 H82       -44.8997  -28.7013    8.9085 H         1 UNK         0.0889 
     83 H83       -45.6804  -30.2181    8.4615 H         1 UNK         0.0889 
     84 H84       -46.4142  -29.1753    9.6822 H         1 UNK         0.0889 
     85 H85       -47.1162  -30.1725    6.7397 H         1 UNK         0.3028 
     86 H86       -48.2807  -29.5335    4.9798 H         1 UNK         0.0864 
     87 H87       -50.0090  -27.7707    5.2088 H         1 UNK         0.0720 
     88 H88       -49.2505  -27.1661    6.6565 H         1 UNK         0.0720 
     89 H89       -49.6158  -27.8781    8.8496 H         1 UNK         0.0814 
     90 H90       -50.5473  -29.2351    9.4154 H         1 UNK         0.0814 
     91 H91       -50.8156  -25.8507    7.9013 H         1 UNK         0.1469 
     92 H92       -54.9353  -25.3929    9.0123 H         1 UNK         0.1381 
     93 H93       -52.9805  -29.1676    9.5395 H         1 UNK         0.1206 
     94 H94       -56.2429  -27.3616    9.5305 H         1 UNK         0.0813 
     95 H95       -55.5130  -28.9434    9.4212 H         1 UNK         0.0813 
     96 H96       -57.7202  -28.5539   11.2488 H         1 UNK         0.0638 
     97 H97       -56.8076  -30.0328   11.4220 H         1 UNK         0.0638 
     98 H98       -57.5791  -28.1735   13.7270 H         1 UNK         0.0568 
     99 H99       -59.9834  -31.4739   13.6746 H         1 UNK         0.3450 
    100 H100      -58.2663  -31.6478   13.9367 H         1 UNK         0.3450 
    101 H101      -55.6537  -30.2133   13.7254 H         1 UNK         0.2987 
    102 H102      -55.9361  -31.3580   17.0339 H         1 UNK         0.0766 
    103 H103      -55.3240  -32.4373   14.8449 H         1 UNK         0.0798 
    104 H104      -53.9516  -32.3001   15.9272 H         1 UNK         0.0798 
    105 H105      -54.1016  -31.1963   14.5701 H         1 UNK         0.0798 
    106 H106      -54.0550  -29.2183   16.1328 H         1 UNK         0.3198 
    107 H107      -54.2232  -27.5854   19.2283 H         1 UNK         0.0843 
    108 H108      -51.7457  -29.0879   18.2162 H         1 UNK         0.0831 
    109 H109      -52.4072  -29.1823   19.8428 H         1 UNK         0.0831 
    110 H110      -51.7300  -27.6688   19.2619 H         1 UNK         0.0831 
    111 H111      -52.6195  -27.2057   16.8637 H         1 UNK         0.3133 
    112 H112      -55.1034  -26.1496   14.6895 H         1 UNK         0.0566 
    113 H113      -54.2280  -23.8635   14.5317 H         1 UNK         0.0814 
    114 H114      -53.3519  -24.0352   16.0533 H         1 UNK         0.0814 
    115 H115      -55.1109  -24.0021   16.0382 H         1 UNK         0.0814 
    116 H116      -52.4201  -25.5922   14.3451 H         1 UNK         0.3091 
    117 H117      -51.0041  -28.8290   14.0526 H         1 UNK         0.0702 
    118 H118      -50.4028  -28.0047   11.7593 H         1 UNK         0.0785 
    119 H119      -51.7654  -26.8846   11.8165 H         1 UNK         0.0785 
    120 H120      -52.0487  -28.6177   11.8458 H         1 UNK         0.0785 
    121 H121      -49.8295  -26.3547   13.4634 H         1 UNK         0.2998 
    122 H122      -48.7907  -25.4906   16.7965 H         1 UNK         0.0697 
    123 H123      -47.4035  -26.4458   14.2315 H         1 UNK         0.0825 
    124 H124      -47.1955  -27.1293   15.8361 H         1 UNK         0.0825 
    125 H125      -46.6587  -25.4894   15.5110 H         1 UNK         0.0825 
    126 H126      -48.7605  -24.3535   14.0763 H         1 UNK         0.3029 
    127 H127      -51.2930  -21.9890   14.7619 H         1 UNK         0.0897 
    128 H128      -48.2829  -21.4335   14.5306 H         1 UNK         0.0792 
    129 H129      -49.3294  -20.8562   15.8197 H         1 UNK         0.0792 
    130 H130      -49.5797  -20.2900   14.1776 H         1 UNK         0.0792 
    131 H131      -49.5418  -22.2599   12.5360 H         1 UNK         0.3086 
    132 H132      -51.3076  -24.8319   10.8347 H         1 UNK         0.0583 
    133 H133      -52.7278  -22.8767   10.3729 H         1 UNK         0.1020 
    134 H134      -51.3520  -21.8063   10.3983 H         1 UNK         0.1020 
    135 H135      -53.7596  -23.4872    8.2208 H         1 UNK         0.0694 
    136 H136      -52.9189  -24.0568    6.8013 H         1 UNK         0.0694 
    137 H137      -49.1545  -23.3171    9.9208 H         1 UNK         0.2989 
    138 H138      -46.6624  -23.8800   10.8889 H         1 UNK         0.1055 
    139 H139      -46.8052  -26.9294   10.6638 H         1 UNK         0.0806 
    140 H140      -45.3348  -25.9733   10.4812 H         1 UNK         0.0806 
    141 H141      -46.1714  -26.0135   12.0239 H         1 UNK         0.0806 
    142 H142      -47.0012  -25.5854    8.5641 H         1 UNK         0.3061 
    143 H143      -48.2439  -24.4076    6.5113 H         1 UNK         0.0734 
    144 H144      -46.7047  -21.7640    6.2970 H         1 UNK         0.0832 
    145 H145      -47.4600  -22.6151    4.9491 H         1 UNK         0.0832 
    146 H146      -48.4491  -21.9641    6.2464 H         1 UNK         0.0832 
    147 H147      -46.3884  -25.4510    5.9868 H         1 UNK         0.3156 
    148 H148      -43.0287  -24.7634    5.7420 H         1 UNK         0.0589 
    149 H149      -42.5063  -26.6414    7.3142 H         1 UNK         0.0808 
    150 H150      -42.8392  -25.1539    8.1848 H         1 UNK         0.0808 
    151 H151      -44.0625  -26.4113    8.1148 H         1 UNK         0.0808 
    152 H152      -44.6668  -27.1834    5.8405 H         1 UNK         0.3098 
    153 H153      -45.7647  -27.0093    2.5088 H         1 UNK         0.0720 
    154 H154      -43.4360  -27.8266    2.1099 H         1 UNK         0.0791 
    155 H155      -44.5725  -29.1619    2.1798 H         1 UNK         0.0791 
    156 H156      -43.5212  -28.8227    3.5559 H         1 UNK         0.0791 
    157 H157      -45.8452  -29.1307    4.4095 H         1 UNK         0.3028 
@<TRIPOS>BOND
     1    1    2 1    
     2    1   82 1    
     3    1   83 1    
     4    1   84 1    
     5    2    3 2    
     6    2    4 am   BACKBONE|DICT|INTERRES
     7    4    5 1    
     8    4   85 1    
     9    5    6 1    
    10    5   80 1    
    11    5   86 1    
    12    6    7 1    
    13    6   87 1    
    14    6   88 1    
    15    7    8 1    
    16    8    9 1    
    17    8   89 1    
    18    8   90 1    
    19    9   10 ar   
    20    9   14 ar   
    21   10   11 ar   
    22   10   91 1    
    23   11   12 ar   
    24   11   58 1    
    25   12   13 ar   
    26   12   92 1    
    27   13   14 ar   
    28   13   15 1    
    29   14   93 1    
    30   15   16 1    
    31   15   94 1    
    32   15   95 1    
    33   16   17 1    
    34   17   18 1    
    35   17   96 1    
    36   17   97 1    
    37   18   19 1    
    38   18   22 1    
    39   18   98 1    
    40   19   20 am   BACKBONE|DICT|INTERRES
    41   19   21 2    
    42   20   99 1    
    43   20  100 1    
    44   22   23 am   BACKBONE|DICT|INTERRES
    45   22  101 1    
    46   23   24 2    
    47   23   25 1    
    48   25   26 1    
    49   25   27 1    
    50   25  102 1    
    51   26  103 1    
    52   26  104 1    
    53   26  105 1    
    54   27   28 am   BACKBONE|DICT|INTERRES
    55   27  106 1    
    56   28   29 2    
    57   28   30 1    
    58   30   31 1    
    59   30   32 1    
    60   30  107 1    
    61   31  108 1    
    62   31  109 1    
    63   31  110 1    
    64   32   33 am   BACKBONE|DICT|INTERRES
    65   32  111 1    
    66   33   34 2    
    67   33   35 1    
    68   35   36 1    
    69   35   37 1    
    70   35  112 1    
    71   36  113 1    
    72   36  114 1    
    73   36  115 1    
    74   37   38 am   BACKBONE|DICT|INTERRES
    75   37  116 1    
    76   38   39 2    
    77   38   40 1    
    78   40   41 1    
    79   40   42 1    
    80   40  117 1    
    81   41  118 1    
    82   41  119 1    
    83   41  120 1    
    84   42   43 am   BACKBONE|DICT|INTERRES
    85   42  121 1    
    86   43   44 2    
    87   43   45 1    
    88   45   46 1    
    89   45   47 1    
    90   45  122 1    
    91   46  123 1    
    92   46  124 1    
    93   46  125 1    
    94   47   48 am   BACKBONE|DICT|INTERRES
    95   47  126 1    
    96   48   49 2    
    97   48   50 1    
    98   50   51 1    
    99   50   52 1    
   100   50  127 1    
   101   51  128 1    
   102   51  129 1    
   103   51  130 1    
   104   52   53 am   BACKBONE|DICT|INTERRES
   105   52  131 1    
   106   53   54 2    
   107   53   55 1    
   108   55   56 1    
   109   55   59 1    
   110   55  132 1    
   111   56   57 1    
   112   56  133 1    
   113   56  134 1    
   114   57   58 1    
   115   58  135 1    
   116   58  136 1    
   117   59   60 am   BACKBONE|DICT|INTERRES
   118   59  137 1    
   119   60   61 2    
   120   60   62 1    
   121   62   63 1    
   122   62   64 1    
   123   62  138 1    
   124   63  139 1    
   125   63  140 1    
   126   63  141 1    
   127   64   65 am   BACKBONE|DICT|INTERRES
   128   64  142 1    
   129   65   66 2    
   130   65   67 1    
   131   67   68 1    
   132   67   69 1    
   133   67  143 1    
   134   68  144 1    
   135   68  145 1    
   136   68  146 1    
   137   69   70 am   BACKBONE|DICT|INTERRES
   138   69  147 1    
   139   70   71 2    
   140   70   72 1    
   141   72   73 1    
   142   72   74 1    
   143   72  148 1    
   144   73  149 1    
   145   73  150 1    
   146   73  151 1    
   147   74   75 am   BACKBONE|DICT|INTERRES
   148   74  152 1    
   149   75   76 2    
   150   75   77 1    
   151   77   78 1    
   152   77   79 1    
   153   77  153 1    
   154   78  154 1    
   155   78  155 1    
   156   78  156 1    
   157   79   80 am   BACKBONE|DICT|INTERRES
   158   79  157 1    
   159   80   81 2    
@<TRIPOS>SUBSTRUCTURE
     1 UNK         1 GROUP             0       ****    0 ROOT    
