@<TRIPOS>MOLECULE
3R207
157   159    1
SMALL
USER_CHARGES


@<TRIPOS>ATOM
      1 CA        -54.8465  -28.3251    5.2069 C.3       0 UNK        -0.1975 
      2 C         -53.3458  -28.4777    5.0062 C.2       0 UNK         0.4852 
      3 O         -52.8913  -28.6027    3.8681 O.2       0 UNK        -0.5216 
      4 N         -52.5819  -28.4724    6.1061 N.am      1 UNK        -0.4461 
      5 CA        -51.1200  -28.5550    6.1589 C.3       1 UNK         0.0864 
      6 C6        -50.5758  -29.9199    5.6466 C.3       14 UNK        -0.0898 
      7 S7        -48.9511  -30.3484    6.3658 S.3       14 UNK        -0.2598 
      8 C8        -49.3919  -31.6486    7.5672 C.3       14 UNK         0.0286 
      9 C9        -49.8839  -31.0666    8.8858 C.ar      14 UNK        -0.0844 
     10 C10       -49.0132  -30.9566    9.9749 C.ar      14 UNK        -0.0881 
     11 C11       -49.4565  -30.4270   11.1923 C.ar      14 UNK        -0.0643 
     12 C12       -50.7807  -29.9905   11.3065 C.ar      14 UNK        -0.0930 
     13 C13       -51.6671  -30.1125   10.2322 C.ar      14 UNK        -0.0827 
     14 C14       -51.2147  -30.6645    9.0298 C.ar      14 UNK        -0.1249 
     15 C15       -53.1232  -29.6931   10.3863 C.3       14 UNK         0.0141 
     16 S16       -53.5975  -28.4079    9.1890 S.3       14 UNK        -0.2313 
     17 C17       -55.3531  -28.1604    9.6125 C.3       14 UNK        -0.0915 
     18 CA        -55.6381  -26.6922   10.0591 C.3       13 UNK         0.0968 
     19 C         -56.4530  -25.8622    9.0259 C.2       13 UNK         0.5732 
     20 N         -57.3294  -24.9566    9.4468 N.am      13 UNK        -0.7310 
     21 O         -56.2809  -26.0231    7.8202 O.2       13 UNK        -0.5035 
     22 N         -56.1706  -26.6190   11.4281 N.am      13 UNK        -0.4233 
     23 C         -55.4240  -26.7625   12.5263 C.2       13 UNK         0.4989 
     24 O         -54.2202  -27.0214   12.5126 O.2       13 UNK        -0.4996 
     25 CA        -56.1389  -26.6212   13.8717 C.3       12 UNK         0.0216 
     26 CB        -56.7158  -27.9772   14.3227 C.3       12 UNK        -0.1964 
     27 N         -55.1632  -26.1331   14.8407 N.am      12 UNK        -0.4276 
     28 C         -55.4248  -25.6223   16.0485 C.2       12 UNK         0.5020 
     29 O         -56.5641  -25.4709   16.4951 O.2       12 UNK        -0.5489 
     30 CA        -54.2019  -25.2101   16.8913 C.3       11 UNK         0.0294 
     31 CB        -54.5164  -25.0536   18.3943 C.3       11 UNK        -0.2019 
     32 N         -53.0535  -26.0961   16.6731 N.am      11 UNK        -0.4493 
     33 C         -52.9469  -27.4007   16.9668 C.2       11 UNK         0.4932 
     34 O         -53.8051  -28.0517   17.5634 O.2       11 UNK        -0.5029 
     35 CA        -51.6648  -28.1119   16.4959 C.3       10 UNK         0.0280 
     36 CB        -51.9146  -28.8162   15.1516 C.3       10 UNK        -0.1976 
     37 N         -50.5165  -27.2109   16.3612 N.am      10 UNK        -0.4242 
     38 C         -49.8806  -26.6191   17.3826 C.2       10 UNK         0.5072 
     39 O         -50.1434  -26.8263   18.5681 O.2       10 UNK        -0.5224 
     40 CA        -48.7778  -25.6082   17.0220 C.3       9 UNK         0.0343 
     41 CB        -47.4550  -26.3289   16.7159 C.3       9 UNK        -0.2003 
     42 N         -49.1443  -24.7395   15.8988 N.am      9 UNK        -0.4272 
     43 C         -50.1248  -23.8237   15.9365 C.2       9 UNK         0.4988 
     44 O         -50.7922  -23.5756   16.9407 O.2       9 UNK        -0.5108 
     45 CA        -50.4381  -23.0716   14.6310 C.3       8 UNK         0.0248 
     46 CB        -49.4398  -21.9245   14.4099 C.3       8 UNK        -0.2001 
     47 N         -50.4625  -23.9463   13.4561 N.am      8 UNK        -0.4140 
     48 C         -51.3261  -24.9571   13.2785 C.2       8 UNK         0.5028 
     49 O         -52.2378  -25.2179   14.0641 O.2       8 UNK        -0.5428 
     50 CA        -51.0974  -25.8620   12.0533 C.3       7 UNK         0.0264 
     51 CB        -51.6916  -25.2378   10.7818 C.3       7 UNK        -0.1988 
     52 N         -49.6836  -26.1819   11.8371 N.am      7 UNK        -0.4454 
     53 C         -48.9148  -26.8334   12.7231 C.2       7 UNK         0.5027 
     54 O         -49.3246  -27.2595   13.8021 O.2       7 UNK        -0.5083 
     55 CA        -47.4241  -26.9760   12.3703 C.3       6 UNK         0.0844 
     56 C56       -47.1879  -28.1020   11.3315 C.3       14 UNK        -0.0967 
     57 S57       -46.8639  -29.7299   12.0830 S.3       14 UNK        -0.2604 
     58 C58       -48.5394  -30.3752   12.4115 C.3       14 UNK         0.0134 
     59 N         -46.8845  -25.6909   11.9230 N.am      6 UNK        -0.4116 
     60 C         -46.7064  -24.6194   12.7093 C.2       5 UNK         0.5034 
     61 O         -46.9223  -24.6138   13.9204 O.2       5 UNK        -0.5045 
     62 CA        -46.2481  -23.3206   12.0223 C.3       5 UNK         0.0224 
     63 CB        -44.7138  -23.2508   11.9721 C.3       5 UNK        -0.1978 
     64 N         -46.7890  -23.1673   10.6686 N.am      5 UNK        -0.4737 
     65 C         -48.0914  -23.0220   10.3856 C.2       4 UNK         0.5027 
     66 O         -48.9674  -22.9297   11.2435 O.2       4 UNK        -0.5211 
     67 CA        -48.4888  -23.0459    8.8992 C.3       4 UNK         0.0297 
     68 CB        -48.4760  -21.6244    8.3166 C.3       4 UNK        -0.1993 
     69 N         -47.6477  -23.9234    8.0756 N.am      4 UNK        -0.4486 
     70 C         -47.4848  -25.2383    8.2723 C.2       3 UNK         0.4961 
     71 O         -48.0304  -25.8673    9.1816 O.2       3 UNK        -0.5105 
     72 CA        -46.5556  -25.9648    7.2877 C.3       3 UNK         0.0299 
     73 CB        -45.8275  -27.1502    7.9447 C.3       3 UNK        -0.1972 
     74 N         -47.3279  -26.4567    6.1531 N.am      3 UNK        -0.4305 
     75 C         -47.7393  -25.7128    5.1172 C.2       2 UNK         0.5006 
     76 O         -47.4313  -24.5309    4.9567 O.2       2 UNK        -0.5106 
     77 CA        -48.6553  -26.4032    4.0911 C.3       2 UNK         0.0296 
     78 CB        -47.8303  -26.9614    2.9204 C.3       2 UNK        -0.2002 
     79 N         -49.4493  -27.4835    4.6836 N.am      2 UNK        -0.4032 
     80 C         -50.4750  -27.2998    5.5276 C.2       1 UNK         0.5000 
     81 O         -50.9033  -26.1853    5.8388 O.2       1 UNK        -0.5238 
     82 H82       -55.1074  -28.2080    6.2588 H         1 UNK         0.0889 
     83 H83       -55.3684  -29.2012    4.8231 H         1 UNK         0.0889 
     84 H84       -55.2096  -27.4484    4.6714 H         1 UNK         0.0889 
     85 H85       -53.0249  -28.3385    7.0073 H         1 UNK         0.3028 
     86 H86       -50.8828  -28.4847    7.2218 H         1 UNK         0.0864 
     87 H87       -51.2803  -30.7132    5.8987 H         1 UNK         0.0720 
     88 H88       -50.5119  -29.9459    4.5574 H         1 UNK         0.0720 
     89 H89       -48.5099  -32.2667    7.7420 H         1 UNK         0.0814 
     90 H90       -50.1422  -32.3183    7.1445 H         1 UNK         0.0814 
     91 H91       -47.9899  -31.2932    9.8798 H         1 UNK         0.1469 
     92 H92       -51.1303  -29.5800   12.2439 H         1 UNK         0.1381 
     93 H93       -51.9021  -30.7717    8.2025 H         1 UNK         0.1206 
     94 H94       -53.3142  -29.3228   11.3948 H         1 UNK         0.0813 
     95 H95       -53.7601  -30.5678   10.2482 H         1 UNK         0.0813 
     96 H96       -55.6320  -28.8671   10.3957 H         1 UNK         0.0638 
     97 H97       -55.9536  -28.4543    8.7501 H         1 UNK         0.0638 
     98 H98       -54.6927  -26.1480   10.0840 H         1 UNK         0.0568 
     99 H99       -57.8433  -24.4280    8.7594 H         1 UNK         0.3450 
    100 H100      -57.4433  -24.7439   10.4239 H         1 UNK         0.3450 
    101 H101      -57.1631  -26.4518   11.5089 H         1 UNK         0.2987 
    102 H102      -56.9410  -25.8867   13.7759 H         1 UNK         0.0766 
    103 H103      -57.2544  -27.8896   15.2663 H         1 UNK         0.0798 
    104 H104      -55.9293  -28.7214   14.4559 H         1 UNK         0.0798 
    105 H105      -57.4182  -28.3705   13.5867 H         1 UNK         0.0798 
    106 H106      -54.1996  -26.1646   14.5130 H         1 UNK         0.3198 
    107 H107      -53.8956  -24.2319   16.5170 H         1 UNK         0.0843 
    108 H108      -54.9041  -25.9761   18.8271 H         1 UNK         0.0831 
    109 H109      -55.2678  -24.2800   18.5561 H         1 UNK         0.0831 
    110 H110      -53.6279  -24.7648   18.9560 H         1 UNK         0.0831 
    111 H111      -52.3233  -25.6986   16.0910 H         1 UNK         0.3133 
    112 H112      -51.4134  -28.8710   17.2393 H         1 UNK         0.0566 
    113 H113      -51.0412  -29.3863   14.8350 H         1 UNK         0.0814 
    114 H114      -52.7501  -29.5137   15.2232 H         1 UNK         0.0814 
    115 H115      -52.1537  -28.1026   14.3616 H         1 UNK         0.0814 
    116 H116      -50.1760  -27.0444   15.4151 H         1 UNK         0.3091 
    117 H117      -48.6184  -24.9706   17.8942 H         1 UNK         0.0702 
    118 H118      -46.6468  -25.6171   16.5470 H         1 UNK         0.0785 
    119 H119      -47.5326  -26.9611   15.8309 H         1 UNK         0.0785 
    120 H120      -47.1562  -26.9672   17.5484 H         1 UNK         0.0785 
    121 H121      -48.6013  -24.8448   15.0479 H         1 UNK         0.2998 
    122 H122      -51.4346  -22.6366   14.7321 H         1 UNK         0.0697 
    123 H123      -48.4205  -22.2927   14.2946 H         1 UNK         0.0825 
    124 H124      -49.4439  -21.2358   15.2557 H         1 UNK         0.0825 
    125 H125      -49.6896  -21.3468   13.5197 H         1 UNK         0.0825 
    126 H126      -49.7907  -23.7445   12.7185 H         1 UNK         0.3029 
    127 H127      -51.6159  -26.8042   12.2407 H         1 UNK         0.0897 
    128 H128      -51.6202  -25.9211    9.9351 H         1 UNK         0.0792 
    129 H129      -51.1903  -24.3089   10.5108 H         1 UNK         0.0792 
    130 H130      -52.7479  -25.0083   10.9251 H         1 UNK         0.0792 
    131 H131      -49.2662  -25.8789   10.9639 H         1 UNK         0.3086 
    132 H132      -46.8911  -27.2335   13.2885 H         1 UNK         0.0583 
    133 H133      -47.9916  -28.1704   10.5952 H         1 UNK         0.1020 
    134 H134      -46.2931  -27.8767   10.7515 H         1 UNK         0.1020 
    135 H135      -48.4422  -31.3873   12.8059 H         1 UNK         0.0694 
    136 H136      -48.9900  -29.7878   13.2112 H         1 UNK         0.0694 
    137 H137      -46.7774  -25.5788   10.9240 H         1 UNK         0.2989 
    138 H138      -46.6101  -22.4851   12.6253 H         1 UNK         0.1055 
    139 H139      -44.2873  -23.3417   12.9722 H         1 UNK         0.0806 
    140 H140      -44.3729  -22.2995   11.5629 H         1 UNK         0.0806 
    141 H141      -44.2900  -24.0506   11.3634 H         1 UNK         0.0806 
    142 H142      -46.1358  -23.2224    9.9004 H         1 UNK         0.3061 
    143 H143      -49.5097  -23.4289    8.8420 H         1 UNK         0.0734 
    144 H144      -48.8491  -21.6113    7.2923 H         1 UNK         0.0832 
    145 H145      -49.1142  -20.9589    8.9000 H         1 UNK         0.0832 
    146 H146      -47.4730  -21.1957    8.3157 H         1 UNK         0.0832 
    147 H147      -47.2040  -23.5051    7.2685 H         1 UNK         0.3156 
    148 H148      -45.7984  -25.2614    6.9343 H         1 UNK         0.0589 
    149 H149      -46.5234  -27.9184    8.2851 H         1 UNK         0.0808 
    150 H150      -45.1311  -27.6192    7.2494 H         1 UNK         0.0808 
    151 H151      -45.2470  -26.8211    8.8073 H         1 UNK         0.0808 
    152 H152      -47.6520  -27.4107    6.2133 H         1 UNK         0.3098 
    153 H153      -49.3408  -25.6488    3.6989 H         1 UNK         0.0720 
    154 H154      -48.4726  -27.3939    2.1530 H         1 UNK         0.0791 
    155 H155      -47.1310  -27.7320    3.2478 H         1 UNK         0.0791 
    156 H156      -47.2462  -26.1722    2.4445 H         1 UNK         0.0791 
    157 H157      -49.1592  -28.4309    4.4836 H         1 UNK         0.3028 
@<TRIPOS>BOND
     1    1    2 1    
     2    1   82 1    
     3    1   83 1    
     4    1   84 1    
     5    2    3 2    
     6    2    4 am   BACKBONE|DICT|INTERRES
     7    4    5 1    
     8    4   85 1    
     9    5    6 1    
    10    5   80 1    
    11    5   86 1    
    12    6    7 1    
    13    6   87 1    
    14    6   88 1    
    15    7    8 1    
    16    8    9 1    
    17    8   89 1    
    18    8   90 1    
    19    9   10 ar   
    20    9   14 ar   
    21   10   11 ar   
    22   10   91 1    
    23   11   12 ar   
    24   11   58 1    
    25   12   13 ar   
    26   12   92 1    
    27   13   14 ar   
    28   13   15 1    
    29   14   93 1    
    30   15   16 1    
    31   15   94 1    
    32   15   95 1    
    33   16   17 1    
    34   17   18 1    
    35   17   96 1    
    36   17   97 1    
    37   18   19 1    
    38   18   22 1    
    39   18   98 1    
    40   19   20 am   BACKBONE|DICT|INTERRES
    41   19   21 2    
    42   20   99 1    
    43   20  100 1    
    44   22   23 am   BACKBONE|DICT|INTERRES
    45   22  101 1    
    46   23   24 2    
    47   23   25 1    
    48   25   26 1    
    49   25   27 1    
    50   25  102 1    
    51   26  103 1    
    52   26  104 1    
    53   26  105 1    
    54   27   28 am   BACKBONE|DICT|INTERRES
    55   27  106 1    
    56   28   29 2    
    57   28   30 1    
    58   30   31 1    
    59   30   32 1    
    60   30  107 1    
    61   31  108 1    
    62   31  109 1    
    63   31  110 1    
    64   32   33 am   BACKBONE|DICT|INTERRES
    65   32  111 1    
    66   33   34 2    
    67   33   35 1    
    68   35   36 1    
    69   35   37 1    
    70   35  112 1    
    71   36  113 1    
    72   36  114 1    
    73   36  115 1    
    74   37   38 am   BACKBONE|DICT|INTERRES
    75   37  116 1    
    76   38   39 2    
    77   38   40 1    
    78   40   41 1    
    79   40   42 1    
    80   40  117 1    
    81   41  118 1    
    82   41  119 1    
    83   41  120 1    
    84   42   43 am   BACKBONE|DICT|INTERRES
    85   42  121 1    
    86   43   44 2    
    87   43   45 1    
    88   45   46 1    
    89   45   47 1    
    90   45  122 1    
    91   46  123 1    
    92   46  124 1    
    93   46  125 1    
    94   47   48 am   BACKBONE|DICT|INTERRES
    95   47  126 1    
    96   48   49 2    
    97   48   50 1    
    98   50   51 1    
    99   50   52 1    
   100   50  127 1    
   101   51  128 1    
   102   51  129 1    
   103   51  130 1    
   104   52   53 am   BACKBONE|DICT|INTERRES
   105   52  131 1    
   106   53   54 2    
   107   53   55 1    
   108   55   56 1    
   109   55   59 1    
   110   55  132 1    
   111   56   57 1    
   112   56  133 1    
   113   56  134 1    
   114   57   58 1    
   115   58  135 1    
   116   58  136 1    
   117   59   60 am   BACKBONE|DICT|INTERRES
   118   59  137 1    
   119   60   61 2    
   120   60   62 1    
   121   62   63 1    
   122   62   64 1    
   123   62  138 1    
   124   63  139 1    
   125   63  140 1    
   126   63  141 1    
   127   64   65 am   BACKBONE|DICT|INTERRES
   128   64  142 1    
   129   65   66 2    
   130   65   67 1    
   131   67   68 1    
   132   67   69 1    
   133   67  143 1    
   134   68  144 1    
   135   68  145 1    
   136   68  146 1    
   137   69   70 am   BACKBONE|DICT|INTERRES
   138   69  147 1    
   139   70   71 2    
   140   70   72 1    
   141   72   73 1    
   142   72   74 1    
   143   72  148 1    
   144   73  149 1    
   145   73  150 1    
   146   73  151 1    
   147   74   75 am   BACKBONE|DICT|INTERRES
   148   74  152 1    
   149   75   76 2    
   150   75   77 1    
   151   77   78 1    
   152   77   79 1    
   153   77  153 1    
   154   78  154 1    
   155   78  155 1    
   156   78  156 1    
   157   79   80 am   BACKBONE|DICT|INTERRES
   158   79  157 1    
   159   80   81 2    
@<TRIPOS>SUBSTRUCTURE
     1 UNK         1 GROUP             0       ****    0 ROOT    
