@<TRIPOS>MOLECULE
3R207
157   159    1
SMALL
USER_CHARGES


@<TRIPOS>ATOM
      1 CA        -48.7487  -31.3728   10.8280 C.3       0 UNK        -0.1975 
      2 C         -48.6254  -30.7943    9.4266 C.2       0 UNK         0.4852 
      3 O         -48.4797  -31.5504    8.4659 O.2       0 UNK        -0.5216 
      4 N         -48.6836  -29.4606    9.3010 N.am      1 UNK        -0.4461 
      5 CA        -48.6329  -28.7348    8.0222 C.3       1 UNK         0.0864 
      6 C6        -49.0791  -27.2558    8.1561 C.3       14 UNK        -0.0898 
      7 S7        -50.5494  -26.9909    9.1962 S.3       14 UNK        -0.2598 
      8 C8        -51.8841  -26.9243    7.9653 C.3       14 UNK         0.0286 
      9 C9        -53.1615  -26.4469    8.6335 C.ar      14 UNK        -0.0844 
     10 C10       -53.5630  -25.1144    8.5151 C.ar      14 UNK        -0.0881 
     11 C11       -54.6640  -24.6410    9.2347 C.ar      14 UNK        -0.0643 
     12 C12       -55.3940  -25.5247   10.0347 C.ar      14 UNK        -0.0930 
     13 C13       -55.0175  -26.8667   10.1419 C.ar      14 UNK        -0.0827 
     14 C14       -53.9000  -27.3208    9.4348 C.ar      14 UNK        -0.1249 
     15 C15       -55.7693  -27.7832   11.0971 C.3       14 UNK         0.0141 
     16 S16       -56.3698  -29.3234   10.3312 S.3       14 UNK        -0.2313 
     17 C17       -55.0761  -30.5073   10.8377 C.3       14 UNK        -0.0915 
     18 CA        -55.3954  -31.2275   12.1765 C.3       13 UNK         0.0968 
     19 C         -54.3721  -32.3588   12.4559 C.2       13 UNK         0.5732 
     20 N         -54.5046  -33.4915   11.7796 N.am      13 UNK        -0.7310 
     21 O         -53.4498  -32.2194   13.2574 O.2       13 UNK        -0.5035 
     22 N         -55.4455  -30.2856   13.3056 N.am      13 UNK        -0.4233 
     23 C         -56.5319  -30.0259   14.0434 C.2       13 UNK         0.4989 
     24 O         -57.6372  -30.5340   13.8508 O.2       13 UNK        -0.4996 
     25 CA        -56.3708  -29.0201   15.1903 C.3       12 UNK         0.0216 
     26 CB        -55.7584  -29.7062   16.4231 C.3       12 UNK        -0.1964 
     27 N         -55.5266  -27.8891   14.8052 N.am      12 UNK        -0.4276 
     28 C         -55.9658  -26.6611   14.4901 C.2       12 UNK         0.5020 
     29 O         -57.1599  -26.3681   14.4113 O.2       12 UNK        -0.5489 
     30 CA        -54.8980  -25.5747   14.2098 C.3       11 UNK         0.0294 
     31 CB        -55.3674  -24.1591   14.6025 C.3       11 UNK        -0.2019 
     32 N         -53.5868  -25.8685   14.8018 N.am      11 UNK        -0.4493 
     33 C         -53.3094  -26.1224   16.0913 C.2       11 UNK         0.4932 
     34 O         -54.1054  -25.9276   17.0107 O.2       11 UNK        -0.5029 
     35 CA        -51.9372  -26.7581   16.4055 C.3       10 UNK         0.0280 
     36 CB        -52.0334  -27.7827   17.5553 C.3       10 UNK        -0.1976 
     37 N         -51.2593  -27.3698   15.2514 N.am      10 UNK        -0.4242 
     38 C         -51.7176  -28.3289   14.4261 C.2       10 UNK         0.5072 
     39 O         -52.8399  -28.8343   14.5239 O.2       10 UNK        -0.5224 
     40 CA        -50.7976  -28.7525   13.2643 C.3       9 UNK         0.0343 
     41 CB        -51.6097  -29.0762   12.0006 C.3       9 UNK        -0.2003 
     42 N         -49.8253  -27.7017   12.9514 N.am      9 UNK        -0.4272 
     43 C         -48.4971  -27.8041   13.1071 C.2       9 UNK         0.4988 
     44 O         -47.9198  -28.8497   13.4027 O.2       9 UNK        -0.5108 
     45 CA        -47.6623  -26.5196   12.9359 C.3       8 UNK         0.0248 
     46 CB        -47.0523  -26.4540   11.5283 C.3       8 UNK        -0.2001 
     47 N         -48.4166  -25.2897   13.2033 N.am      8 UNK        -0.4140 
     48 C         -48.9369  -24.9711   14.4002 C.2       8 UNK         0.5028 
     49 O         -48.7863  -25.6623   15.4076 O.2       8 UNK        -0.5428 
     50 CA        -49.8284  -23.7196   14.4983 C.3       7 UNK         0.0264 
     51 CB        -49.0269  -22.5362   15.0629 C.3       7 UNK        -0.1988 
     52 N         -50.4491  -23.3178   13.2353 N.am      7 UNK        -0.4454 
     53 C         -51.2646  -24.0681   12.4782 C.2       7 UNK         0.5027 
     54 O         -51.6318  -25.2038   12.7885 O.2       7 UNK        -0.5083 
     55 CA        -51.6955  -23.4587   11.1269 C.3       6 UNK         0.0844 
     56 C56       -53.0867  -22.7831   11.2557 C.3       14 UNK        -0.0967 
     57 S57       -53.6632  -22.0667    9.6727 S.3       14 UNK        -0.2604 
     58 C58       -55.0403  -23.1658    9.1930 C.3       14 UNK         0.0134 
     59 N         -50.6913  -22.5411   10.5631 N.am      6 UNK        -0.4116 
     60 C         -49.4267  -22.8543   10.2484 C.2       5 UNK         0.5034 
     61 O         -48.9158  -23.9578   10.4465 O.2       5 UNK        -0.5045 
     62 CA        -48.5629  -21.7266    9.6796 C.3       5 UNK         0.0224 
     63 CB        -47.5927  -21.1933   10.7504 C.3       5 UNK        -0.1978 
     64 N         -47.8186  -22.2379    8.5328 N.am      5 UNK        -0.4737 
     65 C         -47.3407  -21.4975    7.5276 C.2       4 UNK         0.5027 
     66 O         -47.4332  -20.2690    7.4932 O.2       4 UNK        -0.5211 
     67 CA        -46.6462  -22.2501    6.3718 C.3       4 UNK         0.0297 
     68 CB        -46.0734  -21.2978    5.3043 C.3       4 UNK        -0.1993 
     69 N         -45.5759  -23.1414    6.8316 N.am      4 UNK        -0.4486 
     70 C         -45.7632  -24.3489    7.3747 C.2       3 UNK         0.4961 
     71 O         -46.8763  -24.8322    7.5901 O.2       3 UNK        -0.5105 
     72 CA        -44.5056  -25.1338    7.7627 C.3       3 UNK         0.0299 
     73 CB        -43.9074  -24.6004    9.0761 C.3       3 UNK        -0.1972 
     74 N         -44.8752  -26.5355    7.9360 N.am      3 UNK        -0.4305 
     75 C         -44.1741  -27.5961    7.5195 C.2       2 UNK         0.5006 
     76 O         -43.0734  -27.5125    6.9723 O.2       2 UNK        -0.5106 
     77 CA        -44.7817  -28.9931    7.7602 C.3       2 UNK         0.0296 
     78 CB        -43.9723  -29.7538    8.8245 C.3       2 UNK        -0.2002 
     79 N         -46.1876  -28.9645    8.1749 N.am      2 UNK        -0.4032 
     80 C         -47.2378  -28.7879    7.3584 C.2       1 UNK         0.5000 
     81 O         -47.1384  -28.6493    6.1382 O.2       1 UNK        -0.5238 
     82 H82       -47.8908  -32.0068   11.0502 H         1 UNK         0.0889 
     83 H83       -49.6511  -31.9788   10.9057 H         1 UNK         0.0889 
     84 H84       -48.7976  -30.5948   11.5879 H         1 UNK         0.0889 
     85 H85       -48.8544  -28.8872   10.1145 H         1 UNK         0.3028 
     86 H86       -49.3295  -29.2304    7.3424 H         1 UNK         0.0864 
     87 H87       -48.2862  -26.6624    8.6076 H         1 UNK         0.0720 
     88 H88       -49.2465  -26.8162    7.1710 H         1 UNK         0.0720 
     89 H89       -52.0315  -27.9128    7.5277 H         1 UNK         0.0814 
     90 H90       -51.6052  -26.2543    7.1507 H         1 UNK         0.0814 
     91 H91       -52.9835  -24.4277    7.9133 H         1 UNK         0.1469 
     92 H92       -56.2391  -25.1580   10.6013 H         1 UNK         0.1381 
     93 H93       -53.5726  -28.3447    9.5335 H         1 UNK         0.1206 
     94 H94       -56.6327  -27.2686   11.5213 H         1 UNK         0.0813 
     95 H95       -55.1098  -28.0101   11.9332 H         1 UNK         0.0813 
     96 H96       -54.9816  -31.2339   10.0288 H         1 UNK         0.0638 
     97 H97       -54.1161  -29.9990   10.8940 H         1 UNK         0.0638 
     98 H98       -56.3649  -31.7171   12.0675 H         1 UNK         0.0568 
     99 H99       -55.2515  -33.6202   11.1149 H         1 UNK         0.3450 
    100 H100      -53.8447  -34.2359   11.9415 H         1 UNK         0.3450 
    101 H101      -54.5509  -29.9073   13.5945 H         1 UNK         0.2987 
    102 H102      -57.3663  -28.6646   15.4649 H         1 UNK         0.0766 
    103 H103      -56.3755  -30.5437   16.7513 H         1 UNK         0.0798 
    104 H104      -55.6793  -29.0130   17.2609 H         1 UNK         0.0798 
    105 H105      -54.7599  -30.0955   16.2183 H         1 UNK         0.0798 
    106 H106      -54.5227  -28.0609   14.8040 H         1 UNK         0.3198 
    107 H107      -54.7430  -25.5809   13.1299 H         1 UNK         0.0843 
    108 H108      -55.6027  -24.0929   15.6651 H         1 UNK         0.0831 
    109 H109      -56.2658  -23.8772   14.0523 H         1 UNK         0.0831 
    110 H110      -54.6051  -23.4127   14.3796 H         1 UNK         0.0831 
    111 H111      -52.8325  -25.9787   14.1289 H         1 UNK         0.3133 
    112 H112      -51.2951  -25.9423   16.7393 H         1 UNK         0.0566 
    113 H113      -51.0586  -28.2115   17.7870 H         1 UNK         0.0814 
    114 H114      -52.7103  -28.6017   17.3091 H         1 UNK         0.0814 
    115 H115      -52.4042  -27.3178   18.4697 H         1 UNK         0.0814 
    116 H116      -50.3235  -27.0148   15.0850 H         1 UNK         0.3091 
    117 H117      -50.2897  -29.6638   13.5854 H         1 UNK         0.0702 
    118 H118      -50.9665  -29.3195   11.1570 H         1 UNK         0.0785 
    119 H119      -52.2448  -28.2393   11.7071 H         1 UNK         0.0785 
    120 H120      -52.2490  -29.9407   12.1732 H         1 UNK         0.0785 
    121 H121      -50.2222  -26.8009   12.7032 H         1 UNK         0.2998 
    122 H122      -46.8438  -26.5672   13.6572 H         1 UNK         0.0697 
    123 H123      -47.8292  -26.3846   10.7696 H         1 UNK         0.0825 
    124 H124      -46.4549  -27.3410   11.3140 H         1 UNK         0.0825 
    125 H125      -46.4014  -25.5870   11.4174 H         1 UNK         0.0825 
    126 H126      -48.6069  -24.6946   12.4034 H         1 UNK         0.3029 
    127 H127      -50.6352  -23.9526   15.1962 H         1 UNK         0.0897 
    128 H128      -48.2219  -22.2357   14.3907 H         1 UNK         0.0792 
    129 H129      -48.5720  -22.7942   16.0206 H         1 UNK         0.0792 
    130 H130      -49.6646  -21.6688   15.2346 H         1 UNK         0.0792 
    131 H131      -50.2073  -22.3999   12.8923 H         1 UNK         0.3086 
    132 H132      -51.7807  -24.2949   10.4320 H         1 UNK         0.0583 
    133 H133      -53.8267  -23.4955   11.6255 H         1 UNK         0.1020 
    134 H134      -53.0554  -21.9793   11.9939 H         1 UNK         0.1020 
    135 H135      -55.8886  -22.9627    9.8485 H         1 UNK         0.0694 
    136 H136      -55.3629  -22.9093    8.1831 H         1 UNK         0.0694 
    137 H137      -51.0277  -21.6113   10.3577 H         1 UNK         0.2989 
    138 H138      -49.2137  -20.9145    9.3470 H         1 UNK         0.1055 
    139 H139      -46.9927  -20.3675   10.3679 H         1 UNK         0.0806 
    140 H140      -46.9091  -21.9705   11.0953 H         1 UNK         0.0806 
    141 H141      -48.1338  -20.8221   11.6216 H         1 UNK         0.0806 
    142 H142      -47.7184  -23.2503    8.4862 H         1 UNK         0.3061 
    143 H143      -47.4157  -22.8555    5.8874 H         1 UNK         0.0734 
    144 H144      -45.2999  -20.6479    5.7155 H         1 UNK         0.0832 
    145 H145      -45.6409  -21.8498    4.4696 H         1 UNK         0.0832 
    146 H146      -46.8537  -20.6559    4.8930 H         1 UNK         0.0832 
    147 H147      -44.6315  -22.7970    6.7309 H         1 UNK         0.3156 
    148 H148      -43.7760  -25.0312    6.9565 H         1 UNK         0.0589 
    149 H149      -43.0256  -25.1707    9.3688 H         1 UNK         0.0808 
    150 H150      -44.6252  -24.6510    9.8957 H         1 UNK         0.0808 
    151 H151      -43.5996  -23.5590    8.9760 H         1 UNK         0.0808 
    152 H152      -45.8119  -26.6739    8.2894 H         1 UNK         0.3098 
    153 H153      -44.7094  -29.5435    6.8197 H         1 UNK         0.0720 
    154 H154      -42.9243  -29.8382    8.5330 H         1 UNK         0.0791 
    155 H155      -44.3499  -30.7674    8.9611 H         1 UNK         0.0791 
    156 H156      -44.0014  -29.2498    9.7915 H         1 UNK         0.0791 
    157 H157      -46.3716  -29.0899    9.1594 H         1 UNK         0.3028 
@<TRIPOS>BOND
     1    1    2 1    
     2    1   82 1    
     3    1   83 1    
     4    1   84 1    
     5    2    3 2    
     6    2    4 am   BACKBONE|DICT|INTERRES
     7    4    5 1    
     8    4   85 1    
     9    5    6 1    
    10    5   80 1    
    11    5   86 1    
    12    6    7 1    
    13    6   87 1    
    14    6   88 1    
    15    7    8 1    
    16    8    9 1    
    17    8   89 1    
    18    8   90 1    
    19    9   10 ar   
    20    9   14 ar   
    21   10   11 ar   
    22   10   91 1    
    23   11   12 ar   
    24   11   58 1    
    25   12   13 ar   
    26   12   92 1    
    27   13   14 ar   
    28   13   15 1    
    29   14   93 1    
    30   15   16 1    
    31   15   94 1    
    32   15   95 1    
    33   16   17 1    
    34   17   18 1    
    35   17   96 1    
    36   17   97 1    
    37   18   19 1    
    38   18   22 1    
    39   18   98 1    
    40   19   20 am   BACKBONE|DICT|INTERRES
    41   19   21 2    
    42   20   99 1    
    43   20  100 1    
    44   22   23 am   BACKBONE|DICT|INTERRES
    45   22  101 1    
    46   23   24 2    
    47   23   25 1    
    48   25   26 1    
    49   25   27 1    
    50   25  102 1    
    51   26  103 1    
    52   26  104 1    
    53   26  105 1    
    54   27   28 am   BACKBONE|DICT|INTERRES
    55   27  106 1    
    56   28   29 2    
    57   28   30 1    
    58   30   31 1    
    59   30   32 1    
    60   30  107 1    
    61   31  108 1    
    62   31  109 1    
    63   31  110 1    
    64   32   33 am   BACKBONE|DICT|INTERRES
    65   32  111 1    
    66   33   34 2    
    67   33   35 1    
    68   35   36 1    
    69   35   37 1    
    70   35  112 1    
    71   36  113 1    
    72   36  114 1    
    73   36  115 1    
    74   37   38 am   BACKBONE|DICT|INTERRES
    75   37  116 1    
    76   38   39 2    
    77   38   40 1    
    78   40   41 1    
    79   40   42 1    
    80   40  117 1    
    81   41  118 1    
    82   41  119 1    
    83   41  120 1    
    84   42   43 am   BACKBONE|DICT|INTERRES
    85   42  121 1    
    86   43   44 2    
    87   43   45 1    
    88   45   46 1    
    89   45   47 1    
    90   45  122 1    
    91   46  123 1    
    92   46  124 1    
    93   46  125 1    
    94   47   48 am   BACKBONE|DICT|INTERRES
    95   47  126 1    
    96   48   49 2    
    97   48   50 1    
    98   50   51 1    
    99   50   52 1    
   100   50  127 1    
   101   51  128 1    
   102   51  129 1    
   103   51  130 1    
   104   52   53 am   BACKBONE|DICT|INTERRES
   105   52  131 1    
   106   53   54 2    
   107   53   55 1    
   108   55   56 1    
   109   55   59 1    
   110   55  132 1    
   111   56   57 1    
   112   56  133 1    
   113   56  134 1    
   114   57   58 1    
   115   58  135 1    
   116   58  136 1    
   117   59   60 am   BACKBONE|DICT|INTERRES
   118   59  137 1    
   119   60   61 2    
   120   60   62 1    
   121   62   63 1    
   122   62   64 1    
   123   62  138 1    
   124   63  139 1    
   125   63  140 1    
   126   63  141 1    
   127   64   65 am   BACKBONE|DICT|INTERRES
   128   64  142 1    
   129   65   66 2    
   130   65   67 1    
   131   67   68 1    
   132   67   69 1    
   133   67  143 1    
   134   68  144 1    
   135   68  145 1    
   136   68  146 1    
   137   69   70 am   BACKBONE|DICT|INTERRES
   138   69  147 1    
   139   70   71 2    
   140   70   72 1    
   141   72   73 1    
   142   72   74 1    
   143   72  148 1    
   144   73  149 1    
   145   73  150 1    
   146   73  151 1    
   147   74   75 am   BACKBONE|DICT|INTERRES
   148   74  152 1    
   149   75   76 2    
   150   75   77 1    
   151   77   78 1    
   152   77   79 1    
   153   77  153 1    
   154   78  154 1    
   155   78  155 1    
   156   78  156 1    
   157   79   80 am   BACKBONE|DICT|INTERRES
   158   79  157 1    
   159   80   81 2    
@<TRIPOS>SUBSTRUCTURE
     1 UNK         1 GROUP             0       ****    0 ROOT    
