@<TRIPOS>MOLECULE
3R207
157   159    1
SMALL
USER_CHARGES


@<TRIPOS>ATOM
      1 CA        -47.2828  -31.5194    4.9204 C.3       0 UNK        -0.1975 
      2 C         -47.8565  -30.1719    5.3317 C.2       0 UNK         0.4852 
      3 O         -47.5989  -29.7159    6.4463 O.2       0 UNK        -0.5216 
      4 N         -48.6106  -29.5247    4.4308 N.am      1 UNK        -0.4461 
      5 CA        -49.3296  -28.2452    4.5824 C.3       1 UNK         0.0864 
      6 C6        -50.3868  -28.2457    5.7185 C.3       14 UNK        -0.0898 
      7 S7        -51.6585  -29.5301    5.4665 S.3       14 UNK        -0.2598 
      8 C8        -53.1751  -28.6573    5.9766 C.3       14 UNK         0.0286 
      9 C9        -53.1608  -28.2994    7.4572 C.ar      14 UNK        -0.0844 
     10 C10       -53.2363  -26.9626    7.8652 C.ar      14 UNK        -0.0881 
     11 C11       -53.2219  -26.6329    9.2254 C.ar      14 UNK        -0.0643 
     12 C12       -53.1285  -27.6549   10.1738 C.ar      14 UNK        -0.0930 
     13 C13       -53.0691  -28.9930    9.7807 C.ar      14 UNK        -0.0827 
     14 C14       -53.0902  -29.3106    8.4211 C.ar      14 UNK        -0.1249 
     15 C15       -52.9880  -30.0860   10.8328 C.3       14 UNK         0.0141 
     16 S16       -54.5903  -30.2990   11.6653 S.3       14 UNK        -0.2313 
     17 C17       -54.1068  -31.3491   13.0744 C.3       14 UNK        -0.0915 
     18 CA        -55.1523  -31.3286   14.2209 C.3       13 UNK         0.0968 
     19 C         -54.7423  -32.3081   15.3594 C.2       13 UNK         0.5732 
     20 N         -54.4477  -31.8419   16.5675 N.am      13 UNK        -0.7310 
     21 O         -54.6974  -33.5166   15.1418 O.2       13 UNK        -0.5035 
     22 N         -55.4559  -29.9573   14.6665 N.am      13 UNK        -0.4233 
     23 C         -56.5599  -29.5988   15.3350 C.2       13 UNK         0.4989 
     24 O         -57.4498  -30.3855   15.6608 O.2       13 UNK        -0.4996 
     25 CA        -56.7057  -28.1149   15.7070 C.3       12 UNK         0.0216 
     26 CB        -56.2591  -27.8790   17.1594 C.3       12 UNK        -0.1964 
     27 N         -55.9467  -27.2301   14.8185 N.am      12 UNK        -0.4276 
     28 C         -56.4082  -26.7448   13.6551 C.2       12 UNK         0.5020 
     29 O         -57.5177  -27.0327   13.2023 O.2       12 UNK        -0.5489 
     30 CA        -55.4964  -25.7873   12.8503 C.3       11 UNK         0.0294 
     31 CB        -56.2960  -24.6649   12.1558 C.3       11 UNK        -0.2019 
     32 N         -54.3743  -25.2263   13.6168 N.am      11 UNK        -0.4493 
     33 C         -54.4346  -24.4699   14.7245 C.2       11 UNK         0.4932 
     34 O         -55.4799  -24.0098   15.1856 O.2       11 UNK        -0.5029 
     35 CA        -53.1031  -24.2351   15.4697 C.3       10 UNK         0.0280 
     36 CB        -53.3084  -24.0454   16.9868 C.3       10 UNK        -0.1976 
     37 N         -52.0897  -25.2724   15.2268 N.am      10 UNK        -0.4242 
     38 C         -52.1984  -26.5971   15.4205 C.2       10 UNK         0.5072 
     39 O         -53.2254  -27.1464   15.8220 O.2       10 UNK        -0.5224 
     40 CA        -50.9932  -27.4763   15.0412 C.3       9 UNK         0.0343 
     41 CB        -51.3035  -28.2641   13.7597 C.3       9 UNK        -0.2003 
     42 N         -49.7531  -26.7229   14.8447 N.am      9 UNK        -0.4272 
     43 C         -49.0158  -26.1993   15.8335 C.2       9 UNK         0.4988 
     44 O         -49.2589  -26.3600   17.0299 O.2       9 UNK        -0.5108 
     45 CA        -47.8235  -25.3215   15.4172 C.3       8 UNK         0.0248 
     46 CB        -46.5975  -26.1924   15.1003 C.3       8 UNK        -0.2001 
     47 N         -48.1201  -24.4393   14.2816 N.am      8 UNK        -0.4140 
     48 C         -49.0447  -23.4662   14.2970 C.2       8 UNK         0.5028 
     49 O         -49.7398  -23.2000   15.2771 O.2       8 UNK        -0.5428 
     50 CA        -49.2625  -22.6721   12.9986 C.3       7 UNK         0.0264 
     51 CB        -48.1540  -21.6246   12.8084 C.3       7 UNK        -0.1988 
     52 N         -49.3572  -23.5217   11.8096 N.am      7 UNK        -0.4454 
     53 C         -50.3178  -24.4355   11.5983 C.2       7 UNK         0.5027 
     54 O         -51.2478  -24.6420   12.3806 O.2       7 UNK        -0.5083 
     55 CA        -50.1776  -25.3208   10.3405 C.3       6 UNK         0.0844 
     56 C56       -50.5745  -24.5956    9.0285 C.3       14 UNK        -0.0967 
     57 S57       -52.2906  -23.9949    8.8253 S.3       14 UNK        -0.2604 
     58 C58       -53.3586  -25.1890    9.6976 C.3       14 UNK         0.0134 
     59 N         -48.8266  -25.8697   10.2198 N.am      6 UNK        -0.4116 
     60 C         -48.2065  -26.6425   11.1211 C.2       5 UNK         0.5034 
     61 O         -48.7191  -27.0390   12.1668 O.2       5 UNK        -0.5045 
     62 CA        -46.7383  -26.9794   10.8244 C.3       5 UNK         0.0224 
     63 CB        -46.6321  -28.1117    9.7896 C.3       5 UNK        -0.1978 
     64 N         -45.9914  -25.8053   10.3625 N.am      5 UNK        -0.4737 
     65 C         -45.7148  -24.7394   11.1278 C.2       4 UNK         0.5027 
     66 O         -46.0333  -24.6462   12.3117 O.2       4 UNK        -0.5211 
     67 CA        -44.9964  -23.5628   10.4484 C.3       4 UNK         0.0297 
     68 CB        -43.4852  -23.8280   10.3597 C.3       4 UNK        -0.1993 
     69 N         -45.5267  -23.2699    9.1153 N.am      4 UNK        -0.4486 
     70 C         -46.7704  -22.8311    8.8736 C.2       3 UNK         0.4961 
     71 O         -47.6018  -22.6003    9.7501 O.2       3 UNK        -0.5105 
     72 CA        -47.1714  -22.6736    7.3980 C.3       3 UNK         0.0299 
     73 CB        -46.6961  -21.3192    6.8490 C.3       3 UNK        -0.1972 
     74 N         -46.6775  -23.7580    6.5427 N.am      3 UNK        -0.4305 
     75 C         -46.9817  -25.0527    6.7052 C.2       2 UNK         0.5006 
     76 O         -47.6776  -25.4869    7.6266 O.2       2 UNK        -0.5106 
     77 CA        -46.3617  -26.0334    5.7005 C.3       2 UNK         0.0296 
     78 CB        -45.0558  -26.6207    6.2602 C.3       2 UNK        -0.2002 
     79 N         -47.2882  -27.1237    5.4047 N.am      2 UNK        -0.4032 
     80 C         -48.4122  -27.0070    4.6879 C.2       1 UNK         0.5000 
     81 O         -48.7364  -25.9718    4.1017 O.2       1 UNK        -0.5238 
     82 H82       -47.5800  -31.7992    3.9099 H         1 UNK         0.0889 
     83 H83       -47.6282  -32.2958    5.6025 H         1 UNK         0.0889 
     84 H84       -46.1942  -31.4911    4.9591 H         1 UNK         0.0889 
     85 H85       -48.7427  -29.9607    3.5286 H         1 UNK         0.3028 
     86 H86       -49.8724  -28.1190    3.6439 H         1 UNK         0.0864 
     87 H87       -49.9219  -28.4005    6.6937 H         1 UNK         0.0720 
     88 H88       -50.8802  -27.2731    5.7729 H         1 UNK         0.0720 
     89 H89       -54.0347  -29.2984    5.7766 H         1 UNK         0.0814 
     90 H90       -53.3048  -27.7688    5.3566 H         1 UNK         0.0814 
     91 H91       -53.3125  -26.1763    7.1268 H         1 UNK         0.1469 
     92 H92       -53.1185  -27.4150   11.2269 H         1 UNK         0.1381 
     93 H93       -53.0440  -30.3449    8.1083 H         1 UNK         0.1206 
     94 H94       -52.2173  -29.8279   11.5588 H         1 UNK         0.0813 
     95 H95       -52.6862  -31.0349   10.3867 H         1 UNK         0.0813 
     96 H96       -53.1342  -31.0247   13.4473 H         1 UNK         0.0638 
     97 H97       -53.9685  -32.3645   12.6981 H         1 UNK         0.0638 
     98 H98       -56.0780  -31.7368   13.8104 H         1 UNK         0.0568 
     99 H99       -54.1886  -32.4885   17.2955 H         1 UNK         0.3450 
    100 H100      -54.4813  -30.8537   16.7567 H         1 UNK         0.3450 
    101 H101      -54.7729  -29.2505   14.4423 H         1 UNK         0.2987 
    102 H102      -57.7660  -27.8616   15.6394 H         1 UNK         0.0766 
    103 H103      -56.3826  -26.8346   17.4468 H         1 UNK         0.0798 
    104 H104      -55.2130  -28.1459   17.3126 H         1 UNK         0.0798 
    105 H105      -56.8523  -28.4780   17.8518 H         1 UNK         0.0798 
    106 H106      -55.0106  -26.9772   15.1280 H         1 UNK         0.3198 
    107 H107      -55.0534  -26.4019   12.0674 H         1 UNK         0.0843 
    108 H108      -55.6417  -23.9933   11.6005 H         1 UNK         0.0831 
    109 H109      -56.8588  -24.0667   12.8728 H         1 UNK         0.0831 
    110 H110      -57.0134  -25.0774   11.4452 H         1 UNK         0.0831 
    111 H111      -53.4486  -25.5049   13.3177 H         1 UNK         0.3133 
    112 H112      -52.6889  -23.3091   15.0684 H         1 UNK         0.0566 
    113 H113      -52.3602  -23.8646   17.4935 H         1 UNK         0.0814 
    114 H114      -53.9523  -23.1898   17.1940 H         1 UNK         0.0814 
    115 H115      -53.7717  -24.9211   17.4430 H         1 UNK         0.0814 
    116 H116      -51.2144  -24.9271   14.8517 H         1 UNK         0.3091 
    117 H117      -50.8430  -28.1892   15.8546 H         1 UNK         0.0702 
    118 H118      -52.2321  -28.8263   13.8592 H         1 UNK         0.0785 
    119 H119      -50.5121  -28.9792   13.5341 H         1 UNK         0.0785 
    120 H120      -51.4077  -27.6022   12.8995 H         1 UNK         0.0785 
    121 H121      -49.4401  -26.6054   13.8835 H         1 UNK         0.2998 
    122 H122      -47.5736  -24.6842   16.2679 H         1 UNK         0.0697 
    123 H123      -46.7658  -26.8229   14.2267 H         1 UNK         0.0825 
    124 H124      -46.3567  -26.8496   15.9370 H         1 UNK         0.0825 
    125 H125      -45.7165  -25.5805   14.9061 H         1 UNK         0.0825 
    126 H126      -47.5460  -24.5620   13.4499 H         1 UNK         0.3029 
    127 H127      -50.2129  -22.1427   13.0959 H         1 UNK         0.0897 
    128 H128      -48.3565  -20.9866   11.9479 H         1 UNK         0.0792 
    129 H129      -48.0746  -20.9755   13.6815 H         1 UNK         0.0792 
    130 H130      -47.1796  -22.0899   12.6560 H         1 UNK         0.0792 
    131 H131      -48.6453  -23.3785   11.0957 H         1 UNK         0.3086 
    132 H132      -50.8309  -26.1805   10.4783 H         1 UNK         0.0583 
    133 H133      -49.9128  -23.7450    8.8606 H         1 UNK         0.1020 
    134 H134      -50.3912  -25.2687    8.1887 H         1 UNK         0.1020 
    135 H135      -53.1809  -25.1081   10.7687 H         1 UNK         0.0694 
    136 H136      -54.3949  -24.8845    9.5472 H         1 UNK         0.0694 
    137 H137      -48.3218  -25.6331    9.3683 H         1 UNK         0.2989 
    138 H138      -46.2836  -27.3240   11.7559 H         1 UNK         0.1055 
    139 H139      -47.1497  -29.0061   10.1393 H         1 UNK         0.0806 
    140 H140      -45.5938  -28.3903    9.6095 H         1 UNK         0.0806 
    141 H141      -47.0772  -27.8373    8.8324 H         1 UNK         0.0806 
    142 H142      -45.7393  -25.7770    9.3858 H         1 UNK         0.3061 
    143 H143      -45.1506  -22.6784   11.0707 H         1 UNK         0.0734 
    144 H144      -42.9533  -22.9646    9.9598 H         1 UNK         0.0832 
    145 H145      -43.0686  -24.0334   11.3469 H         1 UNK         0.0832 
    146 H146      -43.2585  -24.6865    9.7262 H         1 UNK         0.0832 
    147 H147      -44.9144  -23.4315    8.3293 H         1 UNK         0.3156 
    148 H148      -48.2620  -22.6924    7.3502 H         1 UNK         0.0589 
    149 H149      -45.6080  -21.2461    6.8313 H         1 UNK         0.0808 
    150 H150      -47.0611  -21.1512    5.8355 H         1 UNK         0.0808 
    151 H151      -47.0675  -20.4981    7.4641 H         1 UNK         0.0808 
    152 H152      -46.0922  -23.4901    5.7640 H         1 UNK         0.3098 
    153 H153      -46.1419  -25.5047    4.7706 H         1 UNK         0.0720 
    154 H154      -44.5884  -27.2964    5.5437 H         1 UNK         0.0791 
    155 H155      -45.2252  -27.1790    7.1816 H         1 UNK         0.0791 
    156 H156      -44.3328  -25.8344    6.4810 H         1 UNK         0.0791 
    157 H157      -47.1544  -28.0010    5.9022 H         1 UNK         0.3028 
@<TRIPOS>BOND
     1    1    2 1    
     2    1   82 1    
     3    1   83 1    
     4    1   84 1    
     5    2    3 2    
     6    2    4 am   BACKBONE|DICT|INTERRES
     7    4    5 1    
     8    4   85 1    
     9    5    6 1    
    10    5   80 1    
    11    5   86 1    
    12    6    7 1    
    13    6   87 1    
    14    6   88 1    
    15    7    8 1    
    16    8    9 1    
    17    8   89 1    
    18    8   90 1    
    19    9   10 ar   
    20    9   14 ar   
    21   10   11 ar   
    22   10   91 1    
    23   11   12 ar   
    24   11   58 1    
    25   12   13 ar   
    26   12   92 1    
    27   13   14 ar   
    28   13   15 1    
    29   14   93 1    
    30   15   16 1    
    31   15   94 1    
    32   15   95 1    
    33   16   17 1    
    34   17   18 1    
    35   17   96 1    
    36   17   97 1    
    37   18   19 1    
    38   18   22 1    
    39   18   98 1    
    40   19   20 am   BACKBONE|DICT|INTERRES
    41   19   21 2    
    42   20   99 1    
    43   20  100 1    
    44   22   23 am   BACKBONE|DICT|INTERRES
    45   22  101 1    
    46   23   24 2    
    47   23   25 1    
    48   25   26 1    
    49   25   27 1    
    50   25  102 1    
    51   26  103 1    
    52   26  104 1    
    53   26  105 1    
    54   27   28 am   BACKBONE|DICT|INTERRES
    55   27  106 1    
    56   28   29 2    
    57   28   30 1    
    58   30   31 1    
    59   30   32 1    
    60   30  107 1    
    61   31  108 1    
    62   31  109 1    
    63   31  110 1    
    64   32   33 am   BACKBONE|DICT|INTERRES
    65   32  111 1    
    66   33   34 2    
    67   33   35 1    
    68   35   36 1    
    69   35   37 1    
    70   35  112 1    
    71   36  113 1    
    72   36  114 1    
    73   36  115 1    
    74   37   38 am   BACKBONE|DICT|INTERRES
    75   37  116 1    
    76   38   39 2    
    77   38   40 1    
    78   40   41 1    
    79   40   42 1    
    80   40  117 1    
    81   41  118 1    
    82   41  119 1    
    83   41  120 1    
    84   42   43 am   BACKBONE|DICT|INTERRES
    85   42  121 1    
    86   43   44 2    
    87   43   45 1    
    88   45   46 1    
    89   45   47 1    
    90   45  122 1    
    91   46  123 1    
    92   46  124 1    
    93   46  125 1    
    94   47   48 am   BACKBONE|DICT|INTERRES
    95   47  126 1    
    96   48   49 2    
    97   48   50 1    
    98   50   51 1    
    99   50   52 1    
   100   50  127 1    
   101   51  128 1    
   102   51  129 1    
   103   51  130 1    
   104   52   53 am   BACKBONE|DICT|INTERRES
   105   52  131 1    
   106   53   54 2    
   107   53   55 1    
   108   55   56 1    
   109   55   59 1    
   110   55  132 1    
   111   56   57 1    
   112   56  133 1    
   113   56  134 1    
   114   57   58 1    
   115   58  135 1    
   116   58  136 1    
   117   59   60 am   BACKBONE|DICT|INTERRES
   118   59  137 1    
   119   60   61 2    
   120   60   62 1    
   121   62   63 1    
   122   62   64 1    
   123   62  138 1    
   124   63  139 1    
   125   63  140 1    
   126   63  141 1    
   127   64   65 am   BACKBONE|DICT|INTERRES
   128   64  142 1    
   129   65   66 2    
   130   65   67 1    
   131   67   68 1    
   132   67   69 1    
   133   67  143 1    
   134   68  144 1    
   135   68  145 1    
   136   68  146 1    
   137   69   70 am   BACKBONE|DICT|INTERRES
   138   69  147 1    
   139   70   71 2    
   140   70   72 1    
   141   72   73 1    
   142   72   74 1    
   143   72  148 1    
   144   73  149 1    
   145   73  150 1    
   146   73  151 1    
   147   74   75 am   BACKBONE|DICT|INTERRES
   148   74  152 1    
   149   75   76 2    
   150   75   77 1    
   151   77   78 1    
   152   77   79 1    
   153   77  153 1    
   154   78  154 1    
   155   78  155 1    
   156   78  156 1    
   157   79   80 am   BACKBONE|DICT|INTERRES
   158   79  157 1    
   159   80   81 2    
@<TRIPOS>SUBSTRUCTURE
     1 UNK         1 GROUP             0       ****    0 ROOT    
