@<TRIPOS>MOLECULE
3R207
157   159    1
SMALL
USER_CHARGES


@<TRIPOS>ATOM
      1 CA        -52.2086  -28.8406    1.8759 C.3       0 UNK        -0.1975 
      2 C         -52.1119  -27.8576    3.0332 C.2       0 UNK         0.4852 
      3 O         -52.5980  -26.7317    2.9216 O.2       0 UNK        -0.5216 
      4 N         -51.4885  -28.2754    4.1432 N.am      1 UNK        -0.4461 
      5 CA        -51.2776  -27.4647    5.3496 C.3       1 UNK         0.0864 
      6 C6        -50.8589  -28.3367    6.5611 C.3       14 UNK        -0.0898 
      7 S7        -49.3548  -29.3374    6.2667 S.3       14 UNK        -0.2598 
      8 C8        -49.7781  -30.8976    7.1019 C.3       14 UNK         0.0286 
      9 C9        -49.8296  -30.7275    8.6127 C.ar      14 UNK        -0.0844 
     10 C10       -48.6444  -30.6403    9.3477 C.ar      14 UNK        -0.0881 
     11 C11       -48.6779  -30.4807   10.7358 C.ar      14 UNK        -0.0643 
     12 C12       -49.9121  -30.4081   11.3910 C.ar      14 UNK        -0.0930 
     13 C13       -51.1050  -30.5196   10.6682 C.ar      14 UNK        -0.0827 
     14 C14       -51.0567  -30.6751    9.2795 C.ar      14 UNK        -0.1249 
     15 C15       -52.4475  -30.5129   11.3841 C.3       14 UNK         0.0141 
     16 S16       -53.3582  -28.9713   11.0828 S.3       14 UNK        -0.2313 
     17 C17       -54.8699  -29.2880   12.0463 C.3       14 UNK        -0.0915 
     18 CA        -55.8952  -28.1364   11.9008 C.3       13 UNK         0.0968 
     19 C         -57.2589  -28.5240   12.5362 C.2       13 UNK         0.5732 
     20 N         -58.1180  -29.2002   11.7850 N.am      13 UNK        -0.7310 
     21 O         -57.5322  -28.2590   13.7047 O.2       13 UNK        -0.5035 
     22 N         -55.3514  -26.8757   12.4222 N.am      13 UNK        -0.4233 
     23 C         -55.9000  -25.6681   12.2495 C.2       13 UNK         0.4989 
     24 O         -56.9151  -25.4595   11.5816 O.2       13 UNK        -0.4996 
     25 CA        -55.1621  -24.5012   12.9285 C.3       12 UNK         0.0216 
     26 CB        -55.9088  -23.1527   12.8337 C.3       12 UNK        -0.1964 
     27 N         -54.7910  -24.8225   14.3122 N.am      12 UNK        -0.4276 
     28 C         -55.6129  -25.0212   15.3535 C.2       12 UNK         0.5020 
     29 O         -56.8396  -24.9169   15.2948 O.2       12 UNK        -0.5489 
     30 CA        -54.9416  -25.3548   16.6989 C.3       11 UNK         0.0294 
     31 CB        -55.9215  -25.9282   17.7463 C.3       11 UNK        -0.2019 
     32 N         -53.7450  -26.1945   16.5676 N.am      11 UNK        -0.4493 
     33 C         -53.6724  -27.4841   16.2012 C.2       11 UNK         0.4932 
     34 O         -54.6525  -28.1519   15.8727 O.2       11 UNK        -0.5029 
     35 CA        -52.2809  -28.1591   16.2125 C.3       10 UNK         0.0280 
     36 CB        -52.1003  -29.1114   15.0159 C.3       10 UNK        -0.1976 
     37 N         -51.1674  -27.2069   16.2302 N.am      10 UNK        -0.4242 
     38 C         -50.6865  -26.5694   17.3065 C.2       10 UNK         0.5072 
     39 O         -51.0715  -26.7810   18.4564 O.2       10 UNK        -0.5224 
     40 CA        -49.6522  -25.4552   17.0493 C.3       9 UNK         0.0343 
     41 CB        -48.2234  -26.0180   17.0901 C.3       9 UNK        -0.2003 
     42 N         -49.8765  -24.7414   15.7847 N.am      9 UNK        -0.4272 
     43 C         -50.9816  -24.0310   15.5053 C.2       9 UNK         0.4988 
     44 O         -51.8967  -23.8484   16.3083 O.2       9 UNK        -0.5108 
     45 CA        -51.1273  -23.4832   14.0770 C.3       8 UNK         0.0248 
     46 CB        -50.3479  -22.1693   13.9161 C.3       8 UNK        -0.2001 
     47 N         -50.7104  -24.4496   13.0571 N.am      8 UNK        -0.4140 
     48 C         -51.3093  -25.6306   12.8381 C.2       8 UNK         0.5028 
     49 O         -52.3287  -25.9941   13.4250 O.2       8 UNK        -0.5428 
     50 CA        -50.6316  -26.5908   11.8466 C.3       7 UNK         0.0264 
     51 CB        -50.9580  -26.2161   10.3948 C.3       7 UNK        -0.1988 
     52 N         -49.1823  -26.6597   12.0373 N.am      7 UNK        -0.4454 
     53 C         -48.6014  -27.1345   13.1506 C.2       7 UNK         0.5027 
     54 O         -49.2308  -27.6350   14.0821 O.2       7 UNK        -0.5083 
     55 CA        -47.0757  -26.9683   13.2933 C.3       6 UNK         0.0844 
     56 C56       -46.2751  -28.2509   12.9682 C.3       14 UNK        -0.0967 
     57 S57       -46.4744  -28.8753   11.2656 S.3       14 UNK        -0.2604 
     58 C58       -47.3776  -30.4375   11.5240 C.3       14 UNK         0.0134 
     59 N         -46.5868  -25.7782   12.5928 N.am      6 UNK        -0.4116 
     60 C         -46.7612  -24.5346   13.0639 C.2       5 UNK         0.5034 
     61 O         -47.3428  -24.2784   14.1199 O.2       5 UNK        -0.5045 
     62 CA        -46.2256  -23.3815   12.2009 C.3       5 UNK         0.0224 
     63 CB        -44.6890  -23.3361   12.2300 C.3       5 UNK        -0.1978 
     64 N         -46.6942  -23.4372   10.8144 N.am      5 UNK        -0.4737 
     65 C         -47.9785  -23.3399   10.4439 C.2       4 UNK         0.5027 
     66 O         -48.9103  -23.2078   11.2342 O.2       4 UNK        -0.5211 
     67 CA        -48.2846  -23.4210    8.9405 C.3       4 UNK         0.0297 
     68 CB        -48.2240  -22.0233    8.3054 C.3       4 UNK        -0.1993 
     69 N         -47.4215  -24.3333    8.1874 N.am      4 UNK        -0.4486 
     70 C         -47.2383  -25.6360    8.4381 C.2       3 UNK         0.4961 
     71 O         -47.6917  -26.2144    9.4272 O.2       3 UNK        -0.5105 
     72 CA        -46.4372  -26.4082    7.3713 C.3       3 UNK         0.0299 
     73 CB        -46.1175  -27.8519    7.7935 C.3       3 UNK        -0.1972 
     74 N         -47.1664  -26.4358    6.1014 N.am      3 UNK        -0.4305 
     75 C         -47.2367  -25.4241    5.2227 C.2       2 UNK         0.5006 
     76 O         -46.6186  -24.3665    5.3566 O.2       2 UNK        -0.5106 
     77 CA        -48.1727  -25.5980    4.0115 C.3       2 UNK         0.0296 
     78 CB        -47.3824  -26.0808    2.7848 C.3       2 UNK        -0.2002 
     79 N         -49.2847  -26.5184    4.2632 N.am      2 UNK        -0.4032 
     80 C         -50.2818  -26.3041    5.1363 C.2       1 UNK         0.5000 
     81 O         -50.4217  -25.2591    5.7741 O.2       1 UNK        -0.5238 
     82 H82       -51.7412  -29.7964    2.1119 H         1 UNK         0.0889 
     83 H83       -51.7167  -28.4311    0.9939 H         1 UNK         0.0889 
     84 H84       -53.2533  -29.0264    1.6282 H         1 UNK         0.0889 
     85 H85       -51.1134  -29.2130    4.1830 H         1 UNK         0.3028 
     86 H86       -52.2358  -27.0026    5.5980 H         1 UNK         0.0864 
     87 H87       -51.6842  -29.0019    6.8184 H         1 UNK         0.0720 
     88 H88       -50.6962  -27.7202    7.4469 H         1 UNK         0.0720 
     89 H89       -49.0278  -31.6478    6.8483 H         1 UNK         0.0814 
     90 H90       -50.7269  -31.2754    6.7175 H         1 UNK         0.0814 
     91 H91       -47.6918  -30.6936    8.8386 H         1 UNK         0.1469 
     92 H92       -49.9432  -30.2864   12.4654 H         1 UNK         0.1381 
     93 H93       -51.9788  -30.7565    8.7202 H         1 UNK         0.1206 
     94 H94       -52.3119  -30.6480   12.4578 H         1 UNK         0.0813 
     95 H95       -53.0445  -31.3583   11.0393 H         1 UNK         0.0813 
     96 H96       -55.2971  -30.2303   11.6979 H         1 UNK         0.0638 
     97 H97       -54.6016  -29.4345   13.0944 H         1 UNK         0.0638 
     98 H98       -56.0730  -27.9807   10.8347 H         1 UNK         0.0568 
     99 H99       -57.9031  -29.4360   10.8287 H         1 UNK         0.3450 
    100 H100      -59.0029  -29.4749   12.1817 H         1 UNK         0.3450 
    101 H101      -54.5135  -26.9503   12.9829 H         1 UNK         0.2987 
    102 H102      -54.2250  -24.3830   12.3829 H         1 UNK         0.0766 
    103 H103      -56.8963  -23.1984   13.2934 H         1 UNK         0.0798 
    104 H104      -55.3481  -22.3541   13.3192 H         1 UNK         0.0798 
    105 H105      -56.0519  -22.8613   11.7926 H         1 UNK         0.0798 
    106 H106      -53.8066  -25.0377   14.4417 H         1 UNK         0.3198 
    107 H107      -54.5843  -24.3998   17.0873 H         1 UNK         0.0843 
    108 H108      -56.3938  -26.8476   17.3992 H         1 UNK         0.0831 
    109 H109      -56.7205  -25.2178   17.9620 H         1 UNK         0.0831 
    110 H110      -55.4171  -26.1424   18.6883 H         1 UNK         0.0831 
    111 H111      -52.8748  -25.7138   16.7644 H         1 UNK         0.3133 
    112 H112      -52.2320  -28.7601   17.1224 H         1 UNK         0.0566 
    113 H113      -51.1240  -29.5958   15.0371 H         1 UNK         0.0814 
    114 H114      -52.8519  -29.9015   15.0221 H         1 UNK         0.0814 
    115 H115      -52.1892  -28.5836   14.0665 H         1 UNK         0.0814 
    116 H116      -50.7400  -27.0120   15.3303 H         1 UNK         0.3091 
    117 H117      -49.7492  -24.7236   17.8543 H         1 UNK         0.0702 
    118 H118      -47.4821  -25.2461   16.8820 H         1 UNK         0.0785 
    119 H119      -48.0859  -26.8230   16.3695 H         1 UNK         0.0785 
    120 H120      -47.9984  -26.4277   18.0756 H         1 UNK         0.0785 
    121 H121      -49.1422  -24.7955   15.0868 H         1 UNK         0.2998 
    122 H122      -52.1848  -23.2667   13.9124 H         1 UNK         0.0697 
    123 H123      -49.2726  -22.3209   14.0165 H         1 UNK         0.0825 
    124 H124      -50.6484  -21.4405   14.6701 H         1 UNK         0.0825 
    125 H125      -50.5306  -21.7191   12.9403 H         1 UNK         0.0825 
    126 H126      -49.9134  -24.1838   12.4819 H         1 UNK         0.3029 
    127 H127      -51.0258  -27.5899   12.0360 H         1 UNK         0.0897 
    128 H128      -50.5928  -25.2220   10.1420 H         1 UNK         0.0792 
    129 H129      -52.0351  -26.2242   10.2235 H         1 UNK         0.0792 
    130 H130      -50.5119  -26.9274    9.6997 H         1 UNK         0.0792 
    131 H131      -48.5979  -26.3356   11.2720 H         1 UNK         0.3086 
    132 H132      -46.8988  -26.7912   14.3559 H         1 UNK         0.0583 
    133 H133      -45.2125  -28.0600   13.1259 H         1 UNK         0.1020 
    134 H134      -46.5259  -29.0293   13.6900 H         1 UNK         0.1020 
    135 H135      -46.7392  -31.2633   11.2069 H         1 UNK         0.0694 
    136 H136      -47.5791  -30.6073   12.5818 H         1 UNK         0.0694 
    137 H137      -46.1618  -25.9200   11.6875 H         1 UNK         0.2989 
    138 H138      -46.5998  -22.4526   12.6377 H         1 UNK         0.1055 
    139 H139      -44.3198  -23.2919   13.2558 H         1 UNK         0.0806 
    140 H140      -44.3094  -22.4538   11.7144 H         1 UNK         0.0806 
    141 H141      -44.2446  -24.2150   11.7613 H         1 UNK         0.0806 
    142 H142      -45.9980  -23.5543   10.0925 H         1 UNK         0.3061 
    143 H143      -49.3052  -23.7919    8.8343 H         1 UNK         0.0734 
    144 H144      -47.2155  -21.6090    8.3349 H         1 UNK         0.0832 
    145 H145      -48.5484  -22.0459    7.2647 H         1 UNK         0.0832 
    146 H146      -48.8786  -21.3269    8.8317 H         1 UNK         0.0832 
    147 H147      -47.0350  -23.9802    7.3176 H         1 UNK         0.3156 
    148 H148      -45.4883  -25.8882    7.2245 H         1 UNK         0.0589 
    149 H149      -47.0209  -28.4121    8.0370 H         1 UNK         0.0808 
    150 H150      -45.5874  -28.3915    7.0089 H         1 UNK         0.0808 
    151 H151      -45.4800  -27.8601    8.6775 H         1 UNK         0.0808 
    152 H152      -47.7376  -27.2530    5.9361 H         1 UNK         0.3098 
    153 H153      -48.5962  -24.6177    3.7829 H         1 UNK         0.0720 
    154 H154      -48.0159  -26.1316    1.8989 H         1 UNK         0.0791 
    155 H155      -46.9481  -27.0684    2.9459 H         1 UNK         0.0791 
    156 H156      -46.5629  -25.3979    2.5558 H         1 UNK         0.0791 
    157 H157      -49.2602  -27.4071    3.7845 H         1 UNK         0.3028 
@<TRIPOS>BOND
     1    1    2 1    
     2    1   82 1    
     3    1   83 1    
     4    1   84 1    
     5    2    3 2    
     6    2    4 am   BACKBONE|DICT|INTERRES
     7    4    5 1    
     8    4   85 1    
     9    5    6 1    
    10    5   80 1    
    11    5   86 1    
    12    6    7 1    
    13    6   87 1    
    14    6   88 1    
    15    7    8 1    
    16    8    9 1    
    17    8   89 1    
    18    8   90 1    
    19    9   10 ar   
    20    9   14 ar   
    21   10   11 ar   
    22   10   91 1    
    23   11   12 ar   
    24   11   58 1    
    25   12   13 ar   
    26   12   92 1    
    27   13   14 ar   
    28   13   15 1    
    29   14   93 1    
    30   15   16 1    
    31   15   94 1    
    32   15   95 1    
    33   16   17 1    
    34   17   18 1    
    35   17   96 1    
    36   17   97 1    
    37   18   19 1    
    38   18   22 1    
    39   18   98 1    
    40   19   20 am   BACKBONE|DICT|INTERRES
    41   19   21 2    
    42   20   99 1    
    43   20  100 1    
    44   22   23 am   BACKBONE|DICT|INTERRES
    45   22  101 1    
    46   23   24 2    
    47   23   25 1    
    48   25   26 1    
    49   25   27 1    
    50   25  102 1    
    51   26  103 1    
    52   26  104 1    
    53   26  105 1    
    54   27   28 am   BACKBONE|DICT|INTERRES
    55   27  106 1    
    56   28   29 2    
    57   28   30 1    
    58   30   31 1    
    59   30   32 1    
    60   30  107 1    
    61   31  108 1    
    62   31  109 1    
    63   31  110 1    
    64   32   33 am   BACKBONE|DICT|INTERRES
    65   32  111 1    
    66   33   34 2    
    67   33   35 1    
    68   35   36 1    
    69   35   37 1    
    70   35  112 1    
    71   36  113 1    
    72   36  114 1    
    73   36  115 1    
    74   37   38 am   BACKBONE|DICT|INTERRES
    75   37  116 1    
    76   38   39 2    
    77   38   40 1    
    78   40   41 1    
    79   40   42 1    
    80   40  117 1    
    81   41  118 1    
    82   41  119 1    
    83   41  120 1    
    84   42   43 am   BACKBONE|DICT|INTERRES
    85   42  121 1    
    86   43   44 2    
    87   43   45 1    
    88   45   46 1    
    89   45   47 1    
    90   45  122 1    
    91   46  123 1    
    92   46  124 1    
    93   46  125 1    
    94   47   48 am   BACKBONE|DICT|INTERRES
    95   47  126 1    
    96   48   49 2    
    97   48   50 1    
    98   50   51 1    
    99   50   52 1    
   100   50  127 1    
   101   51  128 1    
   102   51  129 1    
   103   51  130 1    
   104   52   53 am   BACKBONE|DICT|INTERRES
   105   52  131 1    
   106   53   54 2    
   107   53   55 1    
   108   55   56 1    
   109   55   59 1    
   110   55  132 1    
   111   56   57 1    
   112   56  133 1    
   113   56  134 1    
   114   57   58 1    
   115   58  135 1    
   116   58  136 1    
   117   59   60 am   BACKBONE|DICT|INTERRES
   118   59  137 1    
   119   60   61 2    
   120   60   62 1    
   121   62   63 1    
   122   62   64 1    
   123   62  138 1    
   124   63  139 1    
   125   63  140 1    
   126   63  141 1    
   127   64   65 am   BACKBONE|DICT|INTERRES
   128   64  142 1    
   129   65   66 2    
   130   65   67 1    
   131   67   68 1    
   132   67   69 1    
   133   67  143 1    
   134   68  144 1    
   135   68  145 1    
   136   68  146 1    
   137   69   70 am   BACKBONE|DICT|INTERRES
   138   69  147 1    
   139   70   71 2    
   140   70   72 1    
   141   72   73 1    
   142   72   74 1    
   143   72  148 1    
   144   73  149 1    
   145   73  150 1    
   146   73  151 1    
   147   74   75 am   BACKBONE|DICT|INTERRES
   148   74  152 1    
   149   75   76 2    
   150   75   77 1    
   151   77   78 1    
   152   77   79 1    
   153   77  153 1    
   154   78  154 1    
   155   78  155 1    
   156   78  156 1    
   157   79   80 am   BACKBONE|DICT|INTERRES
   158   79  157 1    
   159   80   81 2    
@<TRIPOS>SUBSTRUCTURE
     1 UNK         1 GROUP             0       ****    0 ROOT    
