@<TRIPOS>MOLECULE
3R207
157   159    1
SMALL
USER_CHARGES


@<TRIPOS>ATOM
      1 CA        -44.9651  -28.0654    4.1987 C.3       0 UNK        -0.1975 
      2 C         -46.3577  -28.2664    3.6206 C.2       0 UNK         0.4852 
      3 O         -46.4908  -28.6744    2.4667 O.2       0 UNK        -0.5216 
      4 N         -47.3943  -27.9597    4.4080 N.am      1 UNK        -0.4461 
      5 CA        -48.8128  -28.0937    4.0505 C.3       1 UNK         0.0864 
      6 C6        -49.6398  -28.6726    5.2306 C.3       14 UNK        -0.0898 
      7 S7        -49.0105  -30.2629    5.8722 S.3       14 UNK        -0.2598 
      8 C8        -50.5546  -31.1166    6.3306 C.3       14 UNK         0.0286 
      9 C9        -51.1668  -30.5652    7.6133 C.ar      14 UNK        -0.0844 
     10 C10       -50.9322  -31.1995    8.8399 C.ar      14 UNK        -0.0881 
     11 C11       -51.5341  -30.7280   10.0122 C.ar      14 UNK        -0.0643 
     12 C12       -52.3670  -29.6073    9.9453 C.ar      14 UNK        -0.0930 
     13 C13       -52.5700  -28.9344    8.7390 C.ar      14 UNK        -0.0827 
     14 C14       -51.9865  -29.4320    7.5720 C.ar      14 UNK        -0.1249 
     15 C15       -53.3605  -27.6343    8.7174 C.3       14 UNK         0.0141 
     16 S16       -55.0778  -27.8470    9.2846 S.3       14 UNK        -0.2313 
     17 C17       -55.4028  -26.1826    9.9677 C.3       14 UNK        -0.0915 
     18 CA        -56.5609  -26.1373   11.0070 C.3       13 UNK         0.0968 
     19 C         -57.9810  -26.1653   10.3706 C.2       13 UNK         0.5732 
     20 N         -58.9718  -26.8026   10.9856 N.am      13 UNK        -0.7310 
     21 O         -58.2037  -25.5793    9.3136 O.2       13 UNK        -0.5035 
     22 N         -56.3867  -27.1148   12.0922 N.am      13 UNK        -0.4233 
     23 C         -55.5085  -27.0146   13.0930 C.2       13 UNK         0.4989 
     24 O         -54.7492  -26.0561   13.2607 O.2       13 UNK        -0.4996 
     25 CA        -55.4635  -28.2036   14.0608 C.3       12 UNK         0.0216 
     26 CB        -54.9807  -29.4876   13.3563 C.3       12 UNK        -0.1964 
     27 N         -54.5752  -27.8759   15.1720 N.am      12 UNK        -0.4276 
     28 C         -54.6054  -28.4300   16.3893 C.2       12 UNK         0.5020 
     29 O         -55.3891  -29.3231   16.7145 O.2       12 UNK        -0.5489 
     30 CA        -53.5936  -27.9120   17.4243 C.3       11 UNK         0.0294 
     31 CB        -52.3852  -28.8594   17.5094 C.3       11 UNK        -0.2019 
     32 N         -53.1139  -26.5667   17.1101 N.am      11 UNK        -0.4493 
     33 C         -53.7037  -25.4257   17.4878 C.2       11 UNK         0.4932 
     34 O         -54.7383  -25.3809   18.1555 O.2       11 UNK        -0.5029 
     35 CA        -53.0101  -24.1216   17.0405 C.3       10 UNK         0.0280 
     36 CB        -53.4687  -22.8844   17.8408 C.3       10 UNK        -0.1976 
     37 N         -51.5451  -24.2309   17.0308 N.am      10 UNK        -0.4242 
     38 C         -50.7355  -24.4996   18.0683 C.2       10 UNK         0.5072 
     39 O         -51.1220  -24.5975   19.2339 O.2       10 UNK        -0.5224 
     40 CA        -49.2433  -24.7412   17.7651 C.3       9 UNK         0.0343 
     41 CB        -48.9025  -26.2280   17.9650 C.3       9 UNK        -0.2003 
     42 N         -48.8440  -24.3487   16.4113 N.am      9 UNK        -0.4272 
     43 C         -48.6404  -23.0881   16.0039 C.2       9 UNK         0.4988 
     44 O         -48.6919  -22.1093   16.7490 O.2       9 UNK        -0.5108 
     45 CA        -48.3767  -22.8830   14.5001 C.3       8 UNK         0.0248 
     46 CB        -46.8962  -23.1257   14.1677 C.3       8 UNK        -0.2001 
     47 N         -49.2227  -23.7308   13.6518 N.am      8 UNK        -0.4140 
     48 C         -50.5633  -23.6709   13.6175 C.2       8 UNK         0.5028 
     49 O         -51.2310  -22.8628   14.2613 O.2       8 UNK        -0.5428 
     50 CA        -51.2880  -24.7235   12.7704 C.3       7 UNK         0.0264 
     51 CB        -51.3709  -24.2896   11.2981 C.3       7 UNK        -0.1988 
     52 N         -50.6407  -26.0299   12.8641 N.am      7 UNK        -0.4454 
     53 C         -50.7368  -26.8541   13.9184 C.2       7 UNK         0.5027 
     54 O         -51.3768  -26.5981   14.9378 O.2       7 UNK        -0.5083 
     55 CA        -49.9902  -28.1991   13.7957 C.3       6 UNK         0.0844 
     56 C56       -50.8037  -29.1142   12.8484 C.3       14 UNK        -0.0967 
     57 S57       -49.9922  -30.6697   12.3518 S.3       14 UNK        -0.2604 
     58 C58       -51.3089  -31.4387   11.3445 C.3       14 UNK         0.0134 
     59 N         -48.6145  -28.0217   13.3312 N.am      6 UNK        -0.4116 
     60 C         -47.6788  -27.2246   13.8657 C.2       5 UNK         0.5034 
     61 O         -47.8244  -26.5796   14.9024 O.2       5 UNK        -0.5045 
     62 CA        -46.3841  -27.0647   13.0502 C.3       5 UNK         0.0224 
     63 CB        -45.3385  -28.1014   13.4892 C.3       5 UNK        -0.1978 
     64 N         -46.6069  -27.1702   11.6022 N.am      5 UNK        -0.4737 
     65 C         -47.4096  -26.3639   10.8944 C.2       4 UNK         0.5027 
     66 O         -48.0224  -25.4036   11.3713 O.2       4 UNK        -0.5211 
     67 CA        -47.6324  -26.7537    9.4343 C.3       4 UNK         0.0297 
     68 CB        -48.7703  -27.7871    9.3171 C.3       4 UNK        -0.1993 
     69 N         -47.9661  -25.5561    8.6708 N.am      4 UNK        -0.4486 
     70 C         -47.6955  -25.3933    7.3747 C.2       3 UNK         0.4961 
     71 O         -47.1454  -26.2545    6.6780 O.2       3 UNK        -0.5105 
     72 CA        -48.0989  -24.0532    6.7414 C.3       3 UNK         0.0299 
     73 CB        -47.1239  -22.9274    7.1251 C.3       3 UNK        -0.1972 
     74 N         -48.0731  -24.2621    5.3018 N.am      3 UNK        -0.4305 
     75 C         -48.8710  -23.7228    4.3749 C.2       2 UNK         0.5006 
     76 O         -49.6408  -22.7845    4.5818 O.2       2 UNK        -0.5106 
     77 CA        -48.8221  -24.3911    2.9848 C.3       2 UNK         0.0296 
     78 CB        -47.7646  -23.7186    2.0945 C.3       2 UNK        -0.2002 
     79 N         -48.5329  -25.8280    3.0923 N.am      2 UNK        -0.4032 
     80 C         -49.3909  -26.7318    3.5941 C.2       1 UNK         0.5000 
     81 O         -50.5888  -26.4906    3.7591 O.2       1 UNK        -0.5238 
     82 H82       -45.0006  -27.6713    5.2147 H         1 UNK         0.0889 
     83 H83       -44.3987  -27.3669    3.5834 H         1 UNK         0.0889 
     84 H84       -44.4288  -29.0136    4.2216 H         1 UNK         0.0889 
     85 H85       -47.2223  -27.5781    5.3365 H         1 UNK         0.3028 
     86 H86       -48.9173  -28.7767    3.2049 H         1 UNK         0.0864 
     87 H87       -49.6763  -27.9639    6.0599 H         1 UNK         0.0720 
     88 H88       -50.6708  -28.8211    4.9069 H         1 UNK         0.0720 
     89 H89       -50.3381  -32.1791    6.4516 H         1 UNK         0.0814 
     90 H90       -51.2729  -31.0518    5.5119 H         1 UNK         0.0814 
     91 H91       -50.2922  -32.0704    8.8802 H         1 UNK         0.1469 
     92 H92       -52.8490  -29.2378   10.8381 H         1 UNK         0.1381 
     93 H93       -52.1600  -28.9262    6.6331 H         1 UNK         0.1206 
     94 H94       -53.3725  -27.1973    7.7178 H         1 UNK         0.0813 
     95 H95       -52.8384  -26.9212    9.3556 H         1 UNK         0.0813 
     96 H96       -54.4945  -25.8252   10.4543 H         1 UNK         0.0638 
     97 H97       -55.5796  -25.4900    9.1432 H         1 UNK         0.0638 
     98 H98       -56.5215  -25.1502   11.4712 H         1 UNK         0.0568 
     99 H99       -58.8471  -27.2248   11.8907 H         1 UNK         0.3450 
    100 H100      -59.8849  -26.8021   10.5583 H         1 UNK         0.3450 
    101 H101      -56.9463  -27.9505   12.0074 H         1 UNK         0.2987 
    102 H102      -56.4724  -28.3569   14.4497 H         1 UNK         0.0766 
    103 H103      -54.8956  -30.3209   14.0539 H         1 UNK         0.0798 
    104 H104      -54.0094  -29.3436   12.8875 H         1 UNK         0.0798 
    105 H105      -55.6740  -29.7978   12.5738 H         1 UNK         0.0798 
    106 H106      -53.9430  -27.1047   14.9894 H         1 UNK         0.3198 
    107 H107      -54.0887  -27.8995   18.3978 H         1 UNK         0.0843 
    108 H108      -51.8559  -28.9265   16.5582 H         1 UNK         0.0831 
    109 H109      -52.6994  -29.8685   17.7797 H         1 UNK         0.0831 
    110 H110      -51.6741  -28.5277   18.2663 H         1 UNK         0.0831 
    111 H111      -52.3078  -26.5083   16.4889 H         1 UNK         0.3133 
    112 H112      -53.3042  -23.9676   16.0012 H         1 UNK         0.0566 
    113 H113      -52.9702  -21.9804   17.4908 H         1 UNK         0.0814 
    114 H114      -54.5420  -22.7244   17.7316 H         1 UNK         0.0814 
    115 H115      -53.2634  -22.9909   18.9063 H         1 UNK         0.0814 
    116 H116      -51.1194  -24.1474   16.1164 H         1 UNK         0.3091 
    117 H117      -48.6636  -24.1564   18.4822 H         1 UNK         0.0702 
    118 H118      -47.8396  -26.4155   17.8112 H         1 UNK         0.0785 
    119 H119      -49.4573  -26.8634   17.2727 H         1 UNK         0.0785 
    120 H120      -49.1463  -26.5558   18.9764 H         1 UNK         0.0785 
    121 H121      -48.6959  -25.1063   15.7489 H         1 UNK         0.2998 
    122 H122      -48.6129  -21.8442   14.2597 H         1 UNK         0.0697 
    123 H123      -46.5791  -24.1293   14.4496 H         1 UNK         0.0825 
    124 H124      -46.2589  -22.4231   14.7061 H         1 UNK         0.0825 
    125 H125      -46.6980  -22.9952   13.1036 H         1 UNK         0.0825 
    126 H126      -48.7544  -24.4030   13.0529 H         1 UNK         0.3029 
    127 H127      -52.3068  -24.8157   13.1542 H         1 UNK         0.0897 
    128 H128      -50.3840  -24.1763   10.8489 H         1 UNK         0.0792 
    129 H129      -51.8828  -23.3307   11.2054 H         1 UNK         0.0792 
    130 H130      -51.9303  -25.0119   10.7042 H         1 UNK         0.0792 
    131 H131      -50.0248  -26.2792   12.1026 H         1 UNK         0.3086 
    132 H132      -49.9455  -28.6585   14.7849 H         1 UNK         0.0583 
    133 H133      -51.7618  -29.3603   13.3080 H         1 UNK         0.1020 
    134 H134      -51.0215  -28.5716   11.9295 H         1 UNK         0.1020 
    135 H135      -51.0423  -32.4814   11.1658 H         1 UNK         0.0694 
    136 H136      -52.2380  -31.4614   11.9163 H         1 UNK         0.0694 
    137 H137      -48.3715  -28.5342   12.4966 H         1 UNK         0.2989 
    138 H138      -45.9875  -26.0684   13.2528 H         1 UNK         0.1055 
    139 H139      -45.1427  -28.0270   14.5601 H         1 UNK         0.0806 
    140 H140      -44.3880  -27.9482   12.9777 H         1 UNK         0.0806 
    141 H141      -45.6684  -29.1216   13.2887 H         1 UNK         0.0806 
    142 H142      -46.1455  -27.9345   11.1284 H         1 UNK         0.3061 
    143 H143      -46.7051  -27.1870    9.0523 H         1 UNK         0.0734 
    144 H144      -48.8945  -28.1239    8.2887 H         1 UNK         0.0832 
    145 H145      -48.5677  -28.6761    9.9157 H         1 UNK         0.0832 
    146 H146      -49.7262  -27.3803    9.6491 H         1 UNK         0.0832 
    147 H147      -48.3562  -24.7993    9.2189 H         1 UNK         0.3156 
    148 H148      -49.1123  -23.8018    7.0614 H         1 UNK         0.0589 
    149 H149      -47.1320  -22.7492    8.2011 H         1 UNK         0.0808 
    150 H150      -46.0988  -23.1681    6.8402 H         1 UNK         0.0808 
    151 H151      -47.3937  -21.9892    6.6398 H         1 UNK         0.0808 
    152 H152      -47.5041  -25.0583    5.0444 H         1 UNK         0.3098 
    153 H153      -49.8001  -24.2651    2.5152 H         1 UNK         0.0720 
    154 H154      -47.7553  -24.1518    1.0941 H         1 UNK         0.0791 
    155 H155      -46.7613  -23.8138    2.5118 H         1 UNK         0.0791 
    156 H156      -47.9714  -22.6533    1.9832 H         1 UNK         0.0791 
    157 H157      -47.5787  -26.1192    2.9356 H         1 UNK         0.3028 
@<TRIPOS>BOND
     1    1    2 1    
     2    1   82 1    
     3    1   83 1    
     4    1   84 1    
     5    2    3 2    
     6    2    4 am   BACKBONE|DICT|INTERRES
     7    4    5 1    
     8    4   85 1    
     9    5    6 1    
    10    5   80 1    
    11    5   86 1    
    12    6    7 1    
    13    6   87 1    
    14    6   88 1    
    15    7    8 1    
    16    8    9 1    
    17    8   89 1    
    18    8   90 1    
    19    9   10 ar   
    20    9   14 ar   
    21   10   11 ar   
    22   10   91 1    
    23   11   12 ar   
    24   11   58 1    
    25   12   13 ar   
    26   12   92 1    
    27   13   14 ar   
    28   13   15 1    
    29   14   93 1    
    30   15   16 1    
    31   15   94 1    
    32   15   95 1    
    33   16   17 1    
    34   17   18 1    
    35   17   96 1    
    36   17   97 1    
    37   18   19 1    
    38   18   22 1    
    39   18   98 1    
    40   19   20 am   BACKBONE|DICT|INTERRES
    41   19   21 2    
    42   20   99 1    
    43   20  100 1    
    44   22   23 am   BACKBONE|DICT|INTERRES
    45   22  101 1    
    46   23   24 2    
    47   23   25 1    
    48   25   26 1    
    49   25   27 1    
    50   25  102 1    
    51   26  103 1    
    52   26  104 1    
    53   26  105 1    
    54   27   28 am   BACKBONE|DICT|INTERRES
    55   27  106 1    
    56   28   29 2    
    57   28   30 1    
    58   30   31 1    
    59   30   32 1    
    60   30  107 1    
    61   31  108 1    
    62   31  109 1    
    63   31  110 1    
    64   32   33 am   BACKBONE|DICT|INTERRES
    65   32  111 1    
    66   33   34 2    
    67   33   35 1    
    68   35   36 1    
    69   35   37 1    
    70   35  112 1    
    71   36  113 1    
    72   36  114 1    
    73   36  115 1    
    74   37   38 am   BACKBONE|DICT|INTERRES
    75   37  116 1    
    76   38   39 2    
    77   38   40 1    
    78   40   41 1    
    79   40   42 1    
    80   40  117 1    
    81   41  118 1    
    82   41  119 1    
    83   41  120 1    
    84   42   43 am   BACKBONE|DICT|INTERRES
    85   42  121 1    
    86   43   44 2    
    87   43   45 1    
    88   45   46 1    
    89   45   47 1    
    90   45  122 1    
    91   46  123 1    
    92   46  124 1    
    93   46  125 1    
    94   47   48 am   BACKBONE|DICT|INTERRES
    95   47  126 1    
    96   48   49 2    
    97   48   50 1    
    98   50   51 1    
    99   50   52 1    
   100   50  127 1    
   101   51  128 1    
   102   51  129 1    
   103   51  130 1    
   104   52   53 am   BACKBONE|DICT|INTERRES
   105   52  131 1    
   106   53   54 2    
   107   53   55 1    
   108   55   56 1    
   109   55   59 1    
   110   55  132 1    
   111   56   57 1    
   112   56  133 1    
   113   56  134 1    
   114   57   58 1    
   115   58  135 1    
   116   58  136 1    
   117   59   60 am   BACKBONE|DICT|INTERRES
   118   59  137 1    
   119   60   61 2    
   120   60   62 1    
   121   62   63 1    
   122   62   64 1    
   123   62  138 1    
   124   63  139 1    
   125   63  140 1    
   126   63  141 1    
   127   64   65 am   BACKBONE|DICT|INTERRES
   128   64  142 1    
   129   65   66 2    
   130   65   67 1    
   131   67   68 1    
   132   67   69 1    
   133   67  143 1    
   134   68  144 1    
   135   68  145 1    
   136   68  146 1    
   137   69   70 am   BACKBONE|DICT|INTERRES
   138   69  147 1    
   139   70   71 2    
   140   70   72 1    
   141   72   73 1    
   142   72   74 1    
   143   72  148 1    
   144   73  149 1    
   145   73  150 1    
   146   73  151 1    
   147   74   75 am   BACKBONE|DICT|INTERRES
   148   74  152 1    
   149   75   76 2    
   150   75   77 1    
   151   77   78 1    
   152   77   79 1    
   153   77  153 1    
   154   78  154 1    
   155   78  155 1    
   156   78  156 1    
   157   79   80 am   BACKBONE|DICT|INTERRES
   158   79  157 1    
   159   80   81 2    
@<TRIPOS>SUBSTRUCTURE
     1 UNK         1 GROUP             0       ****    0 ROOT    
