@<TRIPOS>MOLECULE
3R207
157   159    1
SMALL
USER_CHARGES


@<TRIPOS>ATOM
      1 CA        -55.5284  -26.9773    6.6245 C.3       0 UNK        -0.1975 
      2 C         -54.0330  -27.2538    6.6568 C.2       0 UNK         0.4852 
      3 O         -53.3603  -26.8623    7.6105 O.2       0 UNK        -0.5216 
      4 N         -53.5127  -27.9293    5.6233 N.am      1 UNK        -0.4461 
      5 CA        -52.0910  -28.2376    5.4635 C.3       1 UNK         0.0864 
      6 C6        -51.8862  -29.4505    4.5155 C.3       14 UNK        -0.0898 
      7 S7        -50.1690  -30.0763    4.4480 S.3       14 UNK        -0.2598 
      8 C8        -50.1633  -31.3488    5.7567 C.3       14 UNK         0.0286 
      9 C9        -50.3762  -30.7165    7.1220 C.ar      14 UNK        -0.0844 
     10 C10       -49.3780  -29.9133    7.6790 C.ar      14 UNK        -0.0881 
     11 C11       -49.6124  -29.2101    8.8622 C.ar      14 UNK        -0.0643 
     12 C12       -50.8508  -29.3289    9.5003 C.ar      14 UNK        -0.0930 
     13 C13       -51.8488  -30.1507    8.9643 C.ar      14 UNK        -0.0827 
     14 C14       -51.6001  -30.8556    7.7830 C.ar      14 UNK        -0.1249 
     15 C15       -53.2247  -30.2076    9.6094 C.3       14 UNK         0.0141 
     16 S16       -53.1658  -30.9113   11.2883 S.3       14 UNK        -0.2313 
     17 C17       -54.9198  -30.9954   11.8141 C.3       14 UNK        -0.0915 
     18 CA        -55.8849  -29.9054   11.2668 C.3       13 UNK         0.0968 
     19 C         -57.3335  -30.1425   11.7865 C.2       13 UNK         0.5732 
     20 N         -57.9135  -29.2522   12.5828 N.am      13 UNK        -0.7310 
     21 O         -57.9449  -31.1552   11.4540 O.2       13 UNK        -0.5035 
     22 N         -55.3572  -28.5545   11.5041 N.am      13 UNK        -0.4233 
     23 C         -55.7397  -27.4403   10.8736 C.2       13 UNK         0.4989 
     24 O         -56.6585  -27.3997   10.0542 O.2       13 UNK        -0.4996 
     25 CA        -54.9454  -26.1635   11.2173 C.3       12 UNK         0.0216 
     26 CB        -55.3213  -24.9711   10.3180 C.3       12 UNK        -0.1964 
     27 N         -55.0710  -25.7589   12.6227 N.am      12 UNK        -0.4276 
     28 C         -54.5095  -26.3849   13.6639 C.2       12 UNK         0.5020 
     29 O         -53.8728  -27.4386   13.5702 O.2       12 UNK        -0.5489 
     30 CA        -54.6929  -25.7445   15.0425 C.3       11 UNK         0.0294 
     31 CB        -56.0316  -26.1574   15.6775 C.3       11 UNK        -0.2019 
     32 N         -53.5876  -26.2088   15.8706 N.am      11 UNK        -0.4493 
     33 C         -52.9487  -25.4999   16.8038 C.2       11 UNK         0.4932 
     34 O         -53.3142  -24.3887   17.1911 O.2       11 UNK        -0.5029 
     35 CA        -51.6765  -26.1171   17.4024 C.3       10 UNK         0.0280 
     36 CB        -51.3738  -27.5594   16.9394 C.3       10 UNK        -0.1976 
     37 N         -50.5535  -25.2457   17.0705 N.am      10 UNK        -0.4242 
     38 C         -49.4672  -25.0623   17.8322 C.2       10 UNK         0.5072 
     39 O         -49.2981  -25.6254   18.9157 O.2       10 UNK        -0.5224 
     40 CA        -48.3858  -24.0943   17.3146 C.3       9 UNK         0.0343 
     41 CB        -46.9637  -24.6053   17.6149 C.3       9 UNK        -0.2003 
     42 N         -48.5159  -23.8528   15.8744 N.am      9 UNK        -0.4272 
     43 C         -48.9173  -22.6953   15.3307 C.2       9 UNK         0.4988 
     44 O         -49.1842  -21.6875   15.9864 O.2       9 UNK        -0.5108 
     45 CA        -49.0590  -22.6342   13.8001 C.3       8 UNK         0.0248 
     46 CB        -47.7814  -22.0675   13.1591 C.3       8 UNK        -0.2001 
     47 N         -49.3970  -23.9082   13.1610 N.am      8 UNK        -0.4140 
     48 C         -50.5466  -24.5771   13.3302 C.2       8 UNK         0.5028 
     49 O         -51.4047  -24.2596   14.1523 O.2       8 UNK        -0.5428 
     50 CA        -50.7727  -25.8051   12.4394 C.3       7 UNK         0.0264 
     51 CB        -51.1158  -25.3761   11.0024 C.3       7 UNK        -0.1988 
     52 N         -49.5816  -26.6491   12.4246 N.am      7 UNK        -0.4454 
     53 C         -49.5010  -27.8785   12.9498 C.2       7 UNK         0.5027 
     54 O         -50.4603  -28.4807   13.4306 O.2       7 UNK        -0.5083 
     55 CA        -48.1175  -28.5690   12.9613 C.3       6 UNK         0.0844 
     56 C56       -48.0137  -29.6519   11.8469 C.3       14 UNK        -0.0967 
     57 S57       -47.2173  -29.1146   10.2886 S.3       14 UNK        -0.2604 
     58 C58       -48.5521  -28.2614    9.3944 C.3       14 UNK         0.0134 
     59 N         -46.9779  -27.6429   12.9578 N.am      6 UNK        -0.4116 
     60 C         -46.7453  -26.6602   13.8380 C.2       5 UNK         0.5034 
     61 O         -47.4387  -26.4460   14.8313 O.2       5 UNK        -0.5045 
     62 CA        -45.5885  -25.6969   13.5125 C.3       5 UNK         0.0224 
     63 CB        -44.2834  -26.1990   14.1493 C.3       5 UNK        -0.1978 
     64 N         -45.3647  -25.4325   12.0800 N.am      5 UNK        -0.4737 
     65 C         -46.2955  -25.0565   11.1906 C.2       4 UNK         0.5027 
     66 O         -47.4975  -24.9820   11.4582 O.2       4 UNK        -0.5211 
     67 CA        -45.8084  -24.7229    9.7715 C.3       4 UNK         0.0297 
     68 CB        -45.2350  -25.9626    9.0656 C.3       4 UNK        -0.1993 
     69 N         -46.9307  -24.2137    8.9852 N.am      4 UNK        -0.4486 
     70 C         -47.2416  -22.9263    8.8115 C.2       3 UNK         0.4961 
     71 O         -46.5048  -21.9975    9.1482 O.2       3 UNK        -0.5105 
     72 CA        -48.6131  -22.6318    8.1621 C.3       3 UNK         0.0299 
     73 CB        -48.7892  -21.1442    7.8026 C.3       3 UNK        -0.1972 
     74 N         -48.8926  -23.4442    6.9704 N.am      3 UNK        -0.4305 
     75 C         -49.2490  -24.7350    6.9705 C.2       2 UNK         0.5006 
     76 O         -49.3254  -25.4225    7.9916 O.2       2 UNK        -0.5106 
     77 CA        -49.5189  -25.3753    5.6052 C.3       2 UNK         0.0296 
     78 CB        -48.2027  -25.7814    4.9196 C.3       2 UNK        -0.2002 
     79 N         -50.3418  -26.5627    5.8084 N.am      2 UNK        -0.4032 
     80 C         -51.3293  -26.9781    5.0086 C.2       1 UNK         0.5000 
     81 O         -51.6534  -26.4171    3.9579 O.2       1 UNK        -0.5238 
     82 H82       -56.0271  -27.5277    7.4214 H         1 UNK         0.0889 
     83 H83       -55.9778  -27.2708    5.6761 H         1 UNK         0.0889 
     84 H84       -55.7179  -25.9148    6.7741 H         1 UNK         0.0889 
     85 H85       -54.1075  -28.1926    4.8507 H         1 UNK         0.3028 
     86 H86       -51.7151  -28.5093    6.4488 H         1 UNK         0.0864 
     87 H87       -52.1937  -29.1948    3.4998 H         1 UNK         0.0720 
     88 H88       -52.5346  -30.2729    4.8219 H         1 UNK         0.0720 
     89 H89       -49.2061  -31.8720    5.7439 H         1 UNK         0.0814 
     90 H90       -50.9277  -32.0980    5.5445 H         1 UNK         0.0814 
     91 H91       -48.4348  -29.7947    7.1627 H         1 UNK         0.1469 
     92 H92       -51.0506  -28.7655   10.4017 H         1 UNK         0.1381 
     93 H93       -52.3802  -31.4627    7.3443 H         1 UNK         0.1206 
     94 H94       -53.9129  -30.7962    9.0011 H         1 UNK         0.0813 
     95 H95       -53.6177  -29.1923    9.6339 H         1 UNK         0.0813 
     96 H96       -54.9242  -30.9755   12.9055 H         1 UNK         0.0638 
     97 H97       -55.2843  -31.9855   11.5342 H         1 UNK         0.0638 
     98 H98       -55.9511  -30.0339   10.1855 H         1 UNK         0.0568 
     99 H99       -57.4235  -28.4152   12.8518 H         1 UNK         0.3450 
    100 H100      -58.8529  -29.4178   12.9075 H         1 UNK         0.3450 
    101 H101      -54.6391  -28.4651   12.2203 H         1 UNK         0.2987 
    102 H102      -53.8957  -26.3953   11.0253 H         1 UNK         0.0766 
    103 H103      -55.1889  -25.2228    9.2648 H         1 UNK         0.0798 
    104 H104      -54.6902  -24.1057   10.5207 H         1 UNK         0.0798 
    105 H105      -56.3610  -24.6713   10.4548 H         1 UNK         0.0798 
    106 H106      -55.6105  -24.9229   12.7976 H         1 UNK         0.3198 
    107 H107      -54.6452  -24.6583   14.9344 H         1 UNK         0.0843 
    108 H108      -56.1129  -27.2407   15.7771 H         1 UNK         0.0831 
    109 H109      -56.8744  -25.8193   15.0735 H         1 UNK         0.0831 
    110 H110      -56.1491  -25.7211   16.6697 H         1 UNK         0.0831 
    111 H111      -53.1851  -27.0801   15.5434 H         1 UNK         0.3133 
    112 H112      -51.8223  -26.1267   18.4846 H         1 UNK         0.0566 
    113 H113      -51.1826  -27.6102   15.8671 H         1 UNK         0.0814 
    114 H114      -52.2007  -28.2331   17.1680 H         1 UNK         0.0814 
    115 H115      -50.4936  -27.9560   17.4458 H         1 UNK         0.0814 
    116 H116      -50.6577  -24.7085   16.2159 H         1 UNK         0.3091 
    117 H117      -48.5208  -23.1640   17.8695 H         1 UNK         0.0702 
    118 H118      -46.2060  -23.9381   17.2039 H         1 UNK         0.0785 
    119 H119      -46.7942  -25.6005   17.2042 H         1 UNK         0.0785 
    120 H120      -46.7900  -24.6664   18.6899 H         1 UNK         0.0785 
    121 H121      -48.3205  -24.6500   15.2767 H         1 UNK         0.2998 
    122 H122      -49.8760  -21.9428   13.5835 H         1 UNK         0.0697 
    123 H123      -47.8968  -21.9445   12.0818 H         1 UNK         0.0825 
    124 H124      -46.9213  -22.7142   13.3302 H         1 UNK         0.0825 
    125 H125      -47.5388  -21.0875   13.5722 H         1 UNK         0.0825 
    126 H126      -48.7293  -24.2542   12.4728 H         1 UNK         0.3029 
    127 H127      -51.6237  -26.3534   12.8440 H         1 UNK         0.0897 
    128 H128      -51.3532  -26.2363   10.3761 H         1 UNK         0.0792 
    129 H129      -51.9833  -24.7153   10.9875 H         1 UNK         0.0792 
    130 H130      -50.2903  -24.8427   10.5291 H         1 UNK         0.0792 
    131 H131      -48.7350  -26.2188   12.0593 H         1 UNK         0.3086 
    132 H132      -48.0705  -29.0902   13.9199 H         1 UNK         0.0583 
    133 H133      -47.4032  -30.4721   12.2274 H         1 UNK         0.1020 
    134 H134      -48.9797  -30.1119   11.6269 H         1 UNK         0.1020 
    135 H135      -48.9974  -27.4873   10.0155 H         1 UNK         0.0694 
    136 H136      -48.1065  -27.7337    8.5508 H         1 UNK         0.0694 
    137 H137      -46.3689  -27.7165   12.1554 H         1 UNK         0.2989 
    138 H138      -45.8398  -24.7419   13.9771 H         1 UNK         0.1055 
    139 H139      -43.4830  -25.4659   14.0478 H         1 UNK         0.0806 
    140 H140      -43.9453  -27.1319   13.6963 H         1 UNK         0.0806 
    141 H141      -44.4149  -26.3834   15.2168 H         1 UNK         0.0806 
    142 H142      -44.4044  -25.4769   11.7688 H         1 UNK         0.3061 
    143 H143      -45.0255  -23.9657    9.8484 H         1 UNK         0.0734 
    144 H144      -45.9748  -26.7561    8.9752 H         1 UNK         0.0832 
    145 H145      -44.8909  -25.7171    8.0607 H         1 UNK         0.0832 
    146 H146      -44.3803  -26.3725    9.6047 H         1 UNK         0.0832 
    147 H147      -47.6577  -24.8847    8.7508 H         1 UNK         0.3156 
    148 H148      -49.3653  -22.8736    8.9164 H         1 UNK         0.0589 
    149 H149      -49.7838  -20.9465    7.4027 H         1 UNK         0.0808 
    150 H150      -48.0571  -20.8190    7.0624 H         1 UNK         0.0808 
    151 H151      -48.6677  -20.5106    8.6824 H         1 UNK         0.0808 
    152 H152      -48.8028  -22.9717    6.0821 H         1 UNK         0.3098 
    153 H153      -50.0522  -24.6515    4.9851 H         1 UNK         0.0720 
    154 H154      -47.6364  -26.4908    5.5249 H         1 UNK         0.0791 
    155 H155      -47.5633  -24.9150    4.7461 H         1 UNK         0.0791 
    156 H156      -48.3893  -26.2450    3.9506 H         1 UNK         0.0791 
    157 H157      -50.2008  -27.0146    6.7039 H         1 UNK         0.3028 
@<TRIPOS>BOND
     1    1    2 1    
     2    1   82 1    
     3    1   83 1    
     4    1   84 1    
     5    2    3 2    
     6    2    4 am   BACKBONE|DICT|INTERRES
     7    4    5 1    
     8    4   85 1    
     9    5    6 1    
    10    5   80 1    
    11    5   86 1    
    12    6    7 1    
    13    6   87 1    
    14    6   88 1    
    15    7    8 1    
    16    8    9 1    
    17    8   89 1    
    18    8   90 1    
    19    9   10 ar   
    20    9   14 ar   
    21   10   11 ar   
    22   10   91 1    
    23   11   12 ar   
    24   11   58 1    
    25   12   13 ar   
    26   12   92 1    
    27   13   14 ar   
    28   13   15 1    
    29   14   93 1    
    30   15   16 1    
    31   15   94 1    
    32   15   95 1    
    33   16   17 1    
    34   17   18 1    
    35   17   96 1    
    36   17   97 1    
    37   18   19 1    
    38   18   22 1    
    39   18   98 1    
    40   19   20 am   BACKBONE|DICT|INTERRES
    41   19   21 2    
    42   20   99 1    
    43   20  100 1    
    44   22   23 am   BACKBONE|DICT|INTERRES
    45   22  101 1    
    46   23   24 2    
    47   23   25 1    
    48   25   26 1    
    49   25   27 1    
    50   25  102 1    
    51   26  103 1    
    52   26  104 1    
    53   26  105 1    
    54   27   28 am   BACKBONE|DICT|INTERRES
    55   27  106 1    
    56   28   29 2    
    57   28   30 1    
    58   30   31 1    
    59   30   32 1    
    60   30  107 1    
    61   31  108 1    
    62   31  109 1    
    63   31  110 1    
    64   32   33 am   BACKBONE|DICT|INTERRES
    65   32  111 1    
    66   33   34 2    
    67   33   35 1    
    68   35   36 1    
    69   35   37 1    
    70   35  112 1    
    71   36  113 1    
    72   36  114 1    
    73   36  115 1    
    74   37   38 am   BACKBONE|DICT|INTERRES
    75   37  116 1    
    76   38   39 2    
    77   38   40 1    
    78   40   41 1    
    79   40   42 1    
    80   40  117 1    
    81   41  118 1    
    82   41  119 1    
    83   41  120 1    
    84   42   43 am   BACKBONE|DICT|INTERRES
    85   42  121 1    
    86   43   44 2    
    87   43   45 1    
    88   45   46 1    
    89   45   47 1    
    90   45  122 1    
    91   46  123 1    
    92   46  124 1    
    93   46  125 1    
    94   47   48 am   BACKBONE|DICT|INTERRES
    95   47  126 1    
    96   48   49 2    
    97   48   50 1    
    98   50   51 1    
    99   50   52 1    
   100   50  127 1    
   101   51  128 1    
   102   51  129 1    
   103   51  130 1    
   104   52   53 am   BACKBONE|DICT|INTERRES
   105   52  131 1    
   106   53   54 2    
   107   53   55 1    
   108   55   56 1    
   109   55   59 1    
   110   55  132 1    
   111   56   57 1    
   112   56  133 1    
   113   56  134 1    
   114   57   58 1    
   115   58  135 1    
   116   58  136 1    
   117   59   60 am   BACKBONE|DICT|INTERRES
   118   59  137 1    
   119   60   61 2    
   120   60   62 1    
   121   62   63 1    
   122   62   64 1    
   123   62  138 1    
   124   63  139 1    
   125   63  140 1    
   126   63  141 1    
   127   64   65 am   BACKBONE|DICT|INTERRES
   128   64  142 1    
   129   65   66 2    
   130   65   67 1    
   131   67   68 1    
   132   67   69 1    
   133   67  143 1    
   134   68  144 1    
   135   68  145 1    
   136   68  146 1    
   137   69   70 am   BACKBONE|DICT|INTERRES
   138   69  147 1    
   139   70   71 2    
   140   70   72 1    
   141   72   73 1    
   142   72   74 1    
   143   72  148 1    
   144   73  149 1    
   145   73  150 1    
   146   73  151 1    
   147   74   75 am   BACKBONE|DICT|INTERRES
   148   74  152 1    
   149   75   76 2    
   150   75   77 1    
   151   77   78 1    
   152   77   79 1    
   153   77  153 1    
   154   78  154 1    
   155   78  155 1    
   156   78  156 1    
   157   79   80 am   BACKBONE|DICT|INTERRES
   158   79  157 1    
   159   80   81 2    
@<TRIPOS>SUBSTRUCTURE
     1 UNK         1 GROUP             0       ****    0 ROOT    
