@<TRIPOS>MOLECULE
3R207
157   159    1
SMALL
USER_CHARGES


@<TRIPOS>ATOM
      1 CA        -44.3005  -30.5587    3.4374 C.3       0 UNK        -0.1975 
      2 C         -45.6961  -29.9959    3.6633 C.2       0 UNK         0.4852 
      3 O         -46.3098  -29.4900    2.7231 O.2       0 UNK        -0.5216 
      4 N         -46.2003  -30.0819    4.9029 N.am      1 UNK        -0.4461 
      5 CA        -47.5191  -29.5793    5.3145 C.3       1 UNK         0.0864 
      6 C6        -47.9366  -30.1929    6.6759 C.3       14 UNK        -0.0898 
      7 S7        -49.7450  -30.2462    6.8966 S.3       14 UNK        -0.2598 
      8 C8        -49.9403  -29.4379    8.5136 C.3       14 UNK         0.0286 
      9 C9        -51.3093  -28.7934    8.6284 C.ar      14 UNK        -0.0844 
     10 C10       -51.5141  -27.5331    8.0664 C.ar      14 UNK        -0.0881 
     11 C11       -52.7477  -26.8920    8.1894 C.ar      14 UNK        -0.0643 
     12 C12       -53.7964  -27.5398    8.8501 C.ar      14 UNK        -0.0930 
     13 C13       -53.6136  -28.8173    9.3910 C.ar      14 UNK        -0.0827 
     14 C14       -52.3625  -29.4365    9.2867 C.ar      14 UNK        -0.1249 
     15 C15       -54.7811  -29.5412   10.0473 C.3       14 UNK         0.0141 
     16 S16       -55.1115  -28.9420   11.7334 S.3       14 UNK        -0.2313 
     17 C17       -56.5364  -29.9959   12.1584 C.3       14 UNK        -0.0915 
     18 CA        -57.3174  -29.5205   13.4136 C.3       13 UNK         0.0968 
     19 C         -58.6691  -30.2887   13.5177 C.2       13 UNK         0.5732 
     20 N         -58.8343  -31.2264   14.4437 N.am      13 UNK        -0.7310 
     21 O         -59.5849  -30.0255   12.7418 O.2       13 UNK        -0.5035 
     22 N         -56.4856  -29.5658   14.6302 N.am      13 UNK        -0.4233 
     23 C         -56.8265  -29.0402   15.8160 C.2       13 UNK         0.4989 
     24 O         -57.8618  -28.4010   16.0079 O.2       13 UNK        -0.4996 
     25 CA        -55.8632  -29.2573   16.9942 C.3       12 UNK         0.0216 
     26 CB        -54.9358  -30.4790   16.8269 C.3       12 UNK        -0.1964 
     27 N         -55.0517  -28.0549   17.1356 N.am      12 UNK        -0.4276 
     28 C         -55.1369  -27.1544   18.1239 C.2       12 UNK         0.5020 
     29 O         -55.8550  -27.2904   19.1159 O.2       12 UNK        -0.5489 
     30 CA        -54.2784  -25.8779   17.9942 C.3       11 UNK         0.0294 
     31 CB        -53.0147  -25.9908   18.8616 C.3       11 UNK        -0.2019 
     32 N         -53.8882  -25.5804   16.6126 N.am      11 UNK        -0.4493 
     33 C         -54.7439  -25.2075   15.6481 C.2       11 UNK         0.4932 
     34 O         -55.9201  -24.9147   15.8645 O.2       11 UNK        -0.5029 
     35 CA        -54.2308  -25.1843   14.1940 C.3       10 UNK         0.0280 
     36 CB        -54.0319  -23.7345   13.7224 C.3       10 UNK        -0.1976 
     37 N         -53.0004  -25.9467   13.9478 N.am      10 UNK        -0.4242 
     38 C         -52.8144  -27.2509   14.2026 C.2       10 UNK         0.5072 
     39 O         -53.6747  -27.9812   14.6915 O.2       10 UNK        -0.5224 
     40 CA        -51.4203  -27.8372   13.9363 C.3       9 UNK         0.0343 
     41 CB        -51.3398  -28.4053   12.5117 C.3       9 UNK        -0.2003 
     42 N         -50.3180  -26.8973   14.1586 N.am      9 UNK        -0.4272 
     43 C         -50.0286  -26.2914   15.3202 C.2       9 UNK         0.4988 
     44 O         -50.7113  -26.3998   16.3396 O.2       9 UNK        -0.5108 
     45 CA        -48.7674  -25.4133   15.3454 C.3       8 UNK         0.0248 
     46 CB        -47.4935  -26.2748   15.3256 C.3       8 UNK        -0.2001 
     47 N         -48.7499  -24.4813   14.2187 N.am      8 UNK        -0.4140 
     48 C         -49.3572  -23.2865   14.2196 C.2       8 UNK         0.5028 
     49 O         -49.9007  -22.7942   15.2092 O.2       8 UNK        -0.5428 
     50 CA        -49.3852  -22.5076   12.8895 C.3       7 UNK         0.0264 
     51 CB        -48.1785  -21.5605   12.7936 C.3       7 UNK        -0.1988 
     52 N         -49.4296  -23.3527   11.6920 N.am      7 UNK        -0.4454 
     53 C         -50.3737  -24.2691   11.4300 C.2       7 UNK         0.5027 
     54 O         -51.3195  -24.5083   12.1789 O.2       7 UNK        -0.5083 
     55 CA        -50.1934  -25.1080   10.1491 C.3       6 UNK         0.0844 
     56 C56       -50.6881  -24.3389    8.8962 C.3       14 UNK        -0.0967 
     57 S57       -52.5093  -24.2053    8.8079 S.3       14 UNK        -0.2604 
     58 C58       -52.9408  -25.5018    7.6053 C.3       14 UNK         0.0134 
     59 N         -48.8190  -25.6067    9.9944 N.am      6 UNK        -0.4116 
     60 C         -48.1350  -26.3165   10.9072 C.2       5 UNK         0.5034 
     61 O         -48.6016  -26.6867   11.9820 O.2       5 UNK        -0.5045 
     62 CA        -46.6567  -26.6060   10.6124 C.3       5 UNK         0.0224 
     63 CB        -46.4903  -27.8347    9.7048 C.3       5 UNK        -0.1978 
     64 N         -46.0010  -25.4413   10.0184 N.am      5 UNK        -0.4737 
     65 C         -45.6190  -24.3627   10.7176 C.2       4 UNK         0.5027 
     66 O         -45.6791  -24.2877   11.9445 O.2       4 UNK        -0.5211 
     67 CA        -45.1138  -23.1524    9.9116 C.3       4 UNK         0.0297 
     68 CB        -43.5983  -23.2559    9.6785 C.3       4 UNK        -0.1993 
     69 N         -45.7969  -22.9976    8.6239 N.am      4 UNK        -0.4486 
     70 C         -47.0986  -22.7077    8.4842 C.2       3 UNK         0.4961 
     71 O         -47.8515  -22.4755    9.4295 O.2       3 UNK        -0.5105 
     72 CA        -47.6692  -22.7377    7.0533 C.3       3 UNK         0.0299 
     73 CB        -47.5378  -21.3555    6.3955 C.3       3 UNK        -0.1972 
     74 N         -47.0542  -23.7550    6.1908 N.am      3 UNK        -0.4305 
     75 C         -47.0437  -25.0732    6.4378 C.2       2 UNK         0.5006 
     76 O         -47.5703  -25.5828    7.4285 O.2       2 UNK        -0.5106 
     77 CA        -46.2329  -25.9338    5.4533 C.3       2 UNK         0.0296 
     78 CB        -44.7266  -25.6708    5.6346 C.3       2 UNK        -0.2002 
     79 N         -46.4600  -27.3757    5.5857 N.am      2 UNK        -0.4032 
     80 C         -47.5938  -28.0310    5.2928 C.2       1 UNK         0.5000 
     81 O         -48.6372  -27.4737    4.9458 O.2       1 UNK        -0.5238 
     82 H82       -43.8771  -30.9804    4.3488 H         1 UNK         0.0889 
     83 H83       -43.6323  -29.7735    3.0848 H         1 UNK         0.0889 
     84 H84       -44.3309  -31.3445    2.6831 H         1 UNK         0.0889 
     85 H85       -45.6516  -30.5251    5.6265 H         1 UNK         0.3028 
     86 H86       -48.2261  -29.9326    4.5599 H         1 UNK         0.0864 
     87 H87       -47.5996  -31.2292    6.7355 H         1 UNK         0.0720 
     88 H88       -47.4497  -29.6813    7.5064 H         1 UNK         0.0720 
     89 H89       -49.7841  -30.1668    9.3103 H         1 UNK         0.0814 
     90 H90       -49.1804  -28.6668    8.6442 H         1 UNK         0.0814 
     91 H91       -50.7012  -27.0480    7.5431 H         1 UNK         0.1469 
     92 H92       -54.7577  -27.0526    8.9396 H         1 UNK         0.1381 
     93 H93       -52.2106  -30.4206    9.7085 H         1 UNK         0.1206 
     94 H94       -54.5898  -30.6149   10.0818 H         1 UNK         0.0813 
     95 H95       -55.6749  -29.4092    9.4357 H         1 UNK         0.0813 
     96 H96       -56.1831  -31.0198   12.2936 H         1 UNK         0.0638 
     97 H97       -57.1968  -30.0134   11.2888 H         1 UNK         0.0638 
     98 H98       -57.5839  -28.4735   13.2573 H         1 UNK         0.0568 
     99 H99       -59.7151  -31.7127   14.5006 H         1 UNK         0.3450 
    100 H100      -58.0891  -31.4551   15.0808 H         1 UNK         0.3450 
    101 H101      -55.5892  -30.0198   14.5384 H         1 UNK         0.2987 
    102 H102      -56.4746  -29.4179   17.8845 H         1 UNK         0.0766 
    103 H103      -54.3500  -30.6448   17.7312 H         1 UNK         0.0798 
    104 H104      -54.2313  -30.3585   16.0030 H         1 UNK         0.0798 
    105 H105      -55.5098  -31.3891   16.6476 H         1 UNK         0.0798 
    106 H106      -54.4668  -27.8425   16.3277 H         1 UNK         0.3198 
    107 H107      -54.8756  -25.0420   18.3648 H         1 UNK         0.0843 
    108 H108      -52.4196  -25.0784   18.8195 H         1 UNK         0.0831 
    109 H109      -52.3807  -26.8195   18.5433 H         1 UNK         0.0831 
    110 H110      -53.2735  -26.1616   19.9075 H         1 UNK         0.0831 
    111 H111      -52.9315  -25.7946   16.3552 H         1 UNK         0.3133 
    112 H112      -55.0109  -25.6375   13.5791 H         1 UNK         0.0566 
    113 H113      -53.8412  -23.6908   12.6499 H         1 UNK         0.0814 
    114 H114      -54.9197  -23.1301   13.9136 H         1 UNK         0.0814 
    115 H115      -53.1933  -23.2579   14.2321 H         1 UNK         0.0814 
    116 H116      -52.2492  -25.4408   13.4809 H         1 UNK         0.3091 
    117 H117      -51.2783  -28.6631   14.6360 H         1 UNK         0.0702 
    118 H118      -52.0974  -29.1745   12.3573 H         1 UNK         0.0785 
    119 H119      -50.3702  -28.8625   12.3146 H         1 UNK         0.0785 
    120 H120      -51.5070  -27.6331   11.7610 H         1 UNK         0.0785 
    121 H121      -49.6922  -26.7548   13.3668 H         1 UNK         0.2998 
    122 H122      -48.7706  -24.8487   16.2804 H         1 UNK         0.0697 
    123 H123      -47.4122  -26.8679   14.4141 H         1 UNK         0.0825 
    124 H124      -47.4802  -26.9682   16.1675 H         1 UNK         0.0825 
    125 H125      -46.5985  -25.6570   15.4006 H         1 UNK         0.0825 
    126 H126      -48.3524  -24.8192   13.3523 H         1 UNK         0.3029 
    127 H127      -50.2954  -21.9043   12.8900 H         1 UNK         0.0897 
    128 H128      -48.2347  -20.9349   11.9024 H         1 UNK         0.0792 
    129 H129      -48.1346  -20.8937   13.6558 H         1 UNK         0.0792 
    130 H130      -47.2375  -22.1107   12.7568 H         1 UNK         0.0792 
    131 H131      -48.7185  -23.1787   10.9849 H         1 UNK         0.3086 
    132 H132      -50.8144  -25.9962   10.2667 H         1 UNK         0.0583 
    133 H133      -50.2799  -23.3279    8.8753 H         1 UNK         0.1020 
    134 H134      -50.3237  -24.8146    7.9854 H         1 UNK         0.1020 
    135 H135      -53.9812  -25.3688    7.3049 H         1 UNK         0.0694 
    136 H136      -52.3456  -25.3795    6.6990 H         1 UNK         0.0694 
    137 H137      -48.3549  -25.4011    9.1135 H         1 UNK         0.2989 
    138 H138      -46.1718  -26.8303   11.5657 H         1 UNK         0.1055 
    139 H139      -46.9684  -28.7106   10.1453 H         1 UNK         0.0806 
    140 H140      -45.4377  -28.0792    9.5617 H         1 UNK         0.0806 
    141 H141      -46.9322  -27.6809    8.7220 H         1 UNK         0.0806 
    142 H142      -45.9789  -25.4006    9.0087 H         1 UNK         0.3061 
    143 H143      -45.3098  -22.2566   10.5053 H         1 UNK         0.0734 
    144 H144      -43.2111  -22.3677    9.1791 H         1 UNK         0.0832 
    145 H145      -43.0652  -23.3504   10.6257 H         1 UNK         0.0832 
    146 H146      -43.3391  -24.1245    9.0716 H         1 UNK         0.0832 
    147 H147      -45.2501  -23.1601    7.7913 H         1 UNK         0.3156 
    148 H148      -48.7312  -22.9751    7.1248 H         1 UNK         0.0589 
    149 H149      -46.4944  -21.0682    6.2588 H         1 UNK         0.0808 
    150 H150      -48.0244  -21.3313    5.4203 H         1 UNK         0.0808 
    151 H151      -48.0095  -20.5861    7.0087 H         1 UNK         0.0808 
    152 H152      -46.5938  -23.4172    5.3573 H         1 UNK         0.3098 
    153 H153      -46.5225  -25.6458    4.4406 H         1 UNK         0.0720 
    154 H154      -44.1361  -26.2434    4.9187 H         1 UNK         0.0791 
    155 H155      -44.3877  -25.9387    6.6365 H         1 UNK         0.0791 
    156 H156      -44.4797  -24.6203    5.4766 H         1 UNK         0.0791 
    157 H157      -45.6626  -27.9272    5.8635 H         1 UNK         0.3028 
@<TRIPOS>BOND
     1    1    2 1    
     2    1   82 1    
     3    1   83 1    
     4    1   84 1    
     5    2    3 2    
     6    2    4 am   BACKBONE|DICT|INTERRES
     7    4    5 1    
     8    4   85 1    
     9    5    6 1    
    10    5   80 1    
    11    5   86 1    
    12    6    7 1    
    13    6   87 1    
    14    6   88 1    
    15    7    8 1    
    16    8    9 1    
    17    8   89 1    
    18    8   90 1    
    19    9   10 ar   
    20    9   14 ar   
    21   10   11 ar   
    22   10   91 1    
    23   11   12 ar   
    24   11   58 1    
    25   12   13 ar   
    26   12   92 1    
    27   13   14 ar   
    28   13   15 1    
    29   14   93 1    
    30   15   16 1    
    31   15   94 1    
    32   15   95 1    
    33   16   17 1    
    34   17   18 1    
    35   17   96 1    
    36   17   97 1    
    37   18   19 1    
    38   18   22 1    
    39   18   98 1    
    40   19   20 am   BACKBONE|DICT|INTERRES
    41   19   21 2    
    42   20   99 1    
    43   20  100 1    
    44   22   23 am   BACKBONE|DICT|INTERRES
    45   22  101 1    
    46   23   24 2    
    47   23   25 1    
    48   25   26 1    
    49   25   27 1    
    50   25  102 1    
    51   26  103 1    
    52   26  104 1    
    53   26  105 1    
    54   27   28 am   BACKBONE|DICT|INTERRES
    55   27  106 1    
    56   28   29 2    
    57   28   30 1    
    58   30   31 1    
    59   30   32 1    
    60   30  107 1    
    61   31  108 1    
    62   31  109 1    
    63   31  110 1    
    64   32   33 am   BACKBONE|DICT|INTERRES
    65   32  111 1    
    66   33   34 2    
    67   33   35 1    
    68   35   36 1    
    69   35   37 1    
    70   35  112 1    
    71   36  113 1    
    72   36  114 1    
    73   36  115 1    
    74   37   38 am   BACKBONE|DICT|INTERRES
    75   37  116 1    
    76   38   39 2    
    77   38   40 1    
    78   40   41 1    
    79   40   42 1    
    80   40  117 1    
    81   41  118 1    
    82   41  119 1    
    83   41  120 1    
    84   42   43 am   BACKBONE|DICT|INTERRES
    85   42  121 1    
    86   43   44 2    
    87   43   45 1    
    88   45   46 1    
    89   45   47 1    
    90   45  122 1    
    91   46  123 1    
    92   46  124 1    
    93   46  125 1    
    94   47   48 am   BACKBONE|DICT|INTERRES
    95   47  126 1    
    96   48   49 2    
    97   48   50 1    
    98   50   51 1    
    99   50   52 1    
   100   50  127 1    
   101   51  128 1    
   102   51  129 1    
   103   51  130 1    
   104   52   53 am   BACKBONE|DICT|INTERRES
   105   52  131 1    
   106   53   54 2    
   107   53   55 1    
   108   55   56 1    
   109   55   59 1    
   110   55  132 1    
   111   56   57 1    
   112   56  133 1    
   113   56  134 1    
   114   57   58 1    
   115   58  135 1    
   116   58  136 1    
   117   59   60 am   BACKBONE|DICT|INTERRES
   118   59  137 1    
   119   60   61 2    
   120   60   62 1    
   121   62   63 1    
   122   62   64 1    
   123   62  138 1    
   124   63  139 1    
   125   63  140 1    
   126   63  141 1    
   127   64   65 am   BACKBONE|DICT|INTERRES
   128   64  142 1    
   129   65   66 2    
   130   65   67 1    
   131   67   68 1    
   132   67   69 1    
   133   67  143 1    
   134   68  144 1    
   135   68  145 1    
   136   68  146 1    
   137   69   70 am   BACKBONE|DICT|INTERRES
   138   69  147 1    
   139   70   71 2    
   140   70   72 1    
   141   72   73 1    
   142   72   74 1    
   143   72  148 1    
   144   73  149 1    
   145   73  150 1    
   146   73  151 1    
   147   74   75 am   BACKBONE|DICT|INTERRES
   148   74  152 1    
   149   75   76 2    
   150   75   77 1    
   151   77   78 1    
   152   77   79 1    
   153   77  153 1    
   154   78  154 1    
   155   78  155 1    
   156   78  156 1    
   157   79   80 am   BACKBONE|DICT|INTERRES
   158   79  157 1    
   159   80   81 2    
@<TRIPOS>SUBSTRUCTURE
     1 UNK         1 GROUP             0       ****    0 ROOT    
