@<TRIPOS>MOLECULE
3R207
157   159    1
SMALL
USER_CHARGES


@<TRIPOS>ATOM
      1 CA        -48.0924  -31.9674   10.2230 C.3       0 UNK        -0.1975 
      2 C         -48.6188  -31.5335    8.8628 C.2       0 UNK         0.4852 
      3 O         -48.8140  -32.3744    7.9843 O.2       0 UNK        -0.5216 
      4 N         -48.8471  -30.2294    8.6848 N.am      1 UNK        -0.4461 
      5 CA        -49.3420  -29.6054    7.4623 C.3       1 UNK         0.0864 
      6 C6        -50.8700  -29.8174    7.2792 C.3       14 UNK        -0.0898 
      7 S7        -51.5444  -29.1391    5.7267 S.3       14 UNK        -0.2598 
      8 C8        -53.3256  -29.0235    6.1263 C.3       14 UNK         0.0286 
      9 C9        -53.6521  -28.0732    7.2786 C.ar      14 UNK        -0.0844 
     10 C10       -53.0521  -26.8117    7.3621 C.ar      14 UNK        -0.0881 
     11 C11       -53.3484  -25.9451    8.4214 C.ar      14 UNK        -0.0643 
     12 C12       -54.2908  -26.3436    9.3727 C.ar      14 UNK        -0.0930 
     13 C13       -54.9112  -27.5936    9.3093 C.ar      14 UNK        -0.0827 
     14 C14       -54.5819  -28.4553    8.2535 C.ar      14 UNK        -0.1249 
     15 C15       -55.9421  -27.9314   10.3924 C.3       14 UNK         0.0141 
     16 S16       -56.5150  -29.6634   10.4697 S.3       14 UNK        -0.2313 
     17 C17       -55.0782  -30.5154   11.2009 C.3       14 UNK        -0.0915 
     18 CA        -55.3164  -30.9309   12.6783 C.3       13 UNK         0.0968 
     19 C         -54.3066  -32.0192   13.1544 C.2       13 UNK         0.5732 
     20 N         -53.7153  -31.9273   14.3402 N.am      13 UNK        -0.7310 
     21 O         -54.0643  -32.9891   12.4397 O.2       13 UNK        -0.5035 
     22 N         -55.3693  -29.7561   13.5631 N.am      13 UNK        -0.4233 
     23 C         -56.1610  -29.6382   14.6346 C.2       13 UNK         0.4989 
     24 O         -57.0185  -30.4666   14.9483 O.2       13 UNK        -0.4996 
     25 CA        -55.9281  -28.3925   15.5142 C.3       12 UNK         0.0216 
     26 CB        -56.7652  -28.4042   16.8106 C.3       12 UNK        -0.1964 
     27 N         -54.5105  -28.1647   15.8262 N.am      12 UNK        -0.4276 
     28 C         -53.6500  -29.0165   16.4071 C.2       12 UNK         0.5020 
     29 O         -53.9559  -30.1560   16.7597 O.2       12 UNK        -0.5489 
     30 CA        -52.1891  -28.5577   16.5994 C.3       11 UNK         0.0294 
     31 CB        -51.2439  -29.4271   15.7547 C.3       11 UNK        -0.2019 
     32 N         -51.9598  -27.1485   16.2700 N.am      11 UNK        -0.4493 
     33 C         -52.3288  -26.1129   17.0367 C.2       11 UNK         0.4932 
     34 O         -52.8316  -26.2297   18.1541 O.2       11 UNK        -0.5029 
     35 CA        -52.1575  -24.7118   16.4260 C.3       10 UNK         0.0280 
     36 CB        -50.7450  -24.1645   16.6874 C.3       10 UNK        -0.1976 
     37 N         -52.4406  -24.6983   14.9874 N.am      10 UNK        -0.4242 
     38 C         -53.6538  -24.9002   14.4515 C.2       10 UNK         0.5072 
     39 O         -54.6754  -25.0790   15.1142 O.2       10 UNK        -0.5224 
     40 CA        -53.7334  -24.9650   12.9195 C.3       9 UNK         0.0343 
     41 CB        -53.7514  -23.5485   12.3217 C.3       9 UNK        -0.2003 
     42 N         -52.6384  -25.7549   12.3475 N.am      9 UNK        -0.4272 
     43 C         -52.5399  -27.0893   12.4756 C.2       9 UNK         0.4988 
     44 O         -53.4096  -27.7852   12.9999 O.2       9 UNK        -0.5108 
     45 CA        -51.2558  -27.7784   11.9766 C.3       8 UNK         0.0248 
     46 CB        -51.4530  -28.3411   10.5693 C.3       8 UNK        -0.2001 
     47 N         -50.0681  -26.9278   11.9753 N.am      8 UNK        -0.4140 
     48 C         -49.5588  -26.3141   13.0503 C.2       8 UNK         0.5028 
     49 O         -49.9817  -26.4864   14.1943 O.2       8 UNK        -0.5428 
     50 CA        -48.4384  -25.2869   12.8048 C.3       7 UNK         0.0264 
     51 CB        -47.0678  -25.8972   13.1307 C.3       7 UNK        -0.1988 
     52 N         -48.4073  -24.7037   11.4544 N.am      7 UNK        -0.4454 
     53 C         -49.4253  -24.0659   10.8541 C.2       7 UNK         0.5027 
     54 O         -50.5464  -23.9493   11.3535 O.2       7 UNK        -0.5083 
     55 CA        -49.1028  -23.4341    9.4856 C.3       6 UNK         0.0844 
     56 C56       -50.3445  -22.9876    8.6645 C.3       14 UNK        -0.0967 
     57 S57       -51.0776  -24.3868    7.7499 S.3       14 UNK        -0.2604 
     58 C58       -52.6866  -24.5759    8.5861 C.3       14 UNK         0.0134 
     59 N         -48.1033  -22.3793    9.6593 N.am      6 UNK        -0.4116 
     60 C         -48.2547  -21.2118   10.3025 C.2       5 UNK         0.5034 
     61 O         -49.3314  -20.8005   10.7367 O.2       5 UNK        -0.5045 
     62 CA        -46.9832  -20.3512   10.4733 C.3       5 UNK         0.0224 
     63 CB        -47.0413  -19.4412   11.7197 C.3       5 UNK        -0.1978 
     64 N         -45.7349  -21.1320   10.4409 N.am      5 UNK        -0.4737 
     65 C         -45.3293  -22.0662   11.3171 C.2       4 UNK         0.5027 
     66 O         -45.9362  -22.3585   12.3474 O.2       4 UNK        -0.5211 
     67 CA        -44.0533  -22.8373   10.9163 C.3       4 UNK         0.0297 
     68 CB        -43.7277  -24.0162   11.8573 C.3       4 UNK        -0.1993 
     69 N         -44.0932  -23.2902    9.5164 N.am      4 UNK        -0.4486 
     70 C         -45.0352  -24.0587    8.9475 C.2       3 UNK         0.4961 
     71 O         -46.0003  -24.5274    9.5576 O.2       3 UNK        -0.5105 
     72 CA        -44.9031  -24.2523    7.4268 C.3       3 UNK         0.0299 
     73 CB        -43.6502  -25.0717    7.0487 C.3       3 UNK        -0.1972 
     74 N         -46.1337  -24.7849    6.8227 N.am      3 UNK        -0.4305 
     75 C         -46.5943  -26.0454    6.8225 C.2       2 UNK         0.5006 
     76 O         -45.9683  -27.0224    7.2415 O.2       2 UNK        -0.5106 
     77 CA        -47.9933  -26.2271    6.1988 C.3       2 UNK         0.0296 
     78 CB        -47.9794  -25.9009    4.6939 C.3       2 UNK        -0.2002 
     79 N         -48.5315  -27.5774    6.3699 N.am      2 UNK        -0.4032 
     80 C         -48.9192  -28.1257    7.5285 C.2       1 UNK         0.5000 
     81 O         -48.9354  -27.5314    8.6127 O.2       1 UNK        -0.5238 
     82 H82       -48.7788  -32.6792   10.6807 H         1 UNK         0.0889 
     83 H83       -47.9763  -31.1238   10.9035 H         1 UNK         0.0889 
     84 H84       -47.1221  -32.4511   10.1133 H         1 UNK         0.0889 
     85 H85       -48.6307  -29.5589    9.4127 H         1 UNK         0.3028 
     86 H86       -48.8227  -30.0673    6.6194 H         1 UNK         0.0864 
     87 H87       -51.1015  -30.8832    7.2940 H         1 UNK         0.0720 
     88 H88       -51.4143  -29.3853    8.1156 H         1 UNK         0.0720 
     89 H89       -53.6937  -30.0277    6.3424 H         1 UNK         0.0814 
     90 H90       -53.8606  -28.6853    5.2381 H         1 UNK         0.0814 
     91 H91       -52.3430  -26.5169    6.6021 H         1 UNK         0.1469 
     92 H92       -54.5429  -25.6717   10.1803 H         1 UNK         0.1381 
     93 H93       -55.0540  -29.4239    8.1755 H         1 UNK         0.1206 
     94 H94       -55.5488  -27.6560   11.3715 H         1 UNK         0.0813 
     95 H95       -56.8170  -27.3009   10.2298 H         1 UNK         0.0813 
     96 H96       -54.8860  -31.3857   10.5713 H         1 UNK         0.0638 
     97 H97       -54.1949  -29.8863   11.1241 H         1 UNK         0.0638 
     98 H98       -56.2855  -31.4317   12.7119 H         1 UNK         0.0568 
     99 H99       -53.0767  -32.6544   14.6185 H         1 UNK         0.3450 
    100 H100      -53.9433  -31.1867   14.9925 H         1 UNK         0.3450 
    101 H101      -54.6658  -29.0394   13.3904 H         1 UNK         0.2987 
    102 H102      -56.2509  -27.5364   14.9196 H         1 UNK         0.0766 
    103 H103      -57.8310  -28.4704   16.5885 H         1 UNK         0.0798 
    104 H104      -56.6114  -27.4927   17.3882 H         1 UNK         0.0798 
    105 H105      -56.5112  -29.2520   17.4479 H         1 UNK         0.0798 
    106 H106      -54.1515  -27.2626   15.5405 H         1 UNK         0.3198 
    107 H107      -51.9383  -28.7065   17.6519 H         1 UNK         0.0843 
    108 H108      -51.5268  -29.4168   14.7032 H         1 UNK         0.0831 
    109 H109      -51.2730  -30.4665   16.0844 H         1 UNK         0.0831 
    110 H110      -50.2096  -29.0908   15.8316 H         1 UNK         0.0831 
    111 H111      -51.4648  -26.9516   15.4031 H         1 UNK         0.3133 
    112 H112      -52.8730  -24.0464   16.9139 H         1 UNK         0.0566 
    113 H113      -50.6329  -23.1520   16.2992 H         1 UNK         0.0814 
    114 H114      -49.9744  -24.7863   16.2310 H         1 UNK         0.0814 
    115 H115      -50.5368  -24.1250   17.7574 H         1 UNK         0.0814 
    116 H116      -51.6473  -24.6142   14.3675 H         1 UNK         0.3091 
    117 H117      -54.6767  -25.4507   12.6606 H         1 UNK         0.0702 
    118 H118      -53.9531  -23.5656   11.2522 H         1 UNK         0.0785 
    119 H119      -52.8064  -23.0273   12.4785 H         1 UNK         0.0785 
    120 H120      -54.5346  -22.9433   12.7805 H         1 UNK         0.0785 
    121 H121      -51.8750  -25.2373   11.9186 H         1 UNK         0.2998 
    122 H122      -51.0579  -28.6156   12.6457 H         1 UNK         0.0697 
    123 H123      -51.4595  -27.5523    9.8167 H         1 UNK         0.0825 
    124 H124      -52.3895  -28.8845   10.4738 H         1 UNK         0.0825 
    125 H125      -50.6542  -29.0372   10.3247 H         1 UNK         0.0825 
    126 H126      -49.6549  -26.7291   11.0738 H         1 UNK         0.3029 
    127 H127      -48.6153  -24.4648   13.5013 H         1 UNK         0.0897 
    128 H128      -46.7644  -26.6343   12.3862 H         1 UNK         0.0792 
    129 H129      -47.0779  -26.3946   14.1019 H         1 UNK         0.0792 
    130 H130      -46.3015  -25.1245   13.1780 H         1 UNK         0.0792 
    131 H131      -47.5172  -24.7378   10.9650 H         1 UNK         0.3086 
    132 H132      -48.5900  -24.2064    8.9099 H         1 UNK         0.0583 
    133 H133      -51.0875  -22.4837    9.2859 H         1 UNK         0.1020 
    134 H134      -50.0464  -22.2513    7.9168 H         1 UNK         0.1020 
    135 H135      -52.5301  -24.3954    9.6484 H         1 UNK         0.0694 
    136 H136      -53.3673  -23.8018    8.2302 H         1 UNK         0.0694 
    137 H137      -47.1619  -22.6499    9.4117 H         1 UNK         0.2989 
    138 H138      -46.9547  -19.6990    9.5987 H         1 UNK         0.1055 
    139 H139      -47.1652  -20.0164   12.6377 H         1 UNK         0.0806 
    140 H140      -47.8807  -18.7473   11.6589 H         1 UNK         0.0806 
    141 H141      -46.1359  -18.8425   11.8176 H         1 UNK         0.0806 
    142 H142      -45.1504  -20.9753    9.6304 H         1 UNK         0.3061 
    143 H143      -43.2332  -22.1217   10.9940 H         1 UNK         0.0734 
    144 H144      -44.4763  -24.8048   11.7926 H         1 UNK         0.0832 
    145 H145      -42.7614  -24.4577   11.6142 H         1 UNK         0.0832 
    146 H146      -43.6814  -23.6910   12.8974 H         1 UNK         0.0832 
    147 H147      -43.3507  -22.9382    8.9269 H         1 UNK         0.3156 
    148 H148      -44.7842  -23.2574    6.9947 H         1 UNK         0.0589 
    149 H149      -43.6118  -26.0266    7.5738 H         1 UNK         0.0808 
    150 H150      -43.6153  -25.2748    5.9784 H         1 UNK         0.0808 
    151 H151      -42.7366  -24.5334    7.3027 H         1 UNK         0.0808 
    152 H152      -46.7436  -24.0786    6.4358 H         1 UNK         0.3098 
    153 H153      -48.6683  -25.5338    6.7002 H         1 UNK         0.0720 
    154 H154      -47.2969  -26.5532    4.1473 H         1 UNK         0.0791 
    155 H155      -47.6661  -24.8731    4.5079 H         1 UNK         0.0791 
    156 H156      -48.9720  -26.0123    4.2565 H         1 UNK         0.0791 
    157 H157      -48.5473  -28.1539    5.5417 H         1 UNK         0.3028 
@<TRIPOS>BOND
     1    1    2 1    
     2    1   82 1    
     3    1   83 1    
     4    1   84 1    
     5    2    3 2    
     6    2    4 am   BACKBONE|DICT|INTERRES
     7    4    5 1    
     8    4   85 1    
     9    5    6 1    
    10    5   80 1    
    11    5   86 1    
    12    6    7 1    
    13    6   87 1    
    14    6   88 1    
    15    7    8 1    
    16    8    9 1    
    17    8   89 1    
    18    8   90 1    
    19    9   10 ar   
    20    9   14 ar   
    21   10   11 ar   
    22   10   91 1    
    23   11   12 ar   
    24   11   58 1    
    25   12   13 ar   
    26   12   92 1    
    27   13   14 ar   
    28   13   15 1    
    29   14   93 1    
    30   15   16 1    
    31   15   94 1    
    32   15   95 1    
    33   16   17 1    
    34   17   18 1    
    35   17   96 1    
    36   17   97 1    
    37   18   19 1    
    38   18   22 1    
    39   18   98 1    
    40   19   20 am   BACKBONE|DICT|INTERRES
    41   19   21 2    
    42   20   99 1    
    43   20  100 1    
    44   22   23 am   BACKBONE|DICT|INTERRES
    45   22  101 1    
    46   23   24 2    
    47   23   25 1    
    48   25   26 1    
    49   25   27 1    
    50   25  102 1    
    51   26  103 1    
    52   26  104 1    
    53   26  105 1    
    54   27   28 am   BACKBONE|DICT|INTERRES
    55   27  106 1    
    56   28   29 2    
    57   28   30 1    
    58   30   31 1    
    59   30   32 1    
    60   30  107 1    
    61   31  108 1    
    62   31  109 1    
    63   31  110 1    
    64   32   33 am   BACKBONE|DICT|INTERRES
    65   32  111 1    
    66   33   34 2    
    67   33   35 1    
    68   35   36 1    
    69   35   37 1    
    70   35  112 1    
    71   36  113 1    
    72   36  114 1    
    73   36  115 1    
    74   37   38 am   BACKBONE|DICT|INTERRES
    75   37  116 1    
    76   38   39 2    
    77   38   40 1    
    78   40   41 1    
    79   40   42 1    
    80   40  117 1    
    81   41  118 1    
    82   41  119 1    
    83   41  120 1    
    84   42   43 am   BACKBONE|DICT|INTERRES
    85   42  121 1    
    86   43   44 2    
    87   43   45 1    
    88   45   46 1    
    89   45   47 1    
    90   45  122 1    
    91   46  123 1    
    92   46  124 1    
    93   46  125 1    
    94   47   48 am   BACKBONE|DICT|INTERRES
    95   47  126 1    
    96   48   49 2    
    97   48   50 1    
    98   50   51 1    
    99   50   52 1    
   100   50  127 1    
   101   51  128 1    
   102   51  129 1    
   103   51  130 1    
   104   52   53 am   BACKBONE|DICT|INTERRES
   105   52  131 1    
   106   53   54 2    
   107   53   55 1    
   108   55   56 1    
   109   55   59 1    
   110   55  132 1    
   111   56   57 1    
   112   56  133 1    
   113   56  134 1    
   114   57   58 1    
   115   58  135 1    
   116   58  136 1    
   117   59   60 am   BACKBONE|DICT|INTERRES
   118   59  137 1    
   119   60   61 2    
   120   60   62 1    
   121   62   63 1    
   122   62   64 1    
   123   62  138 1    
   124   63  139 1    
   125   63  140 1    
   126   63  141 1    
   127   64   65 am   BACKBONE|DICT|INTERRES
   128   64  142 1    
   129   65   66 2    
   130   65   67 1    
   131   67   68 1    
   132   67   69 1    
   133   67  143 1    
   134   68  144 1    
   135   68  145 1    
   136   68  146 1    
   137   69   70 am   BACKBONE|DICT|INTERRES
   138   69  147 1    
   139   70   71 2    
   140   70   72 1    
   141   72   73 1    
   142   72   74 1    
   143   72  148 1    
   144   73  149 1    
   145   73  150 1    
   146   73  151 1    
   147   74   75 am   BACKBONE|DICT|INTERRES
   148   74  152 1    
   149   75   76 2    
   150   75   77 1    
   151   77   78 1    
   152   77   79 1    
   153   77  153 1    
   154   78  154 1    
   155   78  155 1    
   156   78  156 1    
   157   79   80 am   BACKBONE|DICT|INTERRES
   158   79  157 1    
   159   80   81 2    
@<TRIPOS>SUBSTRUCTURE
     1 UNK         1 GROUP             0       ****    0 ROOT    
