@<TRIPOS>MOLECULE
3R207
157   159    1
SMALL
USER_CHARGES


@<TRIPOS>ATOM
      1 CA        -50.0933  -31.0282    2.1105 C.3       0 UNK        -0.1975 
      2 C         -50.0228  -29.8864    3.1142 C.2       0 UNK         0.4852 
      3 O         -50.4894  -28.7847    2.8194 O.2       0 UNK        -0.5216 
      4 N         -49.4513  -30.1442    4.2980 N.am      1 UNK        -0.4461 
      5 CA        -49.2322  -29.1516    5.3553 C.3       1 UNK         0.0864 
      6 C6        -49.1513  -29.8315    6.7498 C.3       14 UNK        -0.0898 
      7 S7        -49.7626  -28.7475    8.0832 S.3       14 UNK        -0.2598 
      8 C8        -51.5230  -29.2057    8.1421 C.3       14 UNK         0.0286 
      9 C9        -52.3350  -28.1570    8.8872 C.ar      14 UNK        -0.0844 
     10 C10       -52.4684  -26.8767    8.3435 C.ar      14 UNK        -0.0881 
     11 C11       -53.1966  -25.8918    9.0140 C.ar      14 UNK        -0.0643 
     12 C12       -53.8263  -26.2038   10.2212 C.ar      14 UNK        -0.0930 
     13 C13       -53.7124  -27.4838   10.7704 C.ar      14 UNK        -0.0827 
     14 C14       -52.9554  -28.4555   10.1055 C.ar      14 UNK        -0.1249 
     15 C15       -54.4042  -27.7977   12.0872 C.3       14 UNK         0.0141 
     16 S16       -56.1159  -28.3537   11.8213 S.3       14 UNK        -0.2313 
     17 C17       -55.8761  -30.1491   11.5796 C.3       14 UNK        -0.0915 
     18 CA        -56.5231  -31.0033   12.7097 C.3       13 UNK         0.0968 
     19 C         -56.3967  -32.5358   12.4521 C.2       13 UNK         0.5732 
     20 N         -56.2765  -33.3709   13.4773 N.am      13 UNK        -0.7310 
     21 O         -56.4440  -32.9841   11.3086 O.2       13 UNK        -0.5035 
     22 N         -56.1358  -30.5651   14.0628 N.am      13 UNK        -0.4233 
     23 C         -54.9094  -30.5762   14.5968 C.2       13 UNK         0.4989 
     24 O         -53.9101  -31.0138   14.0245 O.2       13 UNK        -0.4996 
     25 CA        -54.7888  -29.9583   16.0044 C.3       12 UNK         0.0216 
     26 CB        -53.4105  -30.2111   16.6439 C.3       12 UNK        -0.1964 
     27 N         -55.0586  -28.5150   15.9932 N.am      12 UNK        -0.4276 
     28 C         -56.2762  -27.9580   15.8833 C.2       12 UNK         0.5020 
     29 O         -57.3094  -28.6253   15.7964 O.2       12 UNK        -0.5489 
     30 CA        -56.3910  -26.4225   15.8677 C.3       11 UNK         0.0294 
     31 CB        -57.2301  -25.9275   17.0588 C.3       11 UNK        -0.2019 
     32 N         -55.0878  -25.7584   15.9053 N.am      11 UNK        -0.4493 
     33 C         -54.6052  -24.9208   14.9811 C.2       11 UNK         0.4932 
     34 O         -55.2185  -24.5796   13.9701 O.2       11 UNK        -0.5029 
     35 CA        -53.1896  -24.3684   15.2282 C.3       10 UNK         0.0280 
     36 CB        -53.0259  -23.7654   16.6391 C.3       10 UNK        -0.1976 
     37 N         -52.1282  -25.3389   14.9402 N.am      10 UNK        -0.4242 
     38 C         -51.9180  -26.5341   15.5121 C.2       10 UNK         0.5072 
     39 O         -52.6288  -27.0109   16.3986 O.2       10 UNK        -0.5224 
     40 CA        -50.7123  -27.3442   15.0149 C.3       9 UNK         0.0343 
     41 CB        -51.0668  -28.1099   13.7309 C.3       9 UNK        -0.2003 
     42 N         -49.5217  -26.5219   14.7913 N.am      9 UNK        -0.4272 
     43 C         -48.7888  -25.9695   15.7693 C.2       9 UNK         0.4988 
     44 O         -49.0426  -26.0905   16.9686 O.2       9 UNK        -0.5108 
     45 CA        -47.5510  -25.1599   15.3461 C.3       8 UNK         0.0248 
     46 CB        -46.3941  -26.0958   14.9599 C.3       8 UNK        -0.2001 
     47 N         -47.8238  -24.2296   14.2495 N.am      8 UNK        -0.4140 
     48 C         -48.5927  -23.1365   14.3574 C.2       8 UNK         0.5028 
     49 O         -49.1099  -22.7617   15.4105 O.2       8 UNK        -0.5428 
     50 CA        -48.8431  -22.3266   13.0724 C.3       7 UNK         0.0264 
     51 CB        -47.6824  -21.3557   12.8030 C.3       7 UNK        -0.1988 
     52 N         -49.0721  -23.1601   11.8890 N.am      7 UNK        -0.4454 
     53 C         -50.0804  -24.0374   11.7620 C.2       7 UNK         0.5027 
     54 O         -50.9278  -24.2389   12.6328 O.2       7 UNK        -0.5083 
     55 CA        -50.1166  -24.8723   10.4660 C.3       6 UNK         0.0844 
     56 C56       -50.5824  -24.0417    9.2390 C.3       14 UNK        -0.0967 
     57 S57       -52.2549  -23.3200    9.4064 S.3       14 UNK        -0.2604 
     58 C58       -53.2769  -24.4832    8.4485 C.3       14 UNK         0.0134 
     59 N         -48.8245  -25.5167   10.2173 N.am      6 UNK        -0.4116 
     60 C         -48.1872  -26.3509   11.0523 C.2       5 UNK         0.5034 
     61 O         -48.6532  -26.7512   12.1166 O.2       5 UNK        -0.5045 
     62 CA        -46.7487  -26.7449   10.6814 C.3       5 UNK         0.0224 
     63 CB        -46.7170  -27.8972    9.6684 C.3       5 UNK        -0.1978 
     64 N         -45.9798  -25.6093   10.1698 N.am      5 UNK        -0.4737 
     65 C         -45.6105  -24.5562   10.9117 C.2       4 UNK         0.5027 
     66 O         -45.8468  -24.4497   12.1141 O.2       4 UNK        -0.5211 
     67 CA        -44.8888  -23.4156   10.1771 C.3       4 UNK         0.0297 
     68 CB        -43.3863  -23.7146   10.0565 C.3       4 UNK        -0.1993 
     69 N         -45.4513  -23.1622    8.8481 N.am      4 UNK        -0.4486 
     70 C         -46.6809  -22.6742    8.6324 C.2       3 UNK         0.4961 
     71 O         -47.4616  -22.3576    9.5309 O.2       3 UNK        -0.5105 
     72 CA        -47.1287  -22.5711    7.1635 C.3       3 UNK         0.0299 
     73 CB        -46.5325  -21.3201    6.4987 C.3       3 UNK        -0.1972 
     74 N         -46.8001  -23.7635    6.3701 N.am      3 UNK        -0.4305 
     75 C         -47.2860  -24.9863    6.6211 C.2       2 UNK         0.5006 
     76 O         -48.0336  -25.2406    7.5674 O.2       2 UNK        -0.5106 
     77 CA        -46.8541  -26.1255    5.6923 C.3       2 UNK         0.0296 
     78 CB        -45.4537  -26.6424    6.0792 C.3       2 UNK        -0.2002 
     79 N         -47.8584  -27.1799    5.8159 N.am      2 UNK        -0.4032 
     80 C         -48.0034  -28.2620    5.0458 C.2       1 UNK         0.5000 
     81 O         -47.2255  -28.5614    4.1345 O.2       1 UNK        -0.5238 
     82 H82       -49.5522  -30.7628    1.2027 H         1 UNK         0.0889 
     83 H83       -51.1303  -31.2296    1.8432 H         1 UNK         0.0889 
     84 H84       -49.6609  -31.9470    2.5064 H         1 UNK         0.0889 
     85 H85       -49.0511  -31.0565    4.4644 H         1 UNK         0.3028 
     86 H86       -50.1035  -28.4921    5.3509 H         1 UNK         0.0864 
     87 H87       -49.7497  -30.7442    6.7692 H         1 UNK         0.0720 
     88 H88       -48.1320  -30.1458    6.9833 H         1 UNK         0.0720 
     89 H89       -51.6243  -30.1864    8.6095 H         1 UNK         0.0814 
     90 H90       -51.9134  -29.3008    7.1277 H         1 UNK         0.0814 
     91 H91       -51.9797  -26.6421    7.4078 H         1 UNK         0.1469 
     92 H92       -54.3930  -25.4432   10.7416 H         1 UNK         0.1381 
     93 H93       -52.8541  -29.4432   10.5331 H         1 UNK         0.1206 
     94 H94       -53.8485  -28.5510   12.6438 H         1 UNK         0.0813 
     95 H95       -54.4172  -26.9080   12.7168 H         1 UNK         0.0813 
     96 H96       -56.3149  -30.4037   10.6134 H         1 UNK         0.0638 
     97 H97       -54.8138  -30.3786   11.4935 H         1 UNK         0.0638 
     98 H98       -57.5964  -30.8181   12.6611 H         1 UNK         0.0568 
     99 H99       -56.2073  -34.3608   13.3021 H         1 UNK         0.3450 
    100 H100      -56.2490  -33.0203   14.4209 H         1 UNK         0.3450 
    101 H101      -56.8677  -30.1187   14.6079 H         1 UNK         0.2987 
    102 H102      -55.5348  -30.4445   16.6369 H         1 UNK         0.0766 
    103 H103      -53.3602  -29.8026   17.6534 H         1 UNK         0.0798 
    104 H104      -52.6042  -29.7632   16.0631 H         1 UNK         0.0798 
    105 H105      -53.2040  -31.2797   16.7159 H         1 UNK         0.0798 
    106 H106      -54.2416  -27.9129   16.0604 H         1 UNK         0.3198 
    107 H107      -56.9180  -26.1648   14.9465 H         1 UNK         0.0843 
    108 H108      -56.7650  -26.1793   18.0126 H         1 UNK         0.0831 
    109 H109      -58.2250  -26.3751   17.0520 H         1 UNK         0.0831 
    110 H110      -57.3640  -24.8461   17.0257 H         1 UNK         0.0831 
    111 H111      -54.4591  -26.0236   16.6552 H         1 UNK         0.3133 
    112 H112      -53.0449  -23.5559   14.5142 H         1 UNK         0.0566 
    113 H113      -52.0700  -23.2490   16.7314 H         1 UNK         0.0814 
    114 H114      -53.8092  -23.0346   16.8446 H         1 UNK         0.0814 
    115 H115      -53.0681  -24.5194   17.4252 H         1 UNK         0.0814 
    116 H116      -51.5160  -25.0636   14.1728 H         1 UNK         0.3091 
    117 H117      -50.4693  -28.0794   15.7851 H         1 UNK         0.0702 
    118 H118      -51.9070  -28.7835   13.8989 H         1 UNK         0.0785 
    119 H119      -51.3370  -27.4351   12.9169 H         1 UNK         0.0785 
    120 H120      -50.2306  -28.7211   13.3908 H         1 UNK         0.0785 
    121 H121      -49.2168  -26.4197   13.8245 H         1 UNK         0.2998 
    122 H122      -47.2305  -24.5713   16.2084 H         1 UNK         0.0697 
    123 H123      -46.6354  -26.6970   14.0829 H         1 UNK         0.0825 
    124 H124      -46.1593  -26.7835   15.7734 H         1 UNK         0.0825 
    125 H125      -45.4869  -25.5333   14.7384 H         1 UNK         0.0825 
    126 H126      -47.3689  -24.4215   13.3610 H         1 UNK         0.3029 
    127 H127      -49.7484  -21.7370   13.2318 H         1 UNK         0.0897 
    128 H128      -46.7495  -21.8855   12.6088 H         1 UNK         0.0792 
    129 H129      -47.5145  -20.7008   13.6590 H         1 UNK         0.0792 
    130 H130      -47.8896  -20.7191   11.9426 H         1 UNK         0.0792 
    131 H131      -48.4306  -23.0334   11.1101 H         1 UNK         0.3086 
    132 H132      -50.8351  -25.6791   10.6222 H         1 UNK         0.0583 
    133 H133      -49.8864  -23.2254    9.0445 H         1 UNK         0.1020 
    134 H134      -50.5552  -24.6615    8.3420 H         1 UNK         0.1020 
    135 H135      -54.3134  -24.1435    8.4661 H         1 UNK         0.0694 
    136 H136      -52.9638  -24.4623    7.4035 H         1 UNK         0.0694 
    137 H137      -48.3836  -25.2971    9.3266 H         1 UNK         0.2989 
    138 H138      -46.2631  -27.0922   11.5962 H         1 UNK         0.1055 
    139 H139      -47.2926  -28.7500   10.0311 H         1 UNK         0.0806 
    140 H140      -45.6990  -28.2451    9.4936 H         1 UNK         0.0806 
    141 H141      -47.1404  -27.6021    8.7095 H         1 UNK         0.0806 
    142 H142      -45.7751  -25.5981    9.1824 H         1 UNK         0.3061 
    143 H143      -45.0094  -22.5087   10.7738 H         1 UNK         0.0734 
    144 H144      -42.8497  -22.8785    9.6078 H         1 UNK         0.0832 
    145 H145      -42.9455  -23.8896   11.0391 H         1 UNK         0.0832 
    146 H146      -43.1945  -24.6017    9.4516 H         1 UNK         0.0832 
    147 H147      -44.8769  -23.3927    8.0505 H         1 UNK         0.3156 
    148 H148      -48.2158  -22.4656    7.1615 H         1 UNK         0.0589 
    149 H149      -45.4455  -21.3743    6.4282 H         1 UNK         0.0808 
    150 H150      -46.9278  -21.1793    5.4925 H         1 UNK         0.0808 
    151 H151      -46.7774  -20.4224    7.0684 H         1 UNK         0.0808 
    152 H152      -46.1887  -23.6318    5.5766 H         1 UNK         0.3098 
    153 H153      -46.8486  -25.7615    4.6631 H         1 UNK         0.0720 
    154 H154      -45.1177  -27.4302    5.4053 H         1 UNK         0.0791 
    155 H155      -45.4337  -27.0437    7.0921 H         1 UNK         0.0791 
    156 H156      -44.7113  -25.8451    6.0286 H         1 UNK         0.0791 
    157 H157      -48.5231  -27.0092    6.5635 H         1 UNK         0.3028 
@<TRIPOS>BOND
     1    1    2 1    
     2    1   82 1    
     3    1   83 1    
     4    1   84 1    
     5    2    3 2    
     6    2    4 am   BACKBONE|DICT|INTERRES
     7    4    5 1    
     8    4   85 1    
     9    5    6 1    
    10    5   80 1    
    11    5   86 1    
    12    6    7 1    
    13    6   87 1    
    14    6   88 1    
    15    7    8 1    
    16    8    9 1    
    17    8   89 1    
    18    8   90 1    
    19    9   10 ar   
    20    9   14 ar   
    21   10   11 ar   
    22   10   91 1    
    23   11   12 ar   
    24   11   58 1    
    25   12   13 ar   
    26   12   92 1    
    27   13   14 ar   
    28   13   15 1    
    29   14   93 1    
    30   15   16 1    
    31   15   94 1    
    32   15   95 1    
    33   16   17 1    
    34   17   18 1    
    35   17   96 1    
    36   17   97 1    
    37   18   19 1    
    38   18   22 1    
    39   18   98 1    
    40   19   20 am   BACKBONE|DICT|INTERRES
    41   19   21 2    
    42   20   99 1    
    43   20  100 1    
    44   22   23 am   BACKBONE|DICT|INTERRES
    45   22  101 1    
    46   23   24 2    
    47   23   25 1    
    48   25   26 1    
    49   25   27 1    
    50   25  102 1    
    51   26  103 1    
    52   26  104 1    
    53   26  105 1    
    54   27   28 am   BACKBONE|DICT|INTERRES
    55   27  106 1    
    56   28   29 2    
    57   28   30 1    
    58   30   31 1    
    59   30   32 1    
    60   30  107 1    
    61   31  108 1    
    62   31  109 1    
    63   31  110 1    
    64   32   33 am   BACKBONE|DICT|INTERRES
    65   32  111 1    
    66   33   34 2    
    67   33   35 1    
    68   35   36 1    
    69   35   37 1    
    70   35  112 1    
    71   36  113 1    
    72   36  114 1    
    73   36  115 1    
    74   37   38 am   BACKBONE|DICT|INTERRES
    75   37  116 1    
    76   38   39 2    
    77   38   40 1    
    78   40   41 1    
    79   40   42 1    
    80   40  117 1    
    81   41  118 1    
    82   41  119 1    
    83   41  120 1    
    84   42   43 am   BACKBONE|DICT|INTERRES
    85   42  121 1    
    86   43   44 2    
    87   43   45 1    
    88   45   46 1    
    89   45   47 1    
    90   45  122 1    
    91   46  123 1    
    92   46  124 1    
    93   46  125 1    
    94   47   48 am   BACKBONE|DICT|INTERRES
    95   47  126 1    
    96   48   49 2    
    97   48   50 1    
    98   50   51 1    
    99   50   52 1    
   100   50  127 1    
   101   51  128 1    
   102   51  129 1    
   103   51  130 1    
   104   52   53 am   BACKBONE|DICT|INTERRES
   105   52  131 1    
   106   53   54 2    
   107   53   55 1    
   108   55   56 1    
   109   55   59 1    
   110   55  132 1    
   111   56   57 1    
   112   56  133 1    
   113   56  134 1    
   114   57   58 1    
   115   58  135 1    
   116   58  136 1    
   117   59   60 am   BACKBONE|DICT|INTERRES
   118   59  137 1    
   119   60   61 2    
   120   60   62 1    
   121   62   63 1    
   122   62   64 1    
   123   62  138 1    
   124   63  139 1    
   125   63  140 1    
   126   63  141 1    
   127   64   65 am   BACKBONE|DICT|INTERRES
   128   64  142 1    
   129   65   66 2    
   130   65   67 1    
   131   67   68 1    
   132   67   69 1    
   133   67  143 1    
   134   68  144 1    
   135   68  145 1    
   136   68  146 1    
   137   69   70 am   BACKBONE|DICT|INTERRES
   138   69  147 1    
   139   70   71 2    
   140   70   72 1    
   141   72   73 1    
   142   72   74 1    
   143   72  148 1    
   144   73  149 1    
   145   73  150 1    
   146   73  151 1    
   147   74   75 am   BACKBONE|DICT|INTERRES
   148   74  152 1    
   149   75   76 2    
   150   75   77 1    
   151   77   78 1    
   152   77   79 1    
   153   77  153 1    
   154   78  154 1    
   155   78  155 1    
   156   78  156 1    
   157   79   80 am   BACKBONE|DICT|INTERRES
   158   79  157 1    
   159   80   81 2    
@<TRIPOS>SUBSTRUCTURE
     1 UNK         1 GROUP             0       ****    0 ROOT    
