@<TRIPOS>MOLECULE
3R207
157   159    1
SMALL
USER_CHARGES


@<TRIPOS>ATOM
      1 CA        -45.1487  -30.5715    6.0922 C.3       0 UNK        -0.1975 
      2 C         -45.8284  -30.4164    7.4506 C.2       0 UNK         0.4852 
      3 O         -45.1642  -30.5770    8.4726 O.2       0 UNK        -0.5216 
      4 N         -47.1356  -30.1217    7.5307 N.am      1 UNK        -0.4461 
      5 CA        -48.0700  -29.8340    6.4333 C.3       1 UNK         0.0864 
      6 C6        -49.5188  -29.7183    6.9759 C.3       14 UNK        -0.0898 
      7 S7        -50.7818  -29.7325    5.6603 S.3       14 UNK        -0.2598 
      8 C8        -52.1932  -30.5096    6.5189 C.3       14 UNK         0.0286 
      9 C9        -52.9071  -29.6515    7.5686 C.ar      14 UNK        -0.0844 
     10 C10       -52.7011  -28.2698    7.7110 C.ar      14 UNK        -0.0881 
     11 C11       -53.4308  -27.5318    8.6504 C.ar      14 UNK        -0.0643 
     12 C12       -54.3706  -28.1815    9.4557 C.ar      14 UNK        -0.0930 
     13 C13       -54.5896  -29.5543    9.3231 C.ar      14 UNK        -0.0827 
     14 C14       -53.8519  -30.2805    8.3856 C.ar      14 UNK        -0.1249 
     15 C15       -55.6447  -30.2478   10.1687 C.3       14 UNK         0.0141 
     16 S16       -57.2654  -30.1975    9.3411 S.3       14 UNK        -0.2313 
     17 C17       -58.3358  -31.0001   10.5827 C.3       14 UNK        -0.0915 
     18 CA        -59.3544  -30.0159   11.2354 C.3       13 UNK         0.0968 
     19 C         -60.3870  -30.7420   12.1523 C.2       13 UNK         0.5732 
     20 N         -60.8577  -30.1298   13.2325 N.am      13 UNK        -0.7310 
     21 O         -60.7985  -31.8641   11.8653 O.2       13 UNK        -0.5035 
     22 N         -58.7116  -28.8328   11.8401 N.am      13 UNK        -0.4233 
     23 C         -57.8360  -28.8533   12.8510 C.2       13 UNK         0.4989 
     24 O         -57.4936  -29.8720   13.4581 O.2       13 UNK        -0.4996 
     25 CA        -57.2215  -27.5081   13.2466 C.3       12 UNK         0.0216 
     26 CB        -58.0861  -26.7823   14.2930 C.3       12 UNK        -0.1964 
     27 N         -55.8960  -27.7830   13.7875 N.am      12 UNK        -0.4276 
     28 C         -54.8587  -26.9435   13.7988 C.2       12 UNK         0.5020 
     29 O         -54.9081  -25.7784   13.3969 O.2       12 UNK        -0.5489 
     30 CA        -53.5371  -27.5334   14.3160 C.3       11 UNK         0.0294 
     31 CB        -52.7562  -28.2156   13.1804 C.3       11 UNK        -0.2019 
     32 N         -52.6895  -26.5171   14.9349 N.am      11 UNK        -0.4493 
     33 C         -52.8954  -25.9912   16.1495 C.2       11 UNK         0.4932 
     34 O         -53.8442  -26.2922   16.8771 O.2       11 UNK        -0.5029 
     35 CA        -51.8226  -24.9987   16.6388 C.3       10 UNK         0.0280 
     36 CB        -51.9805  -24.6029   18.1221 C.3       10 UNK        -0.1976 
     37 N         -50.4695  -25.4946   16.3633 N.am      10 UNK        -0.4242 
     38 C         -49.9061  -26.6319   16.8021 C.2       10 UNK         0.5072 
     39 O         -50.4151  -27.3806   17.6376 O.2       10 UNK        -0.5224 
     40 CA        -48.5563  -27.0315   16.1774 C.3       9 UNK         0.0343 
     41 CB        -48.7706  -28.1395   15.1327 C.3       9 UNK        -0.2003 
     42 N         -47.8522  -25.9132   15.5456 N.am      9 UNK        -0.4272 
     43 C         -47.2427  -24.9255   16.2156 C.2       9 UNK         0.4988 
     44 O         -47.1412  -24.8897   17.4425 O.2       9 UNK        -0.5108 
     45 CA        -46.6723  -23.7689   15.3787 C.3       8 UNK         0.0248 
     46 CB        -45.2842  -24.1352   14.8299 C.3       8 UNK        -0.2001 
     47 N         -47.5541  -23.3572   14.2800 N.am      8 UNK        -0.4140 
     48 C         -48.7801  -22.8359   14.4425 C.2       8 UNK         0.5028 
     49 O         -49.2983  -22.6363   15.5409 O.2       8 UNK        -0.5428 
     50 CA        -49.5821  -22.5012   13.1739 C.3       7 UNK         0.0264 
     51 CB        -49.0990  -21.1795   12.5560 C.3       7 UNK        -0.1988 
     52 N         -49.5455  -23.5640   12.1675 N.am      7 UNK        -0.4454 
     53 C         -50.0482  -24.7971   12.3407 C.2       7 UNK         0.5027 
     54 O         -50.6159  -25.1692   13.3701 O.2       7 UNK        -0.5083 
     55 CA        -49.8255  -25.8079   11.1930 C.3       6 UNK         0.0844 
     56 C56       -50.7495  -25.5655    9.9700 C.3       14 UNK        -0.0967 
     57 S57       -52.5342  -25.5088   10.3422 S.3       14 UNK        -0.2604 
     58 C58       -53.2636  -26.0214    8.7553 C.3       14 UNK         0.0134 
     59 N         -48.4229  -25.8279   10.7735 N.am      6 UNK        -0.4116 
     60 C         -47.3614  -26.0804   11.5516 C.2       5 UNK         0.5034 
     61 O         -47.4293  -26.4032   12.7365 O.2       5 UNK        -0.5045 
     62 CA        -45.9833  -25.8777   10.9040 C.3       5 UNK         0.0224 
     63 CB        -45.6004  -27.0805   10.0259 C.3       5 UNK        -0.1978 
     64 N         -45.9221  -24.6425   10.1162 N.am      5 UNK        -0.4737 
     65 C         -45.9779  -23.4098   10.6406 C.2       4 UNK         0.5027 
     66 O         -46.0644  -23.1833   11.8457 O.2       4 UNK        -0.5211 
     67 CA        -45.9710  -22.2316    9.6538 C.3       4 UNK         0.0297 
     68 CB        -44.5371  -21.9098    9.2042 C.3       4 UNK        -0.1993 
     69 N         -46.8152  -22.4708    8.4816 N.am      4 UNK        -0.4486 
     70 C         -48.1493  -22.5954    8.5224 C.2       3 UNK         0.4961 
     71 O         -48.8194  -22.4987    9.5502 O.2       3 UNK        -0.5105 
     72 CA        -48.8458  -22.9472    7.1964 C.3       3 UNK         0.0299 
     73 CB        -49.0506  -21.6876    6.3399 C.3       3 UNK        -0.1972 
     74 N         -48.1385  -23.9711    6.4162 N.am      3 UNK        -0.4305 
     75 C         -47.8546  -25.2005    6.8655 C.2       2 UNK         0.5006 
     76 O         -48.1178  -25.5923    8.0061 O.2       2 UNK        -0.5106 
     77 CA        -47.1295  -26.1470    5.9051 C.3       2 UNK         0.0296 
     78 CB        -45.6157  -25.8739    5.8980 C.3       2 UNK        -0.2002 
     79 N         -47.3745  -27.4987    6.3889 N.am      2 UNK        -0.4032 
     80 C         -47.6656  -28.5686    5.6461 C.2       1 UNK         0.5000 
     81 O         -47.6065  -28.5955    4.4157 O.2       1 UNK        -0.5238 
     82 H82       -44.2456  -31.1738    6.1895 H         1 UNK         0.0889 
     83 H83       -44.8584  -29.5979    5.6984 H         1 UNK         0.0889 
     84 H84       -45.7911  -31.0672    5.3661 H         1 UNK         0.0889 
     85 H85       -47.5379  -30.0632    8.4550 H         1 UNK         0.3028 
     86 H86       -48.0387  -30.6809    5.7451 H         1 UNK         0.0864 
     87 H87       -49.6486  -28.8192    7.5817 H         1 UNK         0.0720 
     88 H88       -49.7217  -30.5575    7.6433 H         1 UNK         0.0720 
     89 H89       -51.8566  -31.4419    6.9751 H         1 UNK         0.0814 
     90 H90       -52.9267  -30.7914    5.7623 H         1 UNK         0.0814 
     91 H91       -51.9959  -27.7532    7.0764 H         1 UNK         0.1469 
     92 H92       -54.9467  -27.6106   10.1716 H         1 UNK         0.1381 
     93 H93       -54.0346  -31.3410    8.2738 H         1 UNK         0.1206 
     94 H94       -55.7081  -29.7698   11.1459 H         1 UNK         0.0813 
     95 H95       -55.3614  -31.2857   10.3507 H         1 UNK         0.0813 
     96 H96       -58.8643  -31.8037   10.0670 H         1 UNK         0.0638 
     97 H97       -57.7236  -31.4880   11.3425 H         1 UNK         0.0638 
     98 H98       -59.9642  -29.6165   10.4245 H         1 UNK         0.0568 
     99 H99       -61.5333  -30.6028   13.8117 H         1 UNK         0.3450 
    100 H100      -60.5405  -29.2060   13.4766 H         1 UNK         0.3450 
    101 H101      -58.9489  -27.9480   11.4152 H         1 UNK         0.2987 
    102 H102      -57.1233  -26.8884   12.3523 H         1 UNK         0.0766 
    103 H103      -57.6438  -25.8277   14.5789 H         1 UNK         0.0798 
    104 H104      -58.2069  -27.3784   15.1986 H         1 UNK         0.0798 
    105 H105      -59.0824  -26.5722   13.9024 H         1 UNK         0.0798 
    106 H106      -55.7785  -28.7420   14.0947 H         1 UNK         0.3198 
    107 H107      -53.7675  -28.2869   15.0728 H         1 UNK         0.0843 
    108 H108      -51.8551  -28.7013   13.5550 H         1 UNK         0.0831 
    109 H109      -52.4553  -27.5013   12.4155 H         1 UNK         0.0831 
    110 H110      -53.3580  -28.9818   12.6898 H         1 UNK         0.0831 
    111 H111      -51.9277  -26.1451   14.3720 H         1 UNK         0.3133 
    112 H112      -51.9424  -24.0948   16.0396 H         1 UNK         0.0566 
    113 H113      -51.2107  -23.8931   18.4250 H         1 UNK         0.0814 
    114 H114      -52.9467  -24.1283   18.2970 H         1 UNK         0.0814 
    115 H115      -51.9195  -25.4677   18.7833 H         1 UNK         0.0814 
    116 H116      -49.9636  -24.9726   15.6589 H         1 UNK         0.3091 
    117 H117      -47.9267  -27.4290   16.9761 H         1 UNK         0.0702 
    118 H118      -47.8222  -28.4853   14.7211 H         1 UNK         0.0785 
    119 H119      -49.3887  -27.7935   14.3027 H         1 UNK         0.0785 
    120 H120      -49.2685  -29.0043   15.5731 H         1 UNK         0.0785 
    121 H121      -47.8305  -25.9067   14.5280 H         1 UNK         0.2998 
    122 H122      -46.5561  -22.9100   16.0430 H         1 UNK         0.0697 
    123 H123      -44.8223  -23.2876   14.3234 H         1 UNK         0.0825 
    124 H124      -44.6118  -24.4371   15.6340 H         1 UNK         0.0825 
    125 H125      -45.3369  -24.9609   14.1196 H         1 UNK         0.0825 
    126 H126      -47.1721  -23.4347   13.3393 H         1 UNK         0.3029 
    127 H127      -50.6249  -22.3722   13.4720 H         1 UNK         0.0897 
    128 H128      -49.7280  -20.8825   11.7165 H         1 UNK         0.0792 
    129 H129      -49.1309  -20.3707   13.2872 H         1 UNK         0.0792 
    130 H130      -48.0732  -21.2534   12.1934 H         1 UNK         0.0792 
    131 H131      -49.1290  -23.3231   11.2712 H         1 UNK         0.3086 
    132 H132      -50.0504  -26.7997   11.5906 H         1 UNK         0.0583 
    133 H133      -50.4857  -24.6306    9.4745 H         1 UNK         0.1020 
    134 H134      -50.5768  -26.3513    9.2325 H         1 UNK         0.1020 
    135 H135      -54.2457  -25.5557    8.6621 H         1 UNK         0.0694 
    136 H136      -52.6653  -25.6301    7.9309 H         1 UNK         0.0694 
    137 H137      -48.2510  -25.5993    9.7963 H         1 UNK         0.2989 
    138 H138      -45.2505  -25.7993   11.7102 H         1 UNK         0.1055 
    139 H139      -45.6128  -28.0051   10.6051 H         1 UNK         0.0806 
    140 H140      -44.5953  -26.9707    9.6184 H         1 UNK         0.0806 
    141 H141      -46.2869  -27.2136    9.1908 H         1 UNK         0.0806 
    142 H142      -45.9013  -24.7376    9.1121 H         1 UNK         0.3061 
    143 H143      -46.3667  -21.3593   10.1787 H         1 UNK         0.0734 
    144 H144      -44.5089  -21.0220    8.5723 H         1 UNK         0.0832 
    145 H145      -43.8956  -21.7127   10.0644 H         1 UNK         0.0832 
    146 H146      -44.0898  -22.7341    8.6473 H         1 UNK         0.0832 
    147 H147      -46.3512  -22.5696    7.5906 H         1 UNK         0.3156 
    148 H148      -49.8307  -23.3496    7.4419 H         1 UNK         0.0589 
    149 H149      -48.1023  -21.2542    6.0196 H         1 UNK         0.0808 
    150 H150      -49.6389  -21.9051    5.4482 H         1 UNK         0.0808 
    151 H151      -49.5872  -20.9196    6.8990 H         1 UNK         0.0808 
    152 H152      -47.8819  -23.7258    5.4702 H         1 UNK         0.3098 
    153 H153      -47.5422  -26.0187    4.9021 H         1 UNK         0.0720 
    154 H154      -45.3978  -24.8655    5.5442 H         1 UNK         0.0791 
    155 H155      -45.0954  -26.5671    5.2367 H         1 UNK         0.0791 
    156 H156      -45.1805  -25.9752    6.8931 H         1 UNK         0.0791 
    157 H157      -47.5158  -27.5490    7.3892 H         1 UNK         0.3028 
@<TRIPOS>BOND
     1    1    2 1    
     2    1   82 1    
     3    1   83 1    
     4    1   84 1    
     5    2    3 2    
     6    2    4 am   BACKBONE|DICT|INTERRES
     7    4    5 1    
     8    4   85 1    
     9    5    6 1    
    10    5   80 1    
    11    5   86 1    
    12    6    7 1    
    13    6   87 1    
    14    6   88 1    
    15    7    8 1    
    16    8    9 1    
    17    8   89 1    
    18    8   90 1    
    19    9   10 ar   
    20    9   14 ar   
    21   10   11 ar   
    22   10   91 1    
    23   11   12 ar   
    24   11   58 1    
    25   12   13 ar   
    26   12   92 1    
    27   13   14 ar   
    28   13   15 1    
    29   14   93 1    
    30   15   16 1    
    31   15   94 1    
    32   15   95 1    
    33   16   17 1    
    34   17   18 1    
    35   17   96 1    
    36   17   97 1    
    37   18   19 1    
    38   18   22 1    
    39   18   98 1    
    40   19   20 am   BACKBONE|DICT|INTERRES
    41   19   21 2    
    42   20   99 1    
    43   20  100 1    
    44   22   23 am   BACKBONE|DICT|INTERRES
    45   22  101 1    
    46   23   24 2    
    47   23   25 1    
    48   25   26 1    
    49   25   27 1    
    50   25  102 1    
    51   26  103 1    
    52   26  104 1    
    53   26  105 1    
    54   27   28 am   BACKBONE|DICT|INTERRES
    55   27  106 1    
    56   28   29 2    
    57   28   30 1    
    58   30   31 1    
    59   30   32 1    
    60   30  107 1    
    61   31  108 1    
    62   31  109 1    
    63   31  110 1    
    64   32   33 am   BACKBONE|DICT|INTERRES
    65   32  111 1    
    66   33   34 2    
    67   33   35 1    
    68   35   36 1    
    69   35   37 1    
    70   35  112 1    
    71   36  113 1    
    72   36  114 1    
    73   36  115 1    
    74   37   38 am   BACKBONE|DICT|INTERRES
    75   37  116 1    
    76   38   39 2    
    77   38   40 1    
    78   40   41 1    
    79   40   42 1    
    80   40  117 1    
    81   41  118 1    
    82   41  119 1    
    83   41  120 1    
    84   42   43 am   BACKBONE|DICT|INTERRES
    85   42  121 1    
    86   43   44 2    
    87   43   45 1    
    88   45   46 1    
    89   45   47 1    
    90   45  122 1    
    91   46  123 1    
    92   46  124 1    
    93   46  125 1    
    94   47   48 am   BACKBONE|DICT|INTERRES
    95   47  126 1    
    96   48   49 2    
    97   48   50 1    
    98   50   51 1    
    99   50   52 1    
   100   50  127 1    
   101   51  128 1    
   102   51  129 1    
   103   51  130 1    
   104   52   53 am   BACKBONE|DICT|INTERRES
   105   52  131 1    
   106   53   54 2    
   107   53   55 1    
   108   55   56 1    
   109   55   59 1    
   110   55  132 1    
   111   56   57 1    
   112   56  133 1    
   113   56  134 1    
   114   57   58 1    
   115   58  135 1    
   116   58  136 1    
   117   59   60 am   BACKBONE|DICT|INTERRES
   118   59  137 1    
   119   60   61 2    
   120   60   62 1    
   121   62   63 1    
   122   62   64 1    
   123   62  138 1    
   124   63  139 1    
   125   63  140 1    
   126   63  141 1    
   127   64   65 am   BACKBONE|DICT|INTERRES
   128   64  142 1    
   129   65   66 2    
   130   65   67 1    
   131   67   68 1    
   132   67   69 1    
   133   67  143 1    
   134   68  144 1    
   135   68  145 1    
   136   68  146 1    
   137   69   70 am   BACKBONE|DICT|INTERRES
   138   69  147 1    
   139   70   71 2    
   140   70   72 1    
   141   72   73 1    
   142   72   74 1    
   143   72  148 1    
   144   73  149 1    
   145   73  150 1    
   146   73  151 1    
   147   74   75 am   BACKBONE|DICT|INTERRES
   148   74  152 1    
   149   75   76 2    
   150   75   77 1    
   151   77   78 1    
   152   77   79 1    
   153   77  153 1    
   154   78  154 1    
   155   78  155 1    
   156   78  156 1    
   157   79   80 am   BACKBONE|DICT|INTERRES
   158   79  157 1    
   159   80   81 2    
@<TRIPOS>SUBSTRUCTURE
     1 UNK         1 GROUP             0       ****    0 ROOT    
