@<TRIPOS>MOLECULE
3R207
157   159    1
SMALL
USER_CHARGES


@<TRIPOS>ATOM
      1 CA        -46.3586  -29.1382   10.9592 C.3       0 UNK        -0.1975 
      2 C         -46.0687  -29.2807    9.4746 C.2       0 UNK         0.4852 
      3 O         -44.9198  -29.5047    9.0898 O.2       0 UNK        -0.5216 
      4 N         -47.0990  -29.1379    8.6313 N.am      1 UNK        -0.4461 
      5 CA        -47.0334  -29.1892    7.1651 C.3       1 UNK         0.0864 
      6 C6        -48.3949  -29.6015    6.5392 C.3       14 UNK        -0.0898 
      7 S7        -49.8301  -28.6923    7.2102 S.3       14 UNK        -0.2598 
      8 C8        -51.0007  -30.0449    7.5509 C.3       14 UNK         0.0286 
      9 C9        -52.2224  -29.5304    8.2971 C.ar      14 UNK        -0.0844 
     10 C10       -53.0687  -28.5956    7.6937 C.ar      14 UNK        -0.0881 
     11 C11       -54.1510  -28.0590    8.3959 C.ar      14 UNK        -0.0643 
     12 C12       -54.4143  -28.4992    9.6953 C.ar      14 UNK        -0.0930 
     13 C13       -53.5832  -29.4440   10.3040 C.ar      14 UNK        -0.0827 
     14 C14       -52.4898  -29.9586    9.6011 C.ar      14 UNK        -0.1249 
     15 C15       -53.8295  -29.8430   11.7478 C.3       14 UNK         0.0141 
     16 S16       -55.3622  -30.7978   11.9465 S.3       14 UNK        -0.2313 
     17 C17       -55.5852  -30.6655   13.7525 C.3       14 UNK        -0.0915 
     18 CA        -56.6863  -29.6435   14.1454 C.3       13 UNK         0.0968 
     19 C         -56.9952  -29.6899   15.6710 C.2       13 UNK         0.5732 
     20 N         -57.0045  -28.5779   16.3978 N.am      13 UNK        -0.7310 
     21 O         -57.2515  -30.7636   16.2110 O.2       13 UNK        -0.5035 
     22 N         -56.3772  -28.2920   13.6535 N.am      13 UNK        -0.4233 
     23 C         -57.2803  -27.4223   13.1853 C.2       13 UNK         0.4989 
     24 O         -58.4737  -27.6918   13.0347 O.2       13 UNK        -0.4996 
     25 CA        -56.7636  -26.0118   12.8274 C.3       12 UNK         0.0216 
     26 CB        -57.8886  -24.9565   12.7797 C.3       12 UNK        -0.1964 
     27 N         -55.6659  -25.5488   13.6857 N.am      12 UNK        -0.4276 
     28 C         -55.6663  -25.4361   15.0224 C.2       12 UNK         0.5020 
     29 O         -56.6233  -25.7196   15.7460 O.2       12 UNK        -0.5489 
     30 CA        -54.3413  -24.9725   15.6559 C.3       11 UNK         0.0294 
     31 CB        -54.5920  -24.0143   16.8338 C.3       11 UNK        -0.2019 
     32 N         -53.4560  -26.0574   16.1062 N.am      11 UNK        -0.4493 
     33 C         -53.1580  -27.1903   15.4549 C.2       11 UNK         0.4932 
     34 O         -53.7047  -27.5800   14.4231 O.2       11 UNK        -0.5029 
     35 CA        -52.0122  -28.0315   16.0138 C.3       10 UNK         0.0280 
     36 CB        -52.5434  -29.3452   16.6205 C.3       10 UNK        -0.1976 
     37 N         -51.1379  -28.2713   14.8712 N.am      10 UNK        -0.4242 
     38 C         -49.9577  -28.8943   14.8485 C.2       10 UNK         0.5072 
     39 O         -49.4261  -29.4206   15.8268 O.2       10 UNK        -0.5224 
     40 CA        -49.2403  -28.8945   13.4877 C.3       9 UNK         0.0343 
     41 CB        -50.0897  -29.5648   12.3919 C.3       9 UNK        -0.2003 
     42 N         -48.8810  -27.5393   13.0621 N.am      9 UNK        -0.4272 
     43 C         -47.9574  -26.7713   13.6613 C.2       9 UNK         0.4988 
     44 O         -47.2888  -27.1234   14.6330 O.2       9 UNK        -0.5108 
     45 CA        -47.7242  -25.3784   13.0616 C.3       8 UNK         0.0248 
     46 CB        -46.7889  -25.4801   11.8429 C.3       8 UNK        -0.2001 
     47 N         -48.9902  -24.7354   12.6940 N.am      8 UNK        -0.4140 
     48 C         -49.7530  -24.0355   13.5495 C.2       8 UNK         0.5028 
     49 O         -49.4219  -23.8038   14.7127 O.2       8 UNK        -0.5428 
     50 CA        -51.1149  -23.5071   13.0582 C.3       7 UNK         0.0264 
     51 CB        -51.1554  -21.9703   13.0460 C.3       7 UNK        -0.1988 
     52 N         -51.4674  -24.0007   11.7260 N.am      7 UNK        -0.4454 
     53 C         -52.3934  -24.9394   11.4830 C.2       7 UNK         0.5027 
     54 O         -53.1464  -25.3890   12.3468 O.2       7 UNK        -0.5083 
     55 CA        -52.5202  -25.4735   10.0397 C.3       6 UNK         0.0844 
     56 C56       -53.8194  -24.9291    9.3852 C.3       14 UNK        -0.0967 
     57 S57       -54.0419  -25.4064    7.6342 S.3       14 UNK        -0.2604 
     58 C58       -54.9906  -26.9570    7.7707 C.3       14 UNK         0.0134 
     59 N         -51.3309  -25.2432    9.2145 N.am      6 UNK        -0.4116 
     60 C         -50.0972  -25.7088    9.4538 C.2       5 UNK         0.5034 
     61 O         -49.7956  -26.3945   10.4339 O.2       5 UNK        -0.5045 
     62 CA        -48.9920  -25.2716    8.4762 C.3       5 UNK         0.0224 
     63 CB        -49.5202  -24.8928    7.0750 C.3       5 UNK        -0.1978 
     64 N         -48.1605  -24.1806    9.0025 N.am      5 UNK        -0.4737 
     65 C         -48.5642  -22.9979    9.4994 C.2       4 UNK         0.5027 
     66 O         -49.7430  -22.7167    9.7193 O.2       4 UNK        -0.5211 
     67 CA        -47.4888  -21.9364    9.8128 C.3       4 UNK         0.0297 
     68 CB        -47.4872  -21.5504   11.3017 C.3       4 UNK        -0.1993 
     69 N         -46.1334  -22.3253    9.4177 N.am      4 UNK        -0.4486 
     70 C         -45.6680  -22.3231    8.1619 C.2       3 UNK         0.4961 
     71 O         -46.3298  -21.9716    7.1845 O.2       3 UNK        -0.5105 
     72 CA        -44.2214  -22.8050    7.9491 C.3       3 UNK         0.0299 
     73 CB        -43.3922  -22.9251    9.2499 C.3       3 UNK        -0.1972 
     74 N         -44.1752  -24.0620    7.1953 N.am      3 UNK        -0.4305 
     75 C         -44.7405  -25.2308    7.5327 C.2       2 UNK         0.5006 
     76 O         -45.4379  -25.3979    8.5383 O.2       2 UNK        -0.5106 
     77 CA        -44.4260  -26.4094    6.5943 C.3       2 UNK         0.0296 
     78 CB        -42.9279  -26.7625    6.6430 C.3       2 UNK        -0.2002 
     79 N         -45.1841  -27.6036    6.9585 N.am      2 UNK        -0.4032 
     80 C         -46.4318  -27.8908    6.5730 C.2       1 UNK         0.5000 
     81 O         -47.0816  -27.1879    5.7962 O.2       1 UNK        -0.5238 
     82 H82       -47.3365  -28.6925   11.1272 H         1 UNK         0.0889 
     83 H83       -45.6124  -28.4996   11.4311 H         1 UNK         0.0889 
     84 H84       -46.3343  -30.1127   11.4458 H         1 UNK         0.0889 
     85 H85       -48.0186  -28.9330    8.9970 H         1 UNK         0.3028 
     86 H86       -46.3275  -29.9786    6.8962 H         1 UNK         0.0864 
     87 H87       -48.5472  -30.6676    6.7133 H         1 UNK         0.0720 
     88 H88       -48.3818  -29.4892    5.4535 H         1 UNK         0.0720 
     89 H89       -51.3122  -30.5034    6.6113 H         1 UNK         0.0814 
     90 H90       -50.4982  -30.8217    8.1295 H         1 UNK         0.0814 
     91 H91       -52.8527  -28.2441    6.6939 H         1 UNK         0.1469 
     92 H92       -55.2425  -28.0813   10.2508 H         1 UNK         0.1381 
     93 H93       -51.8327  -30.6726   10.0783 H         1 UNK         0.1206 
     94 H94       -52.9968  -30.4232   12.1470 H         1 UNK         0.0813 
     95 H95       -53.8862  -28.9320   12.3397 H         1 UNK         0.0813 
     96 H96       -55.8412  -31.6626   14.1149 H         1 UNK         0.0638 
     97 H97       -54.6364  -30.4073   14.2242 H         1 UNK         0.0638 
     98 H98       -57.6067  -29.9810   13.6658 H         1 UNK         0.0568 
     99 H99       -57.2166  -28.6425   17.3801 H         1 UNK         0.3450 
    100 H100      -56.8370  -27.6667   15.9830 H         1 UNK         0.3450 
    101 H101      -55.4214  -27.9769   13.8050 H         1 UNK         0.2987 
    102 H102      -56.3454  -26.0949   11.8234 H         1 UNK         0.0766 
    103 H103      -57.5021  -23.9775   12.4968 H         1 UNK         0.0798 
    104 H104      -58.6504  -25.2257   12.0470 H         1 UNK         0.0798 
    105 H105      -58.3859  -24.8549   13.7450 H         1 UNK         0.0798 
    106 H106      -54.7709  -25.4181   13.2122 H         1 UNK         0.3198 
    107 H107      -53.7970  -24.4117   14.8955 H         1 UNK         0.0843 
    108 H108      -55.0620  -24.5251   17.6754 H         1 UNK         0.0831 
    109 H109      -55.2533  -23.1981   16.5394 H         1 UNK         0.0831 
    110 H110      -53.6644  -23.5644   17.1879 H         1 UNK         0.0831 
    111 H111      -52.9524  -25.8714   16.9614 H         1 UNK         0.3133 
    112 H112      -51.4637  -27.4657   16.7692 H         1 UNK         0.0566 
    113 H113      -53.0095  -29.9779   15.8656 H         1 UNK         0.0814 
    114 H114      -53.2923  -29.1461   17.3881 H         1 UNK         0.0814 
    115 H115      -51.7471  -29.9210   17.0914 H         1 UNK         0.0814 
    116 H116      -51.5019  -27.8892   14.0072 H         1 UNK         0.3091 
    117 H117      -48.3203  -29.4722   13.6006 H         1 UNK         0.0702 
    118 H118      -49.5126  -29.7196   11.4807 H         1 UNK         0.0785 
    119 H119      -50.9604  -28.9644   12.1265 H         1 UNK         0.0785 
    120 H120      -50.4471  -30.5434   12.7153 H         1 UNK         0.0785 
    121 H121      -49.3473  -27.1774   12.2362 H         1 UNK         0.2998 
    122 H122      -47.2185  -24.7698   13.8146 H         1 UNK         0.0697 
    123 H123      -47.2245  -26.0654   11.0335 H         1 UNK         0.0825 
    124 H124      -45.8491  -25.9621   12.1154 H         1 UNK         0.0825 
    125 H125      -46.5333  -24.5006   11.4458 H         1 UNK         0.0825 
    126 H126      -49.3612  -24.9645   11.7797 H         1 UNK         0.3029 
    127 H127      -51.8444  -23.8469   13.7941 H         1 UNK         0.0897 
    128 H128      -52.1702  -21.6090   12.8785 H         1 UNK         0.0792 
    129 H129      -50.8185  -21.5543   13.9966 H         1 UNK         0.0792 
    130 H130      -50.5260  -21.5553   12.2609 H         1 UNK         0.0792 
    131 H131      -50.9289  -23.6257   10.9470 H         1 UNK         0.3086 
    132 H132      -52.6066  -26.5548   10.1361 H         1 UNK         0.0583 
    133 H133      -54.6945  -25.2531    9.9519 H         1 UNK         0.1020 
    134 H134      -53.8300  -23.8379    9.4232 H         1 UNK         0.1020 
    135 H135      -55.9019  -26.7803    8.3442 H         1 UNK         0.0694 
    136 H136      -55.3080  -27.2680    6.7745 H         1 UNK         0.0694 
    137 H137      -51.4716  -24.6675    8.3976 H         1 UNK         0.2989 
    138 H138      -48.3352  -26.1350    8.3582 H         1 UNK         0.1055 
    139 H139      -48.6935  -24.7637    6.3759 H         1 UNK         0.0806 
    140 H140      -50.0914  -23.9639    7.0806 H         1 UNK         0.0806 
    141 H141      -50.1589  -25.6772    6.6660 H         1 UNK         0.0806 
    142 H142      -47.1607  -24.3376    8.9133 H         1 UNK         0.3061 
    143 H143      -47.7587  -21.0443    9.2435 H         1 UNK         0.0734 
    144 H144      -48.4337  -21.0904   11.5807 H         1 UNK         0.0832 
    145 H145      -47.3370  -22.4087   11.9550 H         1 UNK         0.0832 
    146 H146      -46.7083  -20.8204   11.5227 H         1 UNK         0.0832 
    147 H147      -45.5183  -22.6489   10.1501 H         1 UNK         0.3156 
    148 H148      -43.7402  -22.0510    7.3242 H         1 UNK         0.0589 
    149 H149      -43.7732  -23.6972    9.9196 H         1 UNK         0.0808 
    150 H150      -42.3551  -23.1749    9.0257 H         1 UNK         0.0808 
    151 H151      -43.3774  -21.9821    9.7985 H         1 UNK         0.0808 
    152 H152      -43.6550  -24.0231    6.3298 H         1 UNK         0.3098 
    153 H153      -44.6874  -26.1156    5.5754 H         1 UNK         0.0720 
    154 H154      -42.6996  -27.6070    5.9923 H         1 UNK         0.0791 
    155 H155      -42.3073  -25.9293    6.3114 H         1 UNK         0.0791 
    156 H156      -42.6095  -27.0246    7.6531 H         1 UNK         0.0791 
    157 H157      -44.7745  -28.2058    7.6675 H         1 UNK         0.3028 
@<TRIPOS>BOND
     1    1    2 1    
     2    1   82 1    
     3    1   83 1    
     4    1   84 1    
     5    2    3 2    
     6    2    4 am   BACKBONE|DICT|INTERRES
     7    4    5 1    
     8    4   85 1    
     9    5    6 1    
    10    5   80 1    
    11    5   86 1    
    12    6    7 1    
    13    6   87 1    
    14    6   88 1    
    15    7    8 1    
    16    8    9 1    
    17    8   89 1    
    18    8   90 1    
    19    9   10 ar   
    20    9   14 ar   
    21   10   11 ar   
    22   10   91 1    
    23   11   12 ar   
    24   11   58 1    
    25   12   13 ar   
    26   12   92 1    
    27   13   14 ar   
    28   13   15 1    
    29   14   93 1    
    30   15   16 1    
    31   15   94 1    
    32   15   95 1    
    33   16   17 1    
    34   17   18 1    
    35   17   96 1    
    36   17   97 1    
    37   18   19 1    
    38   18   22 1    
    39   18   98 1    
    40   19   20 am   BACKBONE|DICT|INTERRES
    41   19   21 2    
    42   20   99 1    
    43   20  100 1    
    44   22   23 am   BACKBONE|DICT|INTERRES
    45   22  101 1    
    46   23   24 2    
    47   23   25 1    
    48   25   26 1    
    49   25   27 1    
    50   25  102 1    
    51   26  103 1    
    52   26  104 1    
    53   26  105 1    
    54   27   28 am   BACKBONE|DICT|INTERRES
    55   27  106 1    
    56   28   29 2    
    57   28   30 1    
    58   30   31 1    
    59   30   32 1    
    60   30  107 1    
    61   31  108 1    
    62   31  109 1    
    63   31  110 1    
    64   32   33 am   BACKBONE|DICT|INTERRES
    65   32  111 1    
    66   33   34 2    
    67   33   35 1    
    68   35   36 1    
    69   35   37 1    
    70   35  112 1    
    71   36  113 1    
    72   36  114 1    
    73   36  115 1    
    74   37   38 am   BACKBONE|DICT|INTERRES
    75   37  116 1    
    76   38   39 2    
    77   38   40 1    
    78   40   41 1    
    79   40   42 1    
    80   40  117 1    
    81   41  118 1    
    82   41  119 1    
    83   41  120 1    
    84   42   43 am   BACKBONE|DICT|INTERRES
    85   42  121 1    
    86   43   44 2    
    87   43   45 1    
    88   45   46 1    
    89   45   47 1    
    90   45  122 1    
    91   46  123 1    
    92   46  124 1    
    93   46  125 1    
    94   47   48 am   BACKBONE|DICT|INTERRES
    95   47  126 1    
    96   48   49 2    
    97   48   50 1    
    98   50   51 1    
    99   50   52 1    
   100   50  127 1    
   101   51  128 1    
   102   51  129 1    
   103   51  130 1    
   104   52   53 am   BACKBONE|DICT|INTERRES
   105   52  131 1    
   106   53   54 2    
   107   53   55 1    
   108   55   56 1    
   109   55   59 1    
   110   55  132 1    
   111   56   57 1    
   112   56  133 1    
   113   56  134 1    
   114   57   58 1    
   115   58  135 1    
   116   58  136 1    
   117   59   60 am   BACKBONE|DICT|INTERRES
   118   59  137 1    
   119   60   61 2    
   120   60   62 1    
   121   62   63 1    
   122   62   64 1    
   123   62  138 1    
   124   63  139 1    
   125   63  140 1    
   126   63  141 1    
   127   64   65 am   BACKBONE|DICT|INTERRES
   128   64  142 1    
   129   65   66 2    
   130   65   67 1    
   131   67   68 1    
   132   67   69 1    
   133   67  143 1    
   134   68  144 1    
   135   68  145 1    
   136   68  146 1    
   137   69   70 am   BACKBONE|DICT|INTERRES
   138   69  147 1    
   139   70   71 2    
   140   70   72 1    
   141   72   73 1    
   142   72   74 1    
   143   72  148 1    
   144   73  149 1    
   145   73  150 1    
   146   73  151 1    
   147   74   75 am   BACKBONE|DICT|INTERRES
   148   74  152 1    
   149   75   76 2    
   150   75   77 1    
   151   77   78 1    
   152   77   79 1    
   153   77  153 1    
   154   78  154 1    
   155   78  155 1    
   156   78  156 1    
   157   79   80 am   BACKBONE|DICT|INTERRES
   158   79  157 1    
   159   80   81 2    
@<TRIPOS>SUBSTRUCTURE
     1 UNK         1 GROUP             0       ****    0 ROOT    
