@<TRIPOS>MOLECULE
3R207
157   159    1
SMALL
USER_CHARGES


@<TRIPOS>ATOM
      1 CA        -45.5813  -27.4826    9.5892 C.3       0 UNK        -0.1975 
      2 C         -45.5658  -27.6990    8.0843 C.2       0 UNK         0.4852 
      3 O         -44.5613  -27.3972    7.4381 O.2       0 UNK        -0.5216 
      4 N         -46.6605  -28.2337    7.5244 N.am      1 UNK        -0.4461 
      5 CA        -46.8284  -28.4665    6.0863 C.3       1 UNK         0.0864 
      6 C6        -48.0032  -29.4385    5.7912 C.3       14 UNK        -0.0898 
      7 S7        -49.6773  -28.7564    6.0753 S.3       14 UNK        -0.2598 
      8 C8        -50.6103  -30.2278    6.5951 C.3       14 UNK         0.0286 
      9 C9        -50.7981  -30.2834    8.1045 C.ar      14 UNK        -0.0844 
     10 C10       -49.7663  -30.7358    8.9322 C.ar      14 UNK        -0.0881 
     11 C11       -49.9620  -30.8506   10.3120 C.ar      14 UNK        -0.0643 
     12 C12       -51.2013  -30.5075   10.8629 C.ar      14 UNK        -0.0930 
     13 C13       -52.2395  -30.0507   10.0465 C.ar      14 UNK        -0.0827 
     14 C14       -52.0289  -29.9329    8.6695 C.ar      14 UNK        -0.1249 
     15 C15       -53.6064  -29.7458   10.6429 C.3       14 UNK         0.0141 
     16 S16       -53.7505  -28.0176   11.1895 S.3       14 UNK        -0.2313 
     17 C17       -55.4262  -28.0614   11.9102 C.3       14 UNK        -0.0915 
     18 CA        -56.0747  -26.6590   12.0379 C.3       13 UNK         0.0968 
     19 C         -57.5663  -26.7722   12.4743 C.2       13 UNK         0.5732 
     20 N         -57.9765  -26.2622   13.6308 N.am      13 UNK        -0.7310 
     21 O         -58.3763  -27.3272   11.7353 O.2       13 UNK        -0.5035 
     22 N         -55.2728  -25.7607   12.8812 N.am      13 UNK        -0.4233 
     23 C         -55.3446  -24.4242   12.8424 C.2       13 UNK         0.4989 
     24 O         -56.0064  -23.8035   12.0083 O.2       13 UNK        -0.4996 
     25 CA        -54.5445  -23.6481   13.9102 C.3       12 UNK         0.0216 
     26 CB        -55.1582  -22.2661   14.2187 C.3       12 UNK        -0.1964 
     27 N         -54.3139  -24.3923   15.1576 N.am      12 UNK        -0.4276 
     28 C         -55.2372  -24.9166   15.9753 C.2       12 UNK         0.5020 
     29 O         -56.4509  -24.8793   15.7604 O.2       12 UNK        -0.5489 
     30 CA        -54.6837  -25.6397   17.2164 C.3       11 UNK         0.0294 
     31 CB        -55.7932  -26.1522   18.1596 C.3       11 UNK        -0.2019 
     32 N         -53.7590  -26.7250   16.8604 N.am      11 UNK        -0.4493 
     33 C         -54.0243  -27.8150   16.1229 C.2       11 UNK         0.4932 
     34 O         -55.1160  -28.0365   15.5996 O.2       11 UNK        -0.5029 
     35 CA        -52.8897  -28.8376   15.9207 C.3       10 UNK         0.0280 
     36 CB        -52.7045  -29.1847   14.4350 C.3       10 UNK        -0.1976 
     37 N         -51.5977  -28.3991   16.4491 N.am      10 UNK        -0.4242 
     38 C         -51.1475  -28.6258   17.6893 C.2       10 UNK         0.5072 
     39 O         -51.8153  -29.1542   18.5786 O.2       10 UNK        -0.5224 
     40 CA        -49.7040  -28.1937   17.9816 C.3       9 UNK         0.0343 
     41 CB        -48.7128  -29.2285   17.4224 C.3       9 UNK        -0.2003 
     42 N         -49.4073  -26.8825   17.4027 N.am      9 UNK        -0.4272 
     43 C         -49.4754  -25.7241   18.0725 C.2       9 UNK         0.4988 
     44 O         -49.7961  -25.6349   19.2581 O.2       9 UNK        -0.5108 
     45 CA        -49.1119  -24.4419   17.3010 C.3       8 UNK         0.0248 
     46 CB        -47.6287  -24.0950   17.5098 C.3       8 UNK        -0.2001 
     47 N         -49.3929  -24.5167   15.8650 N.am      8 UNK        -0.4140 
     48 C         -50.6238  -24.5435   15.3389 C.2       8 UNK         0.5028 
     49 O         -51.6598  -24.5089   16.0036 O.2       8 UNK        -0.5428 
     50 CA        -50.7285  -24.6544   13.8105 C.3       7 UNK         0.0264 
     51 CB        -50.6588  -23.2618   13.1636 C.3       7 UNK        -0.1988 
     52 N         -49.7457  -25.5314   13.1685 N.am      7 UNK        -0.4454 
     53 C         -49.4990  -26.8136   13.4710 C.2       7 UNK         0.5027 
     54 O         -49.9222  -27.3616   14.4903 O.2       7 UNK        -0.5083 
     55 CA        -48.6763  -27.6266   12.4444 C.3       6 UNK         0.0844 
     56 C56       -48.5746  -29.1217   12.8454 C.3       14 UNK        -0.0967 
     57 S57       -47.6323  -30.1261   11.6478 S.3       14 UNK        -0.2604 
     58 C58       -48.8502  -31.4000   11.1946 C.3       14 UNK         0.0134 
     59 N         -49.2044  -27.4400   11.0832 N.am      6 UNK        -0.4116 
     60 C         -48.9474  -26.3801   10.3049 C.2       5 UNK         0.5034 
     61 O         -48.2202  -25.4532   10.6692 O.2       5 UNK        -0.5045 
     62 CA        -49.6036  -26.3700    8.9109 C.3       5 UNK         0.0224 
     63 CB        -51.1423  -26.3575    9.0007 C.3       5 UNK        -0.1978 
     64 N         -49.1168  -25.2885    8.0406 N.am      5 UNK        -0.4737 
     65 C         -49.2775  -23.9651    8.2069 C.2       4 UNK         0.5027 
     66 O         -49.9670  -23.4450    9.0849 O.2       4 UNK        -0.5211 
     67 CA        -48.5356  -23.0617    7.2140 C.3       4 UNK         0.0297 
     68 CB        -47.0367  -23.0009    7.5558 C.3       4 UNK        -0.1993 
     69 N         -48.7024  -23.5300    5.8387 N.am      4 UNK        -0.4486 
     70 C         -49.6617  -23.1079    5.0009 C.2       3 UNK         0.4961 
     71 O         -50.5219  -22.2844    5.3162 O.2       3 UNK        -0.5105 
     72 CA        -49.6512  -23.6657    3.5630 C.3       3 UNK         0.0299 
     73 CB        -49.8981  -22.5593    2.5204 C.3       3 UNK        -0.1972 
     74 N         -48.3758  -24.3195    3.2668 N.am      3 UNK        -0.4305 
     75 C         -48.2210  -25.6109    2.9583 C.2       2 UNK         0.5006 
     76 O         -49.1515  -26.3782    2.7059 O.2       2 UNK        -0.5106 
     77 CA        -46.7818  -26.1644    2.9793 C.3       2 UNK         0.0296 
     78 CB        -45.6829  -25.0948    3.1877 C.3       2 UNK        -0.2002 
     79 N         -46.6514  -27.2306    3.9796 N.am      2 UNK        -0.4032 
     80 C         -46.9413  -27.1468    5.2888 C.2       1 UNK         0.5000 
     81 O         -47.3186  -26.1110    5.8526 O.2       1 UNK        -0.5238 
     82 H82       -45.6372  -26.4179    9.8147 H         1 UNK         0.0889 
     83 H83       -44.6717  -27.8808   10.0379 H         1 UNK         0.0889 
     84 H84       -46.4290  -27.9765   10.0595 H         1 UNK         0.0889 
     85 H85       -47.4549  -28.4716    8.0971 H         1 UNK         0.3028 
     86 H86       -45.9142  -28.9590    5.7467 H         1 UNK         0.0864 
     87 H87       -47.8751  -30.3449    6.3841 H         1 UNK         0.0720 
     88 H88       -47.9589  -29.7681    4.7518 H         1 UNK         0.0720 
     89 H89       -50.1201  -31.1367    6.2434 H         1 UNK         0.0814 
     90 H90       -51.5820  -30.2071    6.0993 H         1 UNK         0.0814 
     91 H91       -48.8168  -31.0224    8.5020 H         1 UNK         0.1469 
     92 H92       -51.3703  -30.6207   11.9245 H         1 UNK         0.1381 
     93 H93       -52.8346  -29.5913    8.0340 H         1 UNK         0.1206 
     94 H94       -53.7969  -30.4072   11.4895 H         1 UNK         0.0813 
     95 H95       -54.3863  -29.9569    9.9096 H         1 UNK         0.0813 
     96 H96       -56.0449  -28.7028   11.2796 H         1 UNK         0.0638 
     97 H97       -55.3779  -28.5483   12.8848 H         1 UNK         0.0638 
     98 H98       -56.0982  -26.2288   11.0349 H         1 UNK         0.0568 
     99 H99       -57.3311  -25.8043   14.2679 H         1 UNK         0.3450 
    100 H100      -58.9474  -26.3462   13.8841 H         1 UNK         0.3450 
    101 H101      -54.7438  -26.2021   13.6179 H         1 UNK         0.2987 
    102 H102      -53.5636  -23.4763   13.4699 H         1 UNK         0.0766 
    103 H103      -54.5620  -21.7225   14.9517 H         1 UNK         0.0798 
    104 H104      -56.1724  -22.3541   14.6098 H         1 UNK         0.0798 
    105 H105      -55.2073  -21.6466   13.3223 H         1 UNK         0.0798 
    106 H106      -53.3388  -24.4755   15.4524 H         1 UNK         0.3198 
    107 H107      -54.0986  -24.9018   17.7680 H         1 UNK         0.0843 
    108 H108      -56.4397  -26.8811   17.6697 H         1 UNK         0.0831 
    109 H109      -56.4282  -25.3310   18.4943 H         1 UNK         0.0831 
    110 H110      -55.3727  -26.6210   19.0491 H         1 UNK         0.0831 
    111 H111      -52.8108  -26.6144   17.1923 H         1 UNK         0.3133 
    112 H112      -53.1920  -29.7506   16.4377 H         1 UNK         0.0566 
    113 H113      -51.9026  -29.9091   14.2947 H         1 UNK         0.0814 
    114 H114      -53.6096  -29.6265   14.0186 H         1 UNK         0.0814 
    115 H115      -52.4632  -28.3003   13.8448 H         1 UNK         0.0814 
    116 H116      -50.9690  -27.9653   15.7736 H         1 UNK         0.3091 
    117 H117      -49.5761  -28.1611   19.0658 H         1 UNK         0.0702 
    118 H118      -47.6847  -28.9643   17.6703 H         1 UNK         0.0785 
    119 H119      -48.7835  -29.3154   16.3374 H         1 UNK         0.0785 
    120 H120      -48.9031  -30.2172   17.8422 H         1 UNK         0.0785 
    121 H121      -49.1955  -26.8603   16.4127 H         1 UNK         0.2998 
    122 H122      -49.7123  -23.6302   17.7180 H         1 UNK         0.0697 
    123 H123      -46.9713  -24.8611   17.0967 H         1 UNK         0.0825 
    124 H124      -47.3952  -24.0042   18.5717 H         1 UNK         0.0825 
    125 H125      -47.3732  -23.1438   17.0424 H         1 UNK         0.0825 
    126 H126      -48.6014  -24.5534   15.2390 H         1 UNK         0.3029 
    127 H127      -51.7084  -25.0831   13.5927 H         1 UNK         0.0897 
    128 H128      -49.6623  -22.8272   13.2515 H         1 UNK         0.0792 
    129 H129      -51.3557  -22.5676   13.6352 H         1 UNK         0.0792 
    130 H130      -50.9108  -23.3043   12.1033 H         1 UNK         0.0792 
    131 H131      -49.3084  -25.1762   12.3231 H         1 UNK         0.3086 
    132 H132      -47.6622  -27.2224   12.4761 H         1 UNK         0.0583 
    133 H133      -48.0741  -29.2150   13.8111 H         1 UNK         0.1020 
    134 H134      -49.5668  -29.5495   12.9900 H         1 UNK         0.1020 
    135 H135      -48.3331  -32.2031   10.6673 H         1 UNK         0.0694 
    136 H136      -49.2611  -31.8516   12.0990 H         1 UNK         0.0694 
    137 H137      -49.8147  -28.1703   10.7431 H         1 UNK         0.2989 
    138 H138      -49.3048  -27.2994    8.4315 H         1 UNK         0.1055 
    139 H139      -51.5094  -27.2567    9.4911 H         1 UNK         0.0806 
    140 H140      -51.5964  -26.3291    8.0102 H         1 UNK         0.0806 
    141 H141      -51.5170  -25.5062    9.5697 H         1 UNK         0.0806 
    142 H142      -48.5056  -25.5878    7.2842 H         1 UNK         0.3061 
    143 H143      -48.9394  -22.0512    7.3107 H         1 UNK         0.0734 
    144 H144      -46.5576  -23.9772    7.4690 H         1 UNK         0.0832 
    145 H145      -46.5086  -22.3094    6.8993 H         1 UNK         0.0832 
    146 H146      -46.8861  -22.6560    8.5797 H         1 UNK         0.0832 
    147 H147      -48.1068  -24.3025    5.5552 H         1 UNK         0.3156 
    148 H148      -50.4727  -24.3823    3.5035 H         1 UNK         0.0589 
    149 H149      -49.1386  -21.7784    2.5735 H         1 UNK         0.0808 
    150 H150      -49.8941  -22.9629    1.5077 H         1 UNK         0.0808 
    151 H151      -50.8680  -22.0838    2.6722 H         1 UNK         0.0808 
    152 H152      -47.5455  -23.7714    3.4450 H         1 UNK         0.3098 
    153 H153      -46.6173  -26.6245    2.0038 H         1 UNK         0.0720 
    154 H154      -45.7574  -24.6024    4.1582 H         1 UNK         0.0791 
    155 H155      -45.7243  -24.3264    2.4145 H         1 UNK         0.0791 
    156 H156      -44.6915  -25.5444    3.1301 H         1 UNK         0.0791 
    157 H157      -46.3918  -28.1340    3.6090 H         1 UNK         0.3028 
@<TRIPOS>BOND
     1    1    2 1    
     2    1   82 1    
     3    1   83 1    
     4    1   84 1    
     5    2    3 2    
     6    2    4 am   BACKBONE|DICT|INTERRES
     7    4    5 1    
     8    4   85 1    
     9    5    6 1    
    10    5   80 1    
    11    5   86 1    
    12    6    7 1    
    13    6   87 1    
    14    6   88 1    
    15    7    8 1    
    16    8    9 1    
    17    8   89 1    
    18    8   90 1    
    19    9   10 ar   
    20    9   14 ar   
    21   10   11 ar   
    22   10   91 1    
    23   11   12 ar   
    24   11   58 1    
    25   12   13 ar   
    26   12   92 1    
    27   13   14 ar   
    28   13   15 1    
    29   14   93 1    
    30   15   16 1    
    31   15   94 1    
    32   15   95 1    
    33   16   17 1    
    34   17   18 1    
    35   17   96 1    
    36   17   97 1    
    37   18   19 1    
    38   18   22 1    
    39   18   98 1    
    40   19   20 am   BACKBONE|DICT|INTERRES
    41   19   21 2    
    42   20   99 1    
    43   20  100 1    
    44   22   23 am   BACKBONE|DICT|INTERRES
    45   22  101 1    
    46   23   24 2    
    47   23   25 1    
    48   25   26 1    
    49   25   27 1    
    50   25  102 1    
    51   26  103 1    
    52   26  104 1    
    53   26  105 1    
    54   27   28 am   BACKBONE|DICT|INTERRES
    55   27  106 1    
    56   28   29 2    
    57   28   30 1    
    58   30   31 1    
    59   30   32 1    
    60   30  107 1    
    61   31  108 1    
    62   31  109 1    
    63   31  110 1    
    64   32   33 am   BACKBONE|DICT|INTERRES
    65   32  111 1    
    66   33   34 2    
    67   33   35 1    
    68   35   36 1    
    69   35   37 1    
    70   35  112 1    
    71   36  113 1    
    72   36  114 1    
    73   36  115 1    
    74   37   38 am   BACKBONE|DICT|INTERRES
    75   37  116 1    
    76   38   39 2    
    77   38   40 1    
    78   40   41 1    
    79   40   42 1    
    80   40  117 1    
    81   41  118 1    
    82   41  119 1    
    83   41  120 1    
    84   42   43 am   BACKBONE|DICT|INTERRES
    85   42  121 1    
    86   43   44 2    
    87   43   45 1    
    88   45   46 1    
    89   45   47 1    
    90   45  122 1    
    91   46  123 1    
    92   46  124 1    
    93   46  125 1    
    94   47   48 am   BACKBONE|DICT|INTERRES
    95   47  126 1    
    96   48   49 2    
    97   48   50 1    
    98   50   51 1    
    99   50   52 1    
   100   50  127 1    
   101   51  128 1    
   102   51  129 1    
   103   51  130 1    
   104   52   53 am   BACKBONE|DICT|INTERRES
   105   52  131 1    
   106   53   54 2    
   107   53   55 1    
   108   55   56 1    
   109   55   59 1    
   110   55  132 1    
   111   56   57 1    
   112   56  133 1    
   113   56  134 1    
   114   57   58 1    
   115   58  135 1    
   116   58  136 1    
   117   59   60 am   BACKBONE|DICT|INTERRES
   118   59  137 1    
   119   60   61 2    
   120   60   62 1    
   121   62   63 1    
   122   62   64 1    
   123   62  138 1    
   124   63  139 1    
   125   63  140 1    
   126   63  141 1    
   127   64   65 am   BACKBONE|DICT|INTERRES
   128   64  142 1    
   129   65   66 2    
   130   65   67 1    
   131   67   68 1    
   132   67   69 1    
   133   67  143 1    
   134   68  144 1    
   135   68  145 1    
   136   68  146 1    
   137   69   70 am   BACKBONE|DICT|INTERRES
   138   69  147 1    
   139   70   71 2    
   140   70   72 1    
   141   72   73 1    
   142   72   74 1    
   143   72  148 1    
   144   73  149 1    
   145   73  150 1    
   146   73  151 1    
   147   74   75 am   BACKBONE|DICT|INTERRES
   148   74  152 1    
   149   75   76 2    
   150   75   77 1    
   151   77   78 1    
   152   77   79 1    
   153   77  153 1    
   154   78  154 1    
   155   78  155 1    
   156   78  156 1    
   157   79   80 am   BACKBONE|DICT|INTERRES
   158   79  157 1    
   159   80   81 2    
@<TRIPOS>SUBSTRUCTURE
     1 UNK         1 GROUP             0       ****    0 ROOT    
