@<TRIPOS>MOLECULE
3R207
157   159    1
SMALL
USER_CHARGES


@<TRIPOS>ATOM
      1 CA        -49.4233  -31.1337   10.2860 C.3       0 UNK        -0.1975 
      2 C         -48.5876  -30.5188    9.1724 C.2       0 UNK         0.4852 
      3 O         -47.5736  -31.0949    8.7785 O.2       0 UNK        -0.5216 
      4 N         -49.0000  -29.3468    8.6693 N.am      1 UNK        -0.4461 
      5 CA        -48.3203  -28.6027    7.5984 C.3       1 UNK         0.0864 
      6 C6        -49.2756  -27.5812    6.9315 C.3       14 UNK        -0.0898 
      7 S7        -50.4161  -28.3523    5.7315 S.3       14 UNK        -0.2598 
      8 C8        -51.6694  -29.1867    6.7672 C.3       14 UNK         0.0286 
      9 C9        -52.2754  -28.2998    7.8489 C.ar      14 UNK        -0.0844 
     10 C10       -52.7409  -27.0177    7.5450 C.ar      14 UNK        -0.0881 
     11 C11       -53.2943  -26.2061    8.5378 C.ar      14 UNK        -0.0643 
     12 C12       -53.4085  -26.6956    9.8436 C.ar      14 UNK        -0.0930 
     13 C13       -52.9757  -27.9894   10.1562 C.ar      14 UNK        -0.0827 
     14 C14       -52.3991  -28.7791    9.1560 C.ar      14 UNK        -0.1249 
     15 C15       -53.1313  -28.5325   11.5730 C.3       14 UNK         0.0141 
     16 S16       -54.0306  -30.1162   11.6381 S.3       14 UNK        -0.2313 
     17 C17       -55.6878  -29.6482   11.0252 C.3       14 UNK        -0.0915 
     18 CA        -56.8300  -29.9008   12.0446 C.3       13 UNK         0.0968 
     19 C         -57.0935  -31.4191   12.2831 C.2       13 UNK         0.5732 
     20 N         -56.9499  -31.9483   13.4939 N.am      13 UNK        -0.7310 
     21 O         -57.4540  -32.1298   11.3476 O.2       13 UNK        -0.5035 
     22 N         -56.6448  -29.1074   13.2665 N.am      13 UNK        -0.4233 
     23 C         -57.6201  -28.7889   14.1264 C.2       13 UNK         0.4989 
     24 O         -58.8132  -29.0186   13.9192 O.2       13 UNK        -0.4996 
     25 CA        -57.1872  -28.1018   15.4376 C.3       12 UNK         0.0216 
     26 CB        -58.1943  -28.3266   16.5856 C.3       12 UNK        -0.1964 
     27 N         -55.8266  -28.4498   15.8736 N.am      12 UNK        -0.4276 
     28 C         -55.3482  -29.6725   16.1626 C.2       12 UNK         0.5020 
     29 O         -56.0110  -30.7041   16.0418 O.2       12 UNK        -0.5489 
     30 CA        -53.8808  -29.7878   16.6250 C.3       11 UNK         0.0294 
     31 CB        -53.0558  -30.5726   15.5904 C.3       11 UNK        -0.2019 
     32 N         -53.2361  -28.4932   16.8645 N.am      11 UNK        -0.4493 
     33 C         -53.4508  -27.7151   17.9375 C.2       11 UNK         0.4932 
     34 O         -54.1383  -28.0600   18.8986 O.2       11 UNK        -0.5029 
     35 CA        -52.8330  -26.2996   17.9321 C.3       10 UNK         0.0280 
     36 CB        -51.5381  -26.2788   18.7599 C.3       10 UNK        -0.1976 
     37 N         -52.5543  -25.7678   16.5931 N.am      10 UNK        -0.4242 
     38 C         -53.4567  -25.6067   15.6141 C.2       10 UNK         0.5072 
     39 O         -54.6649  -25.7869   15.7687 O.2       10 UNK        -0.5224 
     40 CA        -52.9326  -25.2621   14.2061 C.3       9 UNK         0.0343 
     41 CB        -53.1478  -23.7692   13.9122 C.3       9 UNK        -0.2003 
     42 N         -51.5328  -25.6309   13.9298 N.am      9 UNK        -0.4272 
     43 C         -50.9873  -26.8490   14.1023 C.2       9 UNK         0.4988 
     44 O         -51.6188  -27.8028   14.5568 O.2       9 UNK        -0.5108 
     45 CA        -49.5090  -27.0686   13.7191 C.3       8 UNK         0.0248 
     46 CB        -49.3491  -28.3018   12.8100 C.3       8 UNK        -0.2001 
     47 N         -48.9006  -25.9192   13.0523 N.am      8 UNK        -0.4140 
     48 C         -48.3692  -24.8412   13.6448 C.2       8 UNK         0.5028 
     49 O         -48.2637  -24.7116   14.8642 O.2       8 UNK        -0.5428 
     50 CA        -47.9213  -23.6957   12.7112 C.3       7 UNK         0.0264 
     51 CB        -46.3894  -23.5921   12.6442 C.3       7 UNK        -0.1988 
     52 N         -48.4823  -23.7969   11.3523 N.am      7 UNK        -0.4454 
     53 C         -49.7912  -23.6320   11.0933 C.2       7 UNK         0.5027 
     54 O         -50.6044  -23.3632   11.9782 O.2       7 UNK        -0.5083 
     55 CA        -50.2854  -23.8475    9.6445 C.3       6 UNK         0.0844 
     56 C56       -51.7422  -23.3350    9.4507 C.3       14 UNK        -0.0967 
     57 S57       -52.4177  -23.6787    7.7913 S.3       14 UNK        -0.2604 
     58 C58       -53.7901  -24.8136    8.1775 C.3       14 UNK         0.0134 
     59 N         -49.3394  -23.3266    8.6507 N.am      6 UNK        -0.4116 
     60 C         -48.9901  -22.0429    8.4808 C.2       5 UNK         0.5034 
     61 O         -49.4090  -21.1184    9.1790 O.2       5 UNK        -0.5045 
     62 CA        -48.0082  -21.7368    7.3389 C.3       5 UNK         0.0224 
     63 CB        -47.0335  -20.5977    7.6973 C.3       5 UNK        -0.1978 
     64 N         -47.2371  -22.9191    6.9476 N.am      5 UNK        -0.4737 
     65 C         -46.8931  -23.2359    5.6916 C.2       4 UNK         0.5027 
     66 O         -47.3135  -22.6384    4.6999 O.2       4 UNK        -0.5211 
     67 CA        -45.8999  -24.4073    5.5183 C.3       4 UNK         0.0297 
     68 CB        -45.0239  -24.2640    4.2560 C.3       4 UNK        -0.1993 
     69 N         -45.0717  -24.6391    6.7105 N.am      4 UNK        -0.4486 
     70 C         -44.2399  -23.7675    7.3089 C.2       3 UNK         0.4961 
     71 O         -43.9249  -22.6820    6.8203 O.2       3 UNK        -0.5105 
     72 CA        -43.6862  -24.1365    8.7023 C.3       3 UNK         0.0299 
     73 CB        -43.9019  -22.9876    9.7106 C.3       3 UNK        -0.1972 
     74 N         -44.1886  -25.4047    9.2496 N.am      3 UNK        -0.4305 
     75 C         -45.4457  -25.7212    9.5915 C.2       2 UNK         0.5006 
     76 O         -46.4105  -24.9490    9.5378 O.2       2 UNK        -0.5106 
     77 CA        -45.6548  -27.1815   10.0225 C.3       2 UNK         0.0296 
     78 CB        -45.7542  -27.3023   11.5492 C.3       2 UNK        -0.2002 
     79 N         -46.8364  -27.7785    9.3993 N.am      2 UNK        -0.4032 
     80 C         -47.0251  -27.9088    8.0764 C.2       1 UNK         0.5000 
     81 O         -46.2178  -27.5063    7.2346 O.2       1 UNK        -0.5238 
     82 H82       -48.7833  -31.4237   11.1190 H         1 UNK         0.0889 
     83 H83       -49.9337  -32.0253    9.9228 H         1 UNK         0.0889 
     84 H84       -50.1738  -30.4426   10.6675 H         1 UNK         0.0889 
     85 H85       -49.8561  -28.9308    9.0079 H         1 UNK         0.3028 
     86 H86       -48.0035  -29.3202    6.8379 H         1 UNK         0.0864 
     87 H87       -48.7139  -26.8396    6.3593 H         1 UNK         0.0720 
     88 H88       -49.8321  -27.0102    7.6762 H         1 UNK         0.0720 
     89 H89       -51.2236  -30.0823    7.2015 H         1 UNK         0.0814 
     90 H90       -52.4734  -29.5382    6.1194 H         1 UNK         0.0814 
     91 H91       -52.6611  -26.6424    6.5337 H         1 UNK         0.1469 
     92 H92       -53.8487  -26.0745   10.6116 H         1 UNK         0.1381 
     93 H93       -52.0750  -29.7825    9.3936 H         1 UNK         0.1206 
     94 H94       -52.1420  -28.6889   11.9993 H         1 UNK         0.0813 
     95 H95       -53.6371  -27.8141   12.2182 H         1 UNK         0.0813 
     96 H96       -55.8734  -30.1936   10.0982 H         1 UNK         0.0638 
     97 H97       -55.6856  -28.5945   10.7433 H         1 UNK         0.0638 
     98 H98       -57.7427  -29.5334   11.5717 H         1 UNK         0.0568 
     99 H99       -56.6555  -31.3875   14.2870 H         1 UNK         0.3450 
    100 H100      -57.1331  -32.9302   13.6212 H         1 UNK         0.3450 
    101 H101      -55.6898  -28.9107   13.5226 H         1 UNK         0.2987 
    102 H102      -57.1692  -27.0327   15.2212 H         1 UNK         0.0766 
    103 H103      -59.1802  -27.9388   16.3263 H         1 UNK         0.0798 
    104 H104      -57.8775  -27.8170   17.4955 H         1 UNK         0.0798 
    105 H105      -58.3118  -29.3857   16.8178 H         1 UNK         0.0798 
    106 H106      -55.2050  -27.6518   15.9778 H         1 UNK         0.3198 
    107 H107      -53.8808  -30.3523   17.5599 H         1 UNK         0.0843 
    108 H108      -53.0504  -30.0776   14.6189 H         1 UNK         0.0831 
    109 H109      -53.4633  -31.5734   15.4410 H         1 UNK         0.0831 
    110 H110      -52.0207  -30.6892   15.9116 H         1 UNK         0.0831 
    111 H111      -52.6404  -28.1477   16.1141 H         1 UNK         0.3133 
    112 H112      -53.5537  -25.6295   18.4050 H         1 UNK         0.0566 
    113 H113      -51.1366  -25.2689   18.8463 H         1 UNK         0.0814 
    114 H114      -50.7671  -26.9120   18.3188 H         1 UNK         0.0814 
    115 H115      -51.7166  -26.6413   19.7734 H         1 UNK         0.0814 
    116 H116      -51.5849  -25.5995   16.3668 H         1 UNK         0.3091 
    117 H117      -53.5508  -25.8268   13.5069 H         1 UNK         0.0702 
    118 H118      -53.0400  -23.5568   12.8491 H         1 UNK         0.0785 
    119 H119      -52.4395  -23.1434   14.4564 H         1 UNK         0.0785 
    120 H120      -54.1521  -23.4495   14.1949 H         1 UNK         0.0785 
    121 H121      -50.9604  -24.8993   13.5262 H         1 UNK         0.2998 
    122 H122      -48.9704  -27.2627   14.6489 H         1 UNK         0.0697 
    123 H123      -49.8113  -28.1477   11.8349 H         1 UNK         0.0825 
    124 H124      -49.8079  -29.1865   13.2545 H         1 UNK         0.0825 
    125 H125      -48.2984  -28.5415   12.6508 H         1 UNK         0.0825 
    126 H126      -48.9501  -25.9089   12.0452 H         1 UNK         0.3029 
    127 H127      -48.2923  -22.7686   13.1543 H         1 UNK         0.0897 
    128 H128      -45.9352  -24.4875   12.2252 H         1 UNK         0.0792 
    129 H129      -45.9658  -23.4512   13.6395 H         1 UNK         0.0792 
    130 H130      -46.0774  -22.7415   12.0385 H         1 UNK         0.0792 
    131 H131      -47.8413  -24.0455   10.6028 H         1 UNK         0.3086 
    132 H132      -50.3021  -24.9291    9.5011 H         1 UNK         0.0583 
    133 H133      -52.4029  -23.7836   10.1947 H         1 UNK         0.1020 
    134 H134      -51.7970  -22.2588    9.6235 H         1 UNK         0.1020 
    135 H135      -54.4035  -24.3933    8.9761 H         1 UNK         0.0694 
    136 H136      -54.4393  -24.8848    7.3036 H         1 UNK         0.0694 
    137 H137      -48.9513  -24.0060    8.0136 H         1 UNK         0.2989 
    138 H138      -48.6263  -21.4084    6.5002 H         1 UNK         0.1055 
    139 H139      -46.4206  -20.8526    8.5626 H         1 UNK         0.0806 
    140 H140      -47.5685  -19.6767    7.9325 H         1 UNK         0.0806 
    141 H141      -46.3618  -20.3754    6.8678 H         1 UNK         0.0806 
    142 H142      -46.8389  -23.4661    7.7022 H         1 UNK         0.3061 
    143 H143      -46.5105  -25.3032    5.3962 H         1 UNK         0.0734 
    144 H144      -44.4378  -23.3447    4.2711 H         1 UNK         0.0832 
    145 H145      -44.3336  -25.1014    4.1549 H         1 UNK         0.0832 
    146 H146      -45.6375  -24.2415    3.3546 H         1 UNK         0.0832 
    147 H147      -45.2527  -25.5189    7.1814 H         1 UNK         0.3156 
    148 H148      -42.6109  -24.2692    8.5751 H         1 UNK         0.0589 
    149 H149      -43.5224  -23.2470   10.6989 H         1 UNK         0.0808 
    150 H150      -43.3803  -22.0842    9.3921 H         1 UNK         0.0808 
    151 H151      -44.9563  -22.7298    9.8121 H         1 UNK         0.0808 
    152 H152      -43.4914  -26.1339    9.3211 H         1 UNK         0.3098 
    153 H153      -44.7942  -27.7691    9.6953 H         1 UNK         0.0720 
    154 H154      -44.8745  -26.8775   12.0347 H         1 UNK         0.0791 
    155 H155      -45.8216  -28.3445   11.8621 H         1 UNK         0.0791 
    156 H156      -46.6244  -26.7784   11.9368 H         1 UNK         0.0791 
    157 H157      -47.5484  -28.1360   10.0160 H         1 UNK         0.3028 
@<TRIPOS>BOND
     1    1    2 1    
     2    1   82 1    
     3    1   83 1    
     4    1   84 1    
     5    2    3 2    
     6    2    4 am   BACKBONE|DICT|INTERRES
     7    4    5 1    
     8    4   85 1    
     9    5    6 1    
    10    5   80 1    
    11    5   86 1    
    12    6    7 1    
    13    6   87 1    
    14    6   88 1    
    15    7    8 1    
    16    8    9 1    
    17    8   89 1    
    18    8   90 1    
    19    9   10 ar   
    20    9   14 ar   
    21   10   11 ar   
    22   10   91 1    
    23   11   12 ar   
    24   11   58 1    
    25   12   13 ar   
    26   12   92 1    
    27   13   14 ar   
    28   13   15 1    
    29   14   93 1    
    30   15   16 1    
    31   15   94 1    
    32   15   95 1    
    33   16   17 1    
    34   17   18 1    
    35   17   96 1    
    36   17   97 1    
    37   18   19 1    
    38   18   22 1    
    39   18   98 1    
    40   19   20 am   BACKBONE|DICT|INTERRES
    41   19   21 2    
    42   20   99 1    
    43   20  100 1    
    44   22   23 am   BACKBONE|DICT|INTERRES
    45   22  101 1    
    46   23   24 2    
    47   23   25 1    
    48   25   26 1    
    49   25   27 1    
    50   25  102 1    
    51   26  103 1    
    52   26  104 1    
    53   26  105 1    
    54   27   28 am   BACKBONE|DICT|INTERRES
    55   27  106 1    
    56   28   29 2    
    57   28   30 1    
    58   30   31 1    
    59   30   32 1    
    60   30  107 1    
    61   31  108 1    
    62   31  109 1    
    63   31  110 1    
    64   32   33 am   BACKBONE|DICT|INTERRES
    65   32  111 1    
    66   33   34 2    
    67   33   35 1    
    68   35   36 1    
    69   35   37 1    
    70   35  112 1    
    71   36  113 1    
    72   36  114 1    
    73   36  115 1    
    74   37   38 am   BACKBONE|DICT|INTERRES
    75   37  116 1    
    76   38   39 2    
    77   38   40 1    
    78   40   41 1    
    79   40   42 1    
    80   40  117 1    
    81   41  118 1    
    82   41  119 1    
    83   41  120 1    
    84   42   43 am   BACKBONE|DICT|INTERRES
    85   42  121 1    
    86   43   44 2    
    87   43   45 1    
    88   45   46 1    
    89   45   47 1    
    90   45  122 1    
    91   46  123 1    
    92   46  124 1    
    93   46  125 1    
    94   47   48 am   BACKBONE|DICT|INTERRES
    95   47  126 1    
    96   48   49 2    
    97   48   50 1    
    98   50   51 1    
    99   50   52 1    
   100   50  127 1    
   101   51  128 1    
   102   51  129 1    
   103   51  130 1    
   104   52   53 am   BACKBONE|DICT|INTERRES
   105   52  131 1    
   106   53   54 2    
   107   53   55 1    
   108   55   56 1    
   109   55   59 1    
   110   55  132 1    
   111   56   57 1    
   112   56  133 1    
   113   56  134 1    
   114   57   58 1    
   115   58  135 1    
   116   58  136 1    
   117   59   60 am   BACKBONE|DICT|INTERRES
   118   59  137 1    
   119   60   61 2    
   120   60   62 1    
   121   62   63 1    
   122   62   64 1    
   123   62  138 1    
   124   63  139 1    
   125   63  140 1    
   126   63  141 1    
   127   64   65 am   BACKBONE|DICT|INTERRES
   128   64  142 1    
   129   65   66 2    
   130   65   67 1    
   131   67   68 1    
   132   67   69 1    
   133   67  143 1    
   134   68  144 1    
   135   68  145 1    
   136   68  146 1    
   137   69   70 am   BACKBONE|DICT|INTERRES
   138   69  147 1    
   139   70   71 2    
   140   70   72 1    
   141   72   73 1    
   142   72   74 1    
   143   72  148 1    
   144   73  149 1    
   145   73  150 1    
   146   73  151 1    
   147   74   75 am   BACKBONE|DICT|INTERRES
   148   74  152 1    
   149   75   76 2    
   150   75   77 1    
   151   77   78 1    
   152   77   79 1    
   153   77  153 1    
   154   78  154 1    
   155   78  155 1    
   156   78  156 1    
   157   79   80 am   BACKBONE|DICT|INTERRES
   158   79  157 1    
   159   80   81 2    
@<TRIPOS>SUBSTRUCTURE
     1 UNK         1 GROUP             0       ****    0 ROOT    
