@<TRIPOS>MOLECULE
3R207
157   159    1
SMALL
USER_CHARGES


@<TRIPOS>ATOM
      1 CA        -46.0186  -27.5444    4.6782 C.3       0 UNK        -0.1975 
      2 C         -47.5183  -27.4351    4.9111 C.2       0 UNK         0.4852 
      3 O         -48.2181  -26.8177    4.1071 O.2       0 UNK        -0.5216 
      4 N         -48.0134  -28.0387    5.9997 N.am      1 UNK        -0.4461 
      5 CA        -49.4160  -27.9975    6.4319 C.3       1 UNK         0.0864 
      6 C6        -49.6945  -28.9834    7.5939 C.3       14 UNK        -0.0898 
      7 S7        -49.1837  -30.6929    7.2135 S.3       14 UNK        -0.2598 
      8 C8        -50.5675  -31.6664    7.8984 C.3       14 UNK         0.0286 
      9 C9        -50.7013  -31.5589    9.4157 C.ar      14 UNK        -0.0844 
     10 C10       -49.5822  -31.6778   10.2487 C.ar      14 UNK        -0.0881 
     11 C11       -49.7080  -31.5901   11.6409 C.ar      14 UNK        -0.0643 
     12 C12       -50.9795  -31.4115   12.1956 C.ar      14 UNK        -0.0930 
     13 C13       -52.1111  -31.3218   11.3789 C.ar      14 UNK        -0.0827 
     14 C14       -51.9645  -31.3871    9.9905 C.ar      14 UNK        -0.1249 
     15 C15       -53.4941  -31.2022   12.0032 C.3       14 UNK         0.0141 
     16 S16       -53.9600  -29.4738   12.3132 S.3       14 UNK        -0.2313 
     17 C17       -54.5699  -28.9510   10.6778 C.3       14 UNK        -0.0915 
     18 CA        -55.3836  -27.6303   10.7135 C.3       13 UNK         0.0968 
     19 C         -56.7892  -27.8184   11.3507 C.2       13 UNK         0.5732 
     20 N         -57.0203  -27.4056   12.5910 N.am      13 UNK        -0.7310 
     21 O         -57.6928  -28.3346   10.6969 O.2       13 UNK        -0.5035 
     22 N         -54.6149  -26.5088   11.2764 N.am      13 UNK        -0.4233 
     23 C         -54.8017  -25.2297   10.9263 C.2       13 UNK         0.4989 
     24 O         -55.6114  -24.8635   10.0710 O.2       13 UNK        -0.4996 
     25 CA        -53.9369  -24.1930   11.6642 C.3       12 UNK         0.0216 
     26 CB        -54.0904  -22.7589   11.1135 C.3       12 UNK        -0.1964 
     27 N         -54.1526  -24.2398   13.1136 N.am      12 UNK        -0.4276 
     28 C         -55.2795  -23.9449   13.7789 C.2       12 UNK         0.5020 
     29 O         -56.3118  -23.5423   13.2398 O.2       12 UNK        -0.5489 
     30 CA        -55.2434  -24.0988   15.3139 C.3       11 UNK         0.0294 
     31 CB        -56.6475  -24.3170   15.9190 C.3       11 UNK        -0.2019 
     32 N         -54.3104  -25.1211   15.8060 N.am      11 UNK        -0.4493 
     33 C         -54.3365  -26.4381   15.5510 C.2       11 UNK         0.4932 
     34 O         -55.1275  -26.9689   14.7705 O.2       11 UNK        -0.5029 
     35 CA        -53.2920  -27.2827   16.3015 C.3       10 UNK         0.0280 
     36 CB        -53.1549  -28.7143   15.7559 C.3       10 UNK        -0.1976 
     37 N         -51.9864  -26.6315   16.2325 N.am      10 UNK        -0.4242 
     38 C         -51.2895  -26.1479   17.2689 C.2       10 UNK         0.5072 
     39 O         -51.6794  -26.1971   18.4361 O.2       10 UNK        -0.5224 
     40 CA        -49.9293  -25.4904   16.9665 C.3       9 UNK         0.0343 
     41 CB        -48.7776  -26.3751   17.4721 C.3       9 UNK        -0.2003 
     42 N         -49.7288  -25.2105   15.5424 N.am      9 UNK        -0.4272 
     43 C         -50.2724  -24.1713   14.8904 C.2       9 UNK         0.4988 
     44 O         -50.9749  -23.3173   15.4313 O.2       9 UNK        -0.5108 
     45 CA        -50.0204  -24.0849   13.3735 C.3       8 UNK         0.0248 
     46 CB        -48.7317  -23.2916   13.1090 C.3       8 UNK        -0.2001 
     47 N         -49.9297  -25.3910   12.7122 N.am      8 UNK        -0.4140 
     48 C         -50.8855  -26.3342   12.7343 C.2       8 UNK         0.5028 
     49 O         -51.9763  -26.1833   13.2851 O.2       8 UNK        -0.5428 
     50 CA        -50.5628  -27.6952   12.0949 C.3       7 UNK         0.0264 
     51 CB        -51.0269  -27.7108   10.6350 C.3       7 UNK        -0.1988 
     52 N         -49.1496  -28.0709   12.1370 N.am      7 UNK        -0.4454 
     53 C         -48.3622  -28.0910   13.2209 C.2       7 UNK         0.5027 
     54 O         -48.7617  -27.8617   14.3632 O.2       7 UNK        -0.5083 
     55 CA        -46.8585  -28.3483   12.9869 C.3       6 UNK         0.0844 
     56 C56       -46.4990  -29.8283   13.2756 C.3       14 UNK        -0.0967 
     57 S57       -46.9698  -30.9792   11.9308 S.3       14 UNK        -0.2604 
     58 C58       -48.5007  -31.7515   12.5650 C.3       14 UNK         0.0134 
     59 N         -46.3445  -27.9140   11.6777 N.am      6 UNK        -0.4116 
     60 C         -46.5118  -26.7303   11.0691 C.2       5 UNK         0.5034 
     61 O         -47.1783  -25.8031   11.5369 O.2       5 UNK        -0.5045 
     62 CA        -45.8263  -26.5795    9.6987 C.3       5 UNK         0.0224 
     63 CB        -45.9144  -27.8601    8.8450 C.3       5 UNK        -0.1978 
     64 N         -46.4158  -25.4746    8.9405 N.am      5 UNK        -0.4737 
     65 C         -45.8097  -24.3071    8.6923 C.2       4 UNK         0.5027 
     66 O         -44.6674  -24.0300    9.0600 O.2       4 UNK        -0.5211 
     67 CA        -46.6077  -23.2729    7.8869 C.3       4 UNK         0.0297 
     68 CB        -46.4727  -23.5476    6.3796 C.3       4 UNK        -0.1993 
     69 N         -48.0236  -23.2837    8.2539 N.am      4 UNK        -0.4486 
     70 C         -48.5750  -22.4986    9.1909 C.2       3 UNK         0.4961 
     71 O         -47.9370  -21.6671    9.8377 O.2       3 UNK        -0.5105 
     72 CA        -50.0937  -22.6340    9.4245 C.3       3 UNK         0.0299 
     73 CB        -50.7437  -21.2792    9.7607 C.3       3 UNK        -0.1972 
     74 N         -50.7378  -23.1968    8.2380 N.am      3 UNK        -0.4305 
     75 C         -51.4426  -24.3326    8.2026 C.2       2 UNK         0.5006 
     76 O         -51.8140  -24.9459    9.2008 O.2       2 UNK        -0.5106 
     77 CA        -51.7440  -24.9215    6.8099 C.3       2 UNK         0.0296 
     78 CB        -51.3692  -23.9880    5.6349 C.3       2 UNK        -0.2002 
     79 N         -51.1128  -26.2346    6.6116 N.am      2 UNK        -0.4032 
     80 C         -49.8289  -26.5651    6.8328 C.2       1 UNK         0.5000 
     81 O         -48.9891  -25.8109    7.3393 O.2       1 UNK        -0.5238 
     82 H82       -45.5465  -26.5727    4.8207 H         1 UNK         0.0889 
     83 H83       -45.8192  -27.8750    3.6592 H         1 UNK         0.0889 
     84 H84       -45.5507  -28.2547    5.3595 H         1 UNK         0.0889 
     85 H85       -47.3937  -28.5531    6.6067 H         1 UNK         0.3028 
     86 H86       -50.0234  -28.2971    5.5750 H         1 UNK         0.0864 
     87 H87       -49.1780  -28.6755    8.5034 H         1 UNK         0.0720 
     88 H88       -50.7594  -28.9818    7.8335 H         1 UNK         0.0720 
     89 H89       -50.4172  -32.7149    7.6389 H         1 UNK         0.0814 
     90 H90       -51.4902  -31.3576    7.4044 H         1 UNK         0.0814 
     91 H91       -48.6093  -31.8435    9.8077 H         1 UNK         0.1469 
     92 H92       -51.0952  -31.3633   13.2698 H         1 UNK         0.1381 
     93 H93       -52.8398  -31.3191    9.3591 H         1 UNK         0.1206 
     94 H94       -53.5125  -31.7388   12.9529 H         1 UNK         0.0813 
     95 H95       -54.2436  -31.6845   11.3741 H         1 UNK         0.0813 
     96 H96       -53.7142  -28.8417   10.0118 H         1 UNK         0.0638 
     97 H97       -55.1725  -29.7534   10.2485 H         1 UNK         0.0638 
     98 H98       -55.5796  -27.3872    9.6672 H         1 UNK         0.0568 
     99 H99       -57.9391  -27.5274   12.9833 H         1 UNK         0.3450 
    100 H100      -56.2629  -27.0767   13.1817 H         1 UNK         0.3450 
    101 H101      -53.9642  -26.7346   12.0181 H         1 UNK         0.2987 
    102 H102      -52.8997  -24.4825   11.5003 H         1 UNK         0.0766 
    103 H103      -53.4362  -22.0625   11.6374 H         1 UNK         0.0798 
    104 H104      -55.1128  -22.3909   11.2000 H         1 UNK         0.0798 
    105 H105      -53.8254  -22.7262   10.0561 H         1 UNK         0.0798 
    106 H106      -53.3917  -24.6602   13.6366 H         1 UNK         0.3198 
    107 H107      -54.8696  -23.1465   15.6934 H         1 UNK         0.0843 
    108 H108      -57.1174  -25.2212   15.5304 H         1 UNK         0.0831 
    109 H109      -57.3100  -23.4822   15.6868 H         1 UNK         0.0831 
    110 H110      -56.6049  -24.4001   17.0048 H         1 UNK         0.0831 
    111 H111      -53.5930  -24.7868   16.4351 H         1 UNK         0.3133 
    112 H112      -53.6378  -27.3509   17.3346 H         1 UNK         0.0566 
    113 H113      -52.5087  -29.3172   16.3938 H         1 UNK         0.0814 
    114 H114      -54.1204  -29.2190   15.7023 H         1 UNK         0.0814 
    115 H115      -52.7224  -28.7140   14.7563 H         1 UNK         0.0814 
    116 H116      -51.6286  -26.4915   15.2932 H         1 UNK         0.3091 
    117 H117      -49.8948  -24.5462   17.5143 H         1 UNK         0.0702 
    118 H118      -47.8085  -25.9121   17.2857 H         1 UNK         0.0785 
    119 H119      -48.7803  -27.3549   16.9934 H         1 UNK         0.0785 
    120 H120      -48.8559  -26.5397   18.5476 H         1 UNK         0.0785 
    121 H121      -49.2126  -25.9082   15.0167 H         1 UNK         0.2998 
    122 H122      -50.8583  -23.5482   12.9239 H         1 UNK         0.0697 
    123 H123      -47.8642  -23.7678   13.5681 H         1 UNK         0.0825 
    124 H124      -48.8036  -22.2808   13.5127 H         1 UNK         0.0825 
    125 H125      -48.5271  -23.2015   12.0442 H         1 UNK         0.0825 
    126 H126      -49.0494  -25.6039   12.2512 H         1 UNK         0.3029 
    127 H127      -51.1209  -28.4516   12.6490 H         1 UNK         0.0897 
    128 H128      -50.3930  -27.0870   10.0043 H         1 UNK         0.0792 
    129 H129      -52.0430  -27.3309   10.5400 H         1 UNK         0.0792 
    130 H130      -51.0211  -28.7229   10.2352 H         1 UNK         0.0792 
    131 H131      -48.7235  -28.3042   11.2533 H         1 UNK         0.3086 
    132 H132      -46.3376  -27.7362   13.7259 H         1 UNK         0.0583 
    133 H133      -45.4180  -29.9093   13.4004 H         1 UNK         0.1020 
    134 H134      -46.9123  -30.1588   14.2307 H         1 UNK         0.1020 
    135 H135      -48.3158  -32.8169   12.7065 H         1 UNK         0.0694 
    136 H136      -48.7351  -31.3498   13.5515 H         1 UNK         0.0694 
    137 H137      -45.8037  -28.6143   11.1916 H         1 UNK         0.2989 
    138 H138      -44.7714  -26.3794    9.8987 H         1 UNK         0.1055 
    139 H139      -45.3358  -28.6766    9.2785 H         1 UNK         0.0806 
    140 H140      -45.5114  -27.6908    7.8466 H         1 UNK         0.0806 
    141 H141      -46.9419  -28.2039    8.7396 H         1 UNK         0.0806 
    142 H142      -47.3651  -25.6055    8.6071 H         1 UNK         0.3061 
    143 H143      -46.1813  -22.2875    8.0881 H         1 UNK         0.0734 
    144 H144      -46.9863  -22.7872    5.7913 H         1 UNK         0.0832 
    145 H145      -45.4255  -23.5412    6.0743 H         1 UNK         0.0832 
    146 H146      -46.8866  -24.5184    6.1044 H         1 UNK         0.0832 
    147 H147      -48.5862  -24.0210    7.8351 H         1 UNK         0.3156 
    148 H148      -50.2246  -23.3019   10.2781 H         1 UNK         0.0589 
    149 H149      -50.5481  -20.5361    8.9867 H         1 UNK         0.0808 
    150 H150      -51.8232  -21.3700    9.8674 H         1 UNK         0.0808 
    151 H151      -50.3585  -20.8829   10.7012 H         1 UNK         0.0808 
    152 H152      -50.4862  -22.7687    7.3578 H         1 UNK         0.3098 
    153 H153      -52.8227  -25.0823    6.7779 H         1 UNK         0.0720 
    154 H154      -51.6867  -24.4172    4.6844 H         1 UNK         0.0791 
    155 H155      -50.2935  -23.8185    5.5682 H         1 UNK         0.0791 
    156 H156      -51.8624  -23.0186    5.7208 H         1 UNK         0.0791 
    157 H157      -51.7262  -26.9481    6.2438 H         1 UNK         0.3028 
@<TRIPOS>BOND
     1    1    2 1    
     2    1   82 1    
     3    1   83 1    
     4    1   84 1    
     5    2    3 2    
     6    2    4 am   BACKBONE|DICT|INTERRES
     7    4    5 1    
     8    4   85 1    
     9    5    6 1    
    10    5   80 1    
    11    5   86 1    
    12    6    7 1    
    13    6   87 1    
    14    6   88 1    
    15    7    8 1    
    16    8    9 1    
    17    8   89 1    
    18    8   90 1    
    19    9   10 ar   
    20    9   14 ar   
    21   10   11 ar   
    22   10   91 1    
    23   11   12 ar   
    24   11   58 1    
    25   12   13 ar   
    26   12   92 1    
    27   13   14 ar   
    28   13   15 1    
    29   14   93 1    
    30   15   16 1    
    31   15   94 1    
    32   15   95 1    
    33   16   17 1    
    34   17   18 1    
    35   17   96 1    
    36   17   97 1    
    37   18   19 1    
    38   18   22 1    
    39   18   98 1    
    40   19   20 am   BACKBONE|DICT|INTERRES
    41   19   21 2    
    42   20   99 1    
    43   20  100 1    
    44   22   23 am   BACKBONE|DICT|INTERRES
    45   22  101 1    
    46   23   24 2    
    47   23   25 1    
    48   25   26 1    
    49   25   27 1    
    50   25  102 1    
    51   26  103 1    
    52   26  104 1    
    53   26  105 1    
    54   27   28 am   BACKBONE|DICT|INTERRES
    55   27  106 1    
    56   28   29 2    
    57   28   30 1    
    58   30   31 1    
    59   30   32 1    
    60   30  107 1    
    61   31  108 1    
    62   31  109 1    
    63   31  110 1    
    64   32   33 am   BACKBONE|DICT|INTERRES
    65   32  111 1    
    66   33   34 2    
    67   33   35 1    
    68   35   36 1    
    69   35   37 1    
    70   35  112 1    
    71   36  113 1    
    72   36  114 1    
    73   36  115 1    
    74   37   38 am   BACKBONE|DICT|INTERRES
    75   37  116 1    
    76   38   39 2    
    77   38   40 1    
    78   40   41 1    
    79   40   42 1    
    80   40  117 1    
    81   41  118 1    
    82   41  119 1    
    83   41  120 1    
    84   42   43 am   BACKBONE|DICT|INTERRES
    85   42  121 1    
    86   43   44 2    
    87   43   45 1    
    88   45   46 1    
    89   45   47 1    
    90   45  122 1    
    91   46  123 1    
    92   46  124 1    
    93   46  125 1    
    94   47   48 am   BACKBONE|DICT|INTERRES
    95   47  126 1    
    96   48   49 2    
    97   48   50 1    
    98   50   51 1    
    99   50   52 1    
   100   50  127 1    
   101   51  128 1    
   102   51  129 1    
   103   51  130 1    
   104   52   53 am   BACKBONE|DICT|INTERRES
   105   52  131 1    
   106   53   54 2    
   107   53   55 1    
   108   55   56 1    
   109   55   59 1    
   110   55  132 1    
   111   56   57 1    
   112   56  133 1    
   113   56  134 1    
   114   57   58 1    
   115   58  135 1    
   116   58  136 1    
   117   59   60 am   BACKBONE|DICT|INTERRES
   118   59  137 1    
   119   60   61 2    
   120   60   62 1    
   121   62   63 1    
   122   62   64 1    
   123   62  138 1    
   124   63  139 1    
   125   63  140 1    
   126   63  141 1    
   127   64   65 am   BACKBONE|DICT|INTERRES
   128   64  142 1    
   129   65   66 2    
   130   65   67 1    
   131   67   68 1    
   132   67   69 1    
   133   67  143 1    
   134   68  144 1    
   135   68  145 1    
   136   68  146 1    
   137   69   70 am   BACKBONE|DICT|INTERRES
   138   69  147 1    
   139   70   71 2    
   140   70   72 1    
   141   72   73 1    
   142   72   74 1    
   143   72  148 1    
   144   73  149 1    
   145   73  150 1    
   146   73  151 1    
   147   74   75 am   BACKBONE|DICT|INTERRES
   148   74  152 1    
   149   75   76 2    
   150   75   77 1    
   151   77   78 1    
   152   77   79 1    
   153   77  153 1    
   154   78  154 1    
   155   78  155 1    
   156   78  156 1    
   157   79   80 am   BACKBONE|DICT|INTERRES
   158   79  157 1    
   159   80   81 2    
@<TRIPOS>SUBSTRUCTURE
     1 UNK         1 GROUP             0       ****    0 ROOT    
