@<TRIPOS>MOLECULE
3R207
157   159    1
SMALL
USER_CHARGES


@<TRIPOS>ATOM
      1 CA        -56.0273  -28.3889    4.5913 C.3       0 UNK        -0.1975 
      2 C         -54.7011  -28.8101    5.2062 C.2       0 UNK         0.4852 
      3 O         -54.4463  -30.0062    5.3513 O.2       0 UNK        -0.5216 
      4 N         -53.8585  -27.8388    5.5712 N.am      1 UNK        -0.4461 
      5 CA        -52.5784  -28.0447    6.2409 C.3       1 UNK         0.0864 
      6 C6        -51.4465  -28.3945    5.2320 C.3       14 UNK        -0.0898 
      7 S7        -49.7428  -28.4895    5.8986 S.3       14 UNK        -0.2598 
      8 C8        -49.5403  -30.2665    6.2613 C.3       14 UNK         0.0286 
      9 C9        -50.0094  -30.5751    7.6731 C.ar      14 UNK        -0.0844 
     10 C10       -49.1132  -30.5257    8.7446 C.ar      14 UNK        -0.0881 
     11 C11       -49.5637  -30.6975   10.0597 C.ar      14 UNK        -0.0643 
     12 C12       -50.9259  -30.9124   10.2921 C.ar      14 UNK        -0.0930 
     13 C13       -51.8253  -30.9725    9.2243 C.ar      14 UNK        -0.0827 
     14 C14       -51.3537  -30.8527    7.9166 C.ar      14 UNK        -0.1249 
     15 C15       -53.3181  -31.0764    9.4737 C.3       14 UNK         0.0141 
     16 S16       -53.9966  -29.4040    9.6805 S.3       14 UNK        -0.2313 
     17 C17       -55.7217  -29.6451    9.1559 C.3       14 UNK        -0.0915 
     18 CA        -56.6175  -28.4400    9.5636 C.3       13 UNK         0.0968 
     19 C         -58.0359  -28.4953    8.9184 C.2       13 UNK         0.5732 
     20 N         -59.0800  -28.0034    9.5747 N.am      13 UNK        -0.7310 
     21 O         -58.1925  -28.9538    7.7891 O.2       13 UNK        -0.5035 
     22 N         -56.5989  -28.1853   11.0164 N.am      13 UNK        -0.4233 
     23 C         -57.0571  -29.0001   11.9738 C.2       13 UNK         0.4989 
     24 O         -57.6051  -30.0827   11.7580 O.2       13 UNK        -0.4996 
     25 CA        -56.8428  -28.5209   13.4217 C.3       12 UNK         0.0216 
     26 CB        -57.6136  -29.3733   14.4479 C.3       12 UNK        -0.1964 
     27 N         -55.4230  -28.5127   13.7836 N.am      12 UNK        -0.4276 
     28 C         -54.5391  -27.5725   13.4273 C.2       12 UNK         0.5020 
     29 O         -54.8166  -26.6109   12.7046 O.2       12 UNK        -0.5489 
     30 CA        -53.1033  -27.7499   13.9564 C.3       11 UNK         0.0294 
     31 CB        -52.2070  -28.3902   12.8846 C.3       11 UNK        -0.2019 
     32 N         -52.5079  -26.4842   14.3935 N.am      11 UNK        -0.4493 
     33 C         -52.9873  -25.7151   15.3819 C.2       11 UNK         0.4932 
     34 O         -53.9580  -26.0184   16.0797 O.2       11 UNK        -0.5029 
     35 CA        -52.2314  -24.3990   15.6402 C.3       10 UNK         0.0280 
     36 CB        -52.8881  -23.5216   16.7270 C.3       10 UNK        -0.1976 
     37 N         -50.8133  -24.6198   15.9389 N.am      10 UNK        -0.4242 
     38 C         -50.2826  -25.3383   16.9416 C.2       10 UNK         0.5072 
     39 O         -50.9463  -25.9133   17.8053 O.2       10 UNK        -0.5224 
     40 CA        -48.7458  -25.4547   16.9991 C.3       9 UNK         0.0343 
     41 CB        -48.3095  -26.8770   16.6114 C.3       9 UNK        -0.2003 
     42 N         -48.0438  -24.4914   16.1456 N.am      9 UNK        -0.4272 
     43 C         -47.9335  -23.1792   16.3982 C.2       9 UNK         0.4988 
     44 O         -48.3417  -22.6423   17.4282 O.2       9 UNK        -0.5108 
     45 CA        -47.3016  -22.3128   15.2931 C.3       8 UNK         0.0248 
     46 CB        -45.7671  -22.3637   15.3642 C.3       8 UNK        -0.2001 
     47 N         -47.7483  -22.6851   13.9460 N.am      8 UNK        -0.4140 
     48 C         -49.0200  -22.6326   13.5183 C.2       8 UNK         0.5028 
     49 O         -49.9617  -22.2350   14.2019 O.2       8 UNK        -0.5428 
     50 CA        -49.2926  -23.1649   12.1062 C.3       7 UNK         0.0264 
     51 CB        -48.8675  -22.1248   11.0545 C.3       7 UNK        -0.1988 
     52 N         -48.5985  -24.4391   11.8999 N.am      7 UNK        -0.4454 
     53 C         -49.0055  -25.6064   12.4276 C.2       7 UNK         0.5027 
     54 O         -50.0815  -25.7449   13.0108 O.2       7 UNK        -0.5083 
     55 CA        -48.0515  -26.8167   12.3285 C.3       6 UNK         0.0844 
     56 C56       -48.5038  -27.8116   11.2346 C.3       14 UNK        -0.0967 
     57 S57       -47.4070  -29.2683   11.1394 S.3       14 UNK        -0.2604 
     58 C58       -48.5943  -30.6478   11.2371 C.3       14 UNK         0.0134 
     59 N         -46.6597  -26.3963   12.1529 N.am      6 UNK        -0.4116 
     60 C         -45.8857  -25.9137   13.1330 C.2       5 UNK         0.5034 
     61 O         -46.2651  -25.7753   14.2944 O.2       5 UNK        -0.5045 
     62 CA        -44.4690  -25.4549   12.7456 C.3       5 UNK         0.0224 
     63 CB        -43.4716  -26.6145   12.8911 C.3       5 UNK        -0.1978 
     64 N         -44.3834  -24.9030   11.3894 N.am      5 UNK        -0.4737 
     65 C         -45.0701  -23.8377   10.9553 C.2       4 UNK         0.5027 
     66 O         -45.8315  -23.1915   11.6765 O.2       4 UNK        -0.5211 
     67 CA        -44.9296  -23.4502    9.4692 C.3       4 UNK         0.0297 
     68 CB        -43.8392  -24.2430    8.7123 C.3       4 UNK        -0.1993 
     69 N         -46.2071  -23.5388    8.7469 N.am      4 UNK        -0.4486 
     70 C         -47.0155  -24.6057    8.6642 C.2       3 UNK         0.4961 
     71 O         -46.8059  -25.6787    9.2353 O.2       3 UNK        -0.5105 
     72 CA        -48.2529  -24.4546    7.7683 C.3       3 UNK         0.0299 
     73 CB        -47.9127  -24.8606    6.3252 C.3       3 UNK        -0.1972 
     74 N         -49.3208  -25.3249    8.2576 N.am      3 UNK        -0.4305 
     75 C         -50.4793  -24.9119    8.7862 C.2       2 UNK         0.5006 
     76 O         -50.8274  -23.7323    8.8521 O.2       2 UNK        -0.5106 
     77 CA        -51.4079  -26.0220    9.3132 C.3       2 UNK         0.0296 
     78 CB        -52.6987  -25.4784    9.9611 C.3       2 UNK        -0.2002 
     79 N         -51.7242  -27.0187    8.2851 N.am      2 UNK        -0.4032 
     80 C         -52.3136  -26.8000    7.0991 C.2       1 UNK         0.5000 
     81 O         -52.6697  -25.6946    6.6793 O.2       1 UNK        -0.5238 
     82 H82       -56.1122  -27.3056    4.5069 H         1 UNK         0.0889 
     83 H83       -56.8538  -28.7468    5.2052 H         1 UNK         0.0889 
     84 H84       -56.1320  -28.8165    3.5946 H         1 UNK         0.0889 
     85 H85       -54.1100  -26.8626    5.4690 H         1 UNK         0.3028 
     86 H86       -52.7169  -28.8684    6.9353 H         1 UNK         0.0864 
     87 H87       -51.6811  -29.3354    4.7326 H         1 UNK         0.0720 
     88 H88       -51.4291  -27.6443    4.4396 H         1 UNK         0.0720 
     89 H89       -48.4867  -30.5291    6.1549 H         1 UNK         0.0814 
     90 H90       -50.0790  -30.8732    5.5319 H         1 UNK         0.0814 
     91 H91       -48.0669  -30.3266    8.5568 H         1 UNK         0.1469 
     92 H92       -51.2918  -31.0132   11.3044 H         1 UNK         0.1381 
     93 H93       -52.0463  -30.9136    7.0882 H         1 UNK         0.1206 
     94 H94       -53.8053  -31.5771    8.6353 H         1 UNK         0.0813 
     95 H95       -53.5258  -31.6726   10.3634 H         1 UNK         0.0813 
     96 H96       -55.7147  -29.7770    8.0726 H         1 UNK         0.0638 
     97 H97       -56.1031  -30.5759    9.5782 H         1 UNK         0.0638 
     98 H98       -56.1675  -27.5512    9.1200 H         1 UNK         0.0568 
     99 H99       -59.9905  -28.0319    9.1440 H         1 UNK         0.3450 
    100 H100      -58.9670  -27.6102   10.4947 H         1 UNK         0.3450 
    101 H101      -56.1057  -27.3503   11.3166 H         1 UNK         0.2987 
    102 H102      -57.2272  -27.5005   13.4875 H         1 UNK         0.0766 
    103 H103      -58.6806  -29.3867   14.2210 H         1 UNK         0.0798 
    104 H104      -57.5047  -28.9743   15.4566 H         1 UNK         0.0798 
    105 H105      -57.2696  -30.4084   14.4573 H         1 UNK         0.0798 
    106 H106      -55.1029  -29.2896   14.3441 H         1 UNK         0.3198 
    107 H107      -53.1289  -28.4118   14.8246 H         1 UNK         0.0843 
    108 H108      -52.6174  -29.3446   12.5533 H         1 UNK         0.0831 
    109 H109      -51.2045  -28.5817   13.2673 H         1 UNK         0.0831 
    110 H110      -52.1163  -27.7532   12.0044 H         1 UNK         0.0831 
    111 H111      -51.6929  -26.1609   13.8757 H         1 UNK         0.3133 
    112 H112      -52.2624  -23.8387   14.7046 H         1 UNK         0.0566 
    113 H113      -52.3556  -22.5779   16.8464 H         1 UNK         0.0814 
    114 H114      -52.9087  -24.0203   17.6965 H         1 UNK         0.0814 
    115 H115      -53.9187  -23.2816   16.4631 H         1 UNK         0.0814 
    116 H116      -50.1744  -24.1732   15.2938 H         1 UNK         0.3091 
    117 H117      -48.4437  -25.2756   18.0331 H         1 UNK         0.0702 
    118 H118      -47.2279  -26.9949   16.6801 H         1 UNK         0.0785 
    119 H119      -48.6113  -27.1247   15.5937 H         1 UNK         0.0785 
    120 H120      -48.7586  -27.6186   17.2735 H         1 UNK         0.0785 
    121 H121      -47.5828  -24.8688   15.3215 H         1 UNK         0.2998 
    122 H122      -47.6146  -21.2807   15.4645 H         1 UNK         0.0697 
    123 H123      -45.3870  -23.3744   15.2166 H         1 UNK         0.0825 
    124 H124      -45.4122  -22.0229   16.3377 H         1 UNK         0.0825 
    125 H125      -45.3122  -21.7211   14.6100 H         1 UNK         0.0825 
    126 H126      -47.0335  -22.9820   13.2883 H         1 UNK         0.3029 
    127 H127      -50.3665  -23.3356   11.9986 H         1 UNK         0.0897 
    128 H128      -47.8583  -21.7490   11.2186 H         1 UNK         0.0792 
    129 H129      -49.5342  -21.2623   11.0828 H         1 UNK         0.0792 
    130 H130      -48.9070  -22.5267   10.0454 H         1 UNK         0.0792 
    131 H131      -47.6805  -24.3894   11.4759 H         1 UNK         0.3086 
    132 H132      -48.1195  -27.3426   13.2827 H         1 UNK         0.0583 
    133 H133      -49.5254  -28.1429   11.4266 H         1 UNK         0.1020 
    134 H134      -48.5157  -27.3388   10.2533 H         1 UNK         0.1020 
    135 H135      -48.0381  -31.5854   11.2679 H         1 UNK         0.0694 
    136 H136      -49.1333  -30.5765   12.1833 H         1 UNK         0.0694 
    137 H137      -46.2995  -26.4340   11.2061 H         1 UNK         0.2989 
    138 H138      -44.1818  -24.6648   13.4426 H         1 UNK         0.1055 
    139 H139      -43.6937  -27.4287   12.1998 H         1 UNK         0.0806 
    140 H140      -42.4488  -26.2852   12.7068 H         1 UNK         0.0806 
    141 H141      -43.4994  -27.0279   13.9005 H         1 UNK         0.0806 
    142 H142      -43.7948  -25.3935   10.7313 H         1 UNK         0.3061 
    143 H143      -44.6393  -22.3985    9.4611 H         1 UNK         0.0734 
    144 H144      -44.0704  -25.3071    8.6480 H         1 UNK         0.0832 
    145 H145      -43.7281  -23.8733    7.6929 H         1 UNK         0.0832 
    146 H146      -42.8652  -24.1378    9.1924 H         1 UNK         0.0832 
    147 H147      -46.4851  -22.6959    8.2631 H         1 UNK         0.3156 
    148 H148      -48.5703  -23.4100    7.7734 H         1 UNK         0.0589 
    149 H149      -48.7826  -24.7691    5.6743 H         1 UNK         0.0808 
    150 H150      -47.1291  -24.2246    5.9114 H         1 UNK         0.0808 
    151 H151      -47.5614  -25.8920    6.2672 H         1 UNK         0.0808 
    152 H152      -49.1042  -26.3116    8.2559 H         1 UNK         0.3098 
    153 H153      -50.8578  -26.5464   10.0930 H         1 UNK         0.0720 
    154 H154      -52.4655  -24.8325   10.8087 H         1 UNK         0.0791 
    155 H155      -53.3261  -26.2871   10.3360 H         1 UNK         0.0791 
    156 H156      -53.2929  -24.8943    9.2577 H         1 UNK         0.0791 
    157 H157      -51.4732  -27.9721    8.5119 H         1 UNK         0.3028 
@<TRIPOS>BOND
     1    1    2 1    
     2    1   82 1    
     3    1   83 1    
     4    1   84 1    
     5    2    3 2    
     6    2    4 am   BACKBONE|DICT|INTERRES
     7    4    5 1    
     8    4   85 1    
     9    5    6 1    
    10    5   80 1    
    11    5   86 1    
    12    6    7 1    
    13    6   87 1    
    14    6   88 1    
    15    7    8 1    
    16    8    9 1    
    17    8   89 1    
    18    8   90 1    
    19    9   10 ar   
    20    9   14 ar   
    21   10   11 ar   
    22   10   91 1    
    23   11   12 ar   
    24   11   58 1    
    25   12   13 ar   
    26   12   92 1    
    27   13   14 ar   
    28   13   15 1    
    29   14   93 1    
    30   15   16 1    
    31   15   94 1    
    32   15   95 1    
    33   16   17 1    
    34   17   18 1    
    35   17   96 1    
    36   17   97 1    
    37   18   19 1    
    38   18   22 1    
    39   18   98 1    
    40   19   20 am   BACKBONE|DICT|INTERRES
    41   19   21 2    
    42   20   99 1    
    43   20  100 1    
    44   22   23 am   BACKBONE|DICT|INTERRES
    45   22  101 1    
    46   23   24 2    
    47   23   25 1    
    48   25   26 1    
    49   25   27 1    
    50   25  102 1    
    51   26  103 1    
    52   26  104 1    
    53   26  105 1    
    54   27   28 am   BACKBONE|DICT|INTERRES
    55   27  106 1    
    56   28   29 2    
    57   28   30 1    
    58   30   31 1    
    59   30   32 1    
    60   30  107 1    
    61   31  108 1    
    62   31  109 1    
    63   31  110 1    
    64   32   33 am   BACKBONE|DICT|INTERRES
    65   32  111 1    
    66   33   34 2    
    67   33   35 1    
    68   35   36 1    
    69   35   37 1    
    70   35  112 1    
    71   36  113 1    
    72   36  114 1    
    73   36  115 1    
    74   37   38 am   BACKBONE|DICT|INTERRES
    75   37  116 1    
    76   38   39 2    
    77   38   40 1    
    78   40   41 1    
    79   40   42 1    
    80   40  117 1    
    81   41  118 1    
    82   41  119 1    
    83   41  120 1    
    84   42   43 am   BACKBONE|DICT|INTERRES
    85   42  121 1    
    86   43   44 2    
    87   43   45 1    
    88   45   46 1    
    89   45   47 1    
    90   45  122 1    
    91   46  123 1    
    92   46  124 1    
    93   46  125 1    
    94   47   48 am   BACKBONE|DICT|INTERRES
    95   47  126 1    
    96   48   49 2    
    97   48   50 1    
    98   50   51 1    
    99   50   52 1    
   100   50  127 1    
   101   51  128 1    
   102   51  129 1    
   103   51  130 1    
   104   52   53 am   BACKBONE|DICT|INTERRES
   105   52  131 1    
   106   53   54 2    
   107   53   55 1    
   108   55   56 1    
   109   55   59 1    
   110   55  132 1    
   111   56   57 1    
   112   56  133 1    
   113   56  134 1    
   114   57   58 1    
   115   58  135 1    
   116   58  136 1    
   117   59   60 am   BACKBONE|DICT|INTERRES
   118   59  137 1    
   119   60   61 2    
   120   60   62 1    
   121   62   63 1    
   122   62   64 1    
   123   62  138 1    
   124   63  139 1    
   125   63  140 1    
   126   63  141 1    
   127   64   65 am   BACKBONE|DICT|INTERRES
   128   64  142 1    
   129   65   66 2    
   130   65   67 1    
   131   67   68 1    
   132   67   69 1    
   133   67  143 1    
   134   68  144 1    
   135   68  145 1    
   136   68  146 1    
   137   69   70 am   BACKBONE|DICT|INTERRES
   138   69  147 1    
   139   70   71 2    
   140   70   72 1    
   141   72   73 1    
   142   72   74 1    
   143   72  148 1    
   144   73  149 1    
   145   73  150 1    
   146   73  151 1    
   147   74   75 am   BACKBONE|DICT|INTERRES
   148   74  152 1    
   149   75   76 2    
   150   75   77 1    
   151   77   78 1    
   152   77   79 1    
   153   77  153 1    
   154   78  154 1    
   155   78  155 1    
   156   78  156 1    
   157   79   80 am   BACKBONE|DICT|INTERRES
   158   79  157 1    
   159   80   81 2    
@<TRIPOS>SUBSTRUCTURE
     1 UNK         1 GROUP             0       ****    0 ROOT    
