@<TRIPOS>MOLECULE
3R207
157   159    1
SMALL
USER_CHARGES


@<TRIPOS>ATOM
      1 CA        -50.6550  -30.7925   10.5318 C.3       0 UNK        -0.1975 
      2 C         -49.6609  -30.4956    9.4189 C.2       0 UNK         0.4852 
      3 O         -48.6503  -31.1899    9.2999 O.2       0 UNK        -0.5216 
      4 N         -49.9463  -29.4784    8.5968 N.am      1 UNK        -0.4461 
      5 CA        -49.0670  -28.9765    7.5373 C.3       1 UNK         0.0864 
      6 C6        -49.8280  -28.0749    6.5237 C.3       14 UNK        -0.0898 
      7 S7        -50.9302  -26.8322    7.2917 S.3       14 UNK        -0.2598 
      8 C8        -52.5821  -27.3865    6.7704 C.3       14 UNK         0.0286 
      9 C9        -53.6706  -26.8482    7.6912 C.ar      14 UNK        -0.0844 
     10 C10       -53.9461  -25.4761    7.7488 C.ar      14 UNK        -0.0881 
     11 C11       -54.9588  -24.9898    8.5839 C.ar      14 UNK        -0.0643 
     12 C12       -55.7008  -25.8870    9.3579 C.ar      14 UNK        -0.0930 
     13 C13       -55.4364  -27.2579    9.3086 C.ar      14 UNK        -0.0827 
     14 C14       -54.4198  -27.7321    8.4748 C.ar      14 UNK        -0.1249 
     15 C15       -56.2588  -28.2263   10.1449 C.3       14 UNK         0.0141 
     16 S16       -55.7425  -28.1942   11.8873 S.3       14 UNK        -0.2313 
     17 C17       -56.6646  -29.6167   12.5629 C.3       14 UNK        -0.0915 
     18 CA        -55.7890  -30.8675   12.8495 C.3       13 UNK         0.0968 
     19 C         -55.2727  -31.5497   11.5483 C.2       13 UNK         0.5732 
     20 N         -53.9700  -31.7110   11.3512 N.am      13 UNK        -0.7310 
     21 O         -56.0734  -31.9550   10.7090 O.2       13 UNK        -0.5035 
     22 N         -54.7600  -30.5988   13.8688 N.am      13 UNK        -0.4233 
     23 C         -54.2072  -31.5332   14.6569 C.2       13 UNK         0.4989 
     24 O         -54.5045  -32.7275   14.6153 O.2       13 UNK        -0.4996 
     25 CA        -53.1654  -31.0616   15.6834 C.3       12 UNK         0.0216 
     26 CB        -51.7644  -30.9899   15.0512 C.3       12 UNK        -0.1964 
     27 N         -53.5353  -29.7586   16.2429 N.am      12 UNK        -0.4276 
     28 C         -54.2579  -29.5930   17.3601 C.2       12 UNK         0.5020 
     29 O         -54.5883  -30.5289   18.0908 O.2       12 UNK        -0.5489 
     30 CA        -54.7454  -28.1755   17.7293 C.3       11 UNK         0.0294 
     31 CB        -54.2611  -27.7492   19.1317 C.3       11 UNK        -0.2019 
     32 N         -54.4792  -27.1398   16.7207 N.am      11 UNK        -0.4493 
     33 C         -53.3090  -26.5765   16.3916 C.2       11 UNK         0.4932 
     34 O         -52.2333  -26.8187   16.9405 O.2       11 UNK        -0.5029 
     35 CA        -53.3579  -25.5975   15.2045 C.3       10 UNK         0.0280 
     36 CB        -52.9630  -24.1817   15.6570 C.3       10 UNK        -0.1976 
     37 N         -52.5028  -26.0078   14.0862 N.am      10 UNK        -0.4242 
     38 C         -52.4452  -27.2297   13.5335 C.2       10 UNK         0.5072 
     39 O         -53.1479  -28.1775   13.8884 O.2       10 UNK        -0.5224 
     40 CA        -51.4357  -27.4497   12.3936 C.3       9 UNK         0.0343 
     41 CB        -52.1203  -27.2786   11.0327 C.3       9 UNK        -0.2003 
     42 N         -50.2611  -26.5783   12.4632 N.am      9 UNK        -0.4272 
     43 C         -49.3128  -26.6595   13.4081 C.2       9 UNK         0.4988 
     44 O         -49.3179  -27.4904   14.3166 O.2       9 UNK        -0.5108 
     45 CA        -48.1615  -25.6470   13.3289 C.3       8 UNK         0.0248 
     46 CB        -47.0531  -26.1643   12.3960 C.3       8 UNK        -0.2001 
     47 N         -48.6336  -24.3333   12.8817 N.am      8 UNK        -0.4140 
     48 C         -49.1142  -23.3888   13.7043 C.2       8 UNK         0.5028 
     49 O         -49.0959  -23.4814   14.9321 O.2       8 UNK        -0.5428 
     50 CA        -49.7339  -22.1280   13.0694 C.3       7 UNK         0.0264 
     51 CB        -48.6983  -20.9962   12.9852 C.3       7 UNK        -0.1988 
     52 N         -50.3176  -22.3551   11.7442 N.am      7 UNK        -0.4454 
     53 C         -51.4207  -23.0884   11.5228 C.2       7 UNK         0.5027 
     54 O         -52.0614  -23.6264   12.4245 O.2       7 UNK        -0.5083 
     55 CA        -51.8432  -23.3198   10.0518 C.3       6 UNK         0.0844 
     56 C56       -52.8969  -22.2898    9.5741 C.3       14 UNK        -0.0967 
     57 S57       -54.5910  -22.6970   10.1152 S.3       14 UNK        -0.2604 
     58 C58       -55.2866  -23.5038    8.6354 C.3       14 UNK         0.0134 
     59 N         -50.7175  -23.3894    9.1158 N.am      6 UNK        -0.4116 
     60 C         -49.6540  -24.1963    9.2212 C.2       5 UNK         0.5034 
     61 O         -49.4587  -24.9402   10.1830 O.2       5 UNK        -0.5045 
     62 CA        -48.6239  -24.1523    8.0780 C.3       5 UNK         0.0224 
     63 CB        -49.0052  -23.2234    6.9031 C.3       5 UNK        -0.1978 
     64 N         -47.2791  -23.8329    8.5561 N.am      5 UNK        -0.4737 
     65 C         -46.8947  -22.7739    9.2843 C.2       4 UNK         0.5027 
     66 O         -47.6669  -21.8991    9.6798 O.2       4 UNK        -0.5211 
     67 CA        -45.3982  -22.6668    9.6399 C.3       4 UNK         0.0297 
     68 CB        -45.1878  -22.7399   11.1603 C.3       4 UNK        -0.1993 
     69 N         -44.5788  -23.6959    8.9884 N.am      4 UNK        -0.4486 
     70 C         -44.1150  -23.6073    7.7342 C.2       3 UNK         0.4961 
     71 O         -44.2671  -22.6192    7.0153 O.2       3 UNK        -0.5105 
     72 CA        -43.3668  -24.8313    7.1764 C.3       3 UNK         0.0299 
     73 CB        -41.8604  -24.7112    7.4590 C.3       3 UNK        -0.1972 
     74 N         -43.8525  -26.1269    7.6696 N.am      3 UNK        -0.4305 
     75 C         -45.0815  -26.6244    7.4654 C.2       2 UNK         0.5006 
     76 O         -45.9821  -25.9986    6.9036 O.2       2 UNK        -0.5106 
     77 CA        -45.3093  -28.0742    7.9362 C.3       2 UNK         0.0296 
     78 CB        -45.0002  -28.2583    9.4400 C.3       2 UNK        -0.2002 
     79 N         -46.6408  -28.5953    7.5854 N.am      2 UNK        -0.4032 
     80 C         -47.8233  -28.2815    8.1391 C.2       1 UNK         0.5000 
     81 O         -47.9611  -27.5034    9.0840 O.2       1 UNK        -0.5238 
     82 H82       -50.9540  -31.8397   10.4966 H         1 UNK         0.0889 
     83 H83       -51.5530  -30.1813   10.4479 H         1 UNK         0.0889 
     84 H84       -50.1979  -30.6015   11.5023 H         1 UNK         0.0889 
     85 H85       -50.7633  -28.9090    8.7627 H         1 UNK         0.3028 
     86 H86       -48.7133  -29.8487    6.9827 H         1 UNK         0.0864 
     87 H87       -49.1279  -27.5544    5.8671 H         1 UNK         0.0720 
     88 H88       -50.4212  -28.7071    5.8617 H         1 UNK         0.0720 
     89 H89       -52.6100  -28.4770    6.7520 H         1 UNK         0.0814 
     90 H90       -52.7683  -27.0547    5.7480 H         1 UNK         0.0814 
     91 H91       -53.3705  -24.7900    7.1429 H         1 UNK         0.1469 
     92 H92       -56.4854  -25.5165   10.0036 H         1 UNK         0.1381 
     93 H93       -54.2140  -28.7931    8.4363 H         1 UNK         0.1206 
     94 H94       -56.1609  -29.2398    9.7533 H         1 UNK         0.0813 
     95 H95       -57.3168  -27.9691   10.0759 H         1 UNK         0.0813 
     96 H96       -57.1353  -29.2882   13.4906 H         1 UNK         0.0638 
     97 H97       -57.4903  -29.8699   11.8954 H         1 UNK         0.0638 
     98 H98       -56.4656  -31.6040   13.2871 H         1 UNK         0.0568 
     99 H99       -53.3109  -31.3948   12.0419 H         1 UNK         0.3450 
    100 H100      -53.6551  -32.1695   10.5120 H         1 UNK         0.3450 
    101 H101      -54.3991  -29.6490   13.8985 H         1 UNK         0.2987 
    102 H102      -53.1252  -31.8051   16.4824 H         1 UNK         0.0766 
    103 H103      -51.0227  -30.6452   15.7720 H         1 UNK         0.0798 
    104 H104      -51.7295  -30.3197   14.1931 H         1 UNK         0.0798 
    105 H105      -51.4460  -31.9739   14.7046 H         1 UNK         0.0798 
    106 H106      -53.3290  -28.9495   15.6631 H         1 UNK         0.3198 
    107 H107      -55.8330  -28.2500   17.7780 H         1 UNK         0.0843 
    108 H108      -53.1733  -27.7322   19.2012 H         1 UNK         0.0831 
    109 H109      -54.6182  -28.4435   19.8933 H         1 UNK         0.0831 
    110 H110      -54.6321  -26.7597   19.3981 H         1 UNK         0.0831 
    111 H111      -55.2862  -26.8745   16.1716 H         1 UNK         0.3133 
    112 H112      -54.3792  -25.5569   14.8210 H         1 UNK         0.0566 
    113 H113      -53.1256  -23.4505   14.8655 H         1 UNK         0.0814 
    114 H114      -53.5567  -23.8635   16.5150 H         1 UNK         0.0814 
    115 H115      -51.9127  -24.1320   15.9488 H         1 UNK         0.0814 
    116 H116      -51.9535  -25.2721   13.6563 H         1 UNK         0.3091 
    117 H117      -51.0801  -28.4786   12.4666 H         1 UNK         0.0702 
    118 H118      -52.8607  -28.0632   10.8769 H         1 UNK         0.0785 
    119 H119      -52.6463  -26.3271   10.9614 H         1 UNK         0.0785 
    120 H120      -51.4060  -27.3319   10.2122 H         1 UNK         0.0785 
    121 H121      -50.1272  -25.9209   11.6995 H         1 UNK         0.2998 
    122 H122      -47.7347  -25.5607   14.3306 H         1 UNK         0.0697 
    123 H123      -47.3384  -26.1010   11.3454 H         1 UNK         0.0825 
    124 H124      -46.8197  -27.2096   12.6042 H         1 UNK         0.0825 
    125 H125      -46.1299  -25.6054   12.5343 H         1 UNK         0.0825 
    126 H126      -48.7475  -24.2172   11.8795 H         1 UNK         0.3029 
    127 H127      -50.5372  -21.7991   13.7328 H         1 UNK         0.0897 
    128 H128      -47.8796  -21.2488   12.3121 H         1 UNK         0.0792 
    129 H129      -48.2639  -20.7899   13.9644 H         1 UNK         0.0792 
    130 H130      -49.1502  -20.0698   12.6303 H         1 UNK         0.0792 
    131 H131      -49.8061  -21.9881   10.9513 H         1 UNK         0.3086 
    132 H132      -52.2999  -24.3090   10.0093 H         1 UNK         0.0583 
    133 H133      -52.6486  -21.2836    9.9179 H         1 UNK         0.1020 
    134 H134      -52.9011  -22.2242    8.4853 H         1 UNK         0.1020 
    135 H135      -56.3705  -23.3810    8.6561 H         1 UNK         0.0694 
    136 H136      -54.9493  -22.9974    7.7301 H         1 UNK         0.0694 
    137 H137      -50.7692  -22.7908    8.3056 H         1 UNK         0.2989 
    138 H138      -48.5654  -25.1699    7.6906 H         1 UNK         0.1055 
    139 H139      -49.9635  -23.5085    6.4662 H         1 UNK         0.0806 
    140 H140      -48.2657  -23.2900    6.1048 H         1 UNK         0.0806 
    141 H141      -49.0651  -22.1770    7.2052 H         1 UNK         0.0806 
    142 H142      -46.5723  -24.5028    8.2759 H         1 UNK         0.3061 
    143 H143      -45.0599  -21.6834    9.3060 H         1 UNK         0.0734 
    144 H144      -44.1311  -22.6815   11.4214 H         1 UNK         0.0832 
    145 H145      -45.6870  -21.9108   11.6619 H         1 UNK         0.0832 
    146 H146      -45.5897  -23.6603   11.5781 H         1 UNK         0.0832 
    147 H147      -44.4038  -24.5437    9.5084 H         1 UNK         0.3156 
    148 H148      -43.5068  -24.8263    6.0933 H         1 UNK         0.0589 
    149 H149      -41.6446  -24.7477    8.5276 H         1 UNK         0.0808 
    150 H150      -41.2992  -25.5103    6.9743 H         1 UNK         0.0808 
    151 H151      -41.4661  -23.7671    7.0799 H         1 UNK         0.0808 
    152 H152      -43.1699  -26.7112    8.1311 H         1 UNK         0.3098 
    153 H153      -44.6036  -28.6911    7.3777 H         1 UNK         0.0720 
    154 H154      -45.2546  -29.2636    9.7761 H         1 UNK         0.0791 
    155 H155      -45.5521  -27.5513   10.0600 H         1 UNK         0.0791 
    156 H156      -43.9407  -28.1118    9.6507 H         1 UNK         0.0791 
    157 H157      -46.6482  -29.2288    6.7983 H         1 UNK         0.3028 
@<TRIPOS>BOND
     1    1    2 1    
     2    1   82 1    
     3    1   83 1    
     4    1   84 1    
     5    2    3 2    
     6    2    4 am   BACKBONE|DICT|INTERRES
     7    4    5 1    
     8    4   85 1    
     9    5    6 1    
    10    5   80 1    
    11    5   86 1    
    12    6    7 1    
    13    6   87 1    
    14    6   88 1    
    15    7    8 1    
    16    8    9 1    
    17    8   89 1    
    18    8   90 1    
    19    9   10 ar   
    20    9   14 ar   
    21   10   11 ar   
    22   10   91 1    
    23   11   12 ar   
    24   11   58 1    
    25   12   13 ar   
    26   12   92 1    
    27   13   14 ar   
    28   13   15 1    
    29   14   93 1    
    30   15   16 1    
    31   15   94 1    
    32   15   95 1    
    33   16   17 1    
    34   17   18 1    
    35   17   96 1    
    36   17   97 1    
    37   18   19 1    
    38   18   22 1    
    39   18   98 1    
    40   19   20 am   BACKBONE|DICT|INTERRES
    41   19   21 2    
    42   20   99 1    
    43   20  100 1    
    44   22   23 am   BACKBONE|DICT|INTERRES
    45   22  101 1    
    46   23   24 2    
    47   23   25 1    
    48   25   26 1    
    49   25   27 1    
    50   25  102 1    
    51   26  103 1    
    52   26  104 1    
    53   26  105 1    
    54   27   28 am   BACKBONE|DICT|INTERRES
    55   27  106 1    
    56   28   29 2    
    57   28   30 1    
    58   30   31 1    
    59   30   32 1    
    60   30  107 1    
    61   31  108 1    
    62   31  109 1    
    63   31  110 1    
    64   32   33 am   BACKBONE|DICT|INTERRES
    65   32  111 1    
    66   33   34 2    
    67   33   35 1    
    68   35   36 1    
    69   35   37 1    
    70   35  112 1    
    71   36  113 1    
    72   36  114 1    
    73   36  115 1    
    74   37   38 am   BACKBONE|DICT|INTERRES
    75   37  116 1    
    76   38   39 2    
    77   38   40 1    
    78   40   41 1    
    79   40   42 1    
    80   40  117 1    
    81   41  118 1    
    82   41  119 1    
    83   41  120 1    
    84   42   43 am   BACKBONE|DICT|INTERRES
    85   42  121 1    
    86   43   44 2    
    87   43   45 1    
    88   45   46 1    
    89   45   47 1    
    90   45  122 1    
    91   46  123 1    
    92   46  124 1    
    93   46  125 1    
    94   47   48 am   BACKBONE|DICT|INTERRES
    95   47  126 1    
    96   48   49 2    
    97   48   50 1    
    98   50   51 1    
    99   50   52 1    
   100   50  127 1    
   101   51  128 1    
   102   51  129 1    
   103   51  130 1    
   104   52   53 am   BACKBONE|DICT|INTERRES
   105   52  131 1    
   106   53   54 2    
   107   53   55 1    
   108   55   56 1    
   109   55   59 1    
   110   55  132 1    
   111   56   57 1    
   112   56  133 1    
   113   56  134 1    
   114   57   58 1    
   115   58  135 1    
   116   58  136 1    
   117   59   60 am   BACKBONE|DICT|INTERRES
   118   59  137 1    
   119   60   61 2    
   120   60   62 1    
   121   62   63 1    
   122   62   64 1    
   123   62  138 1    
   124   63  139 1    
   125   63  140 1    
   126   63  141 1    
   127   64   65 am   BACKBONE|DICT|INTERRES
   128   64  142 1    
   129   65   66 2    
   130   65   67 1    
   131   67   68 1    
   132   67   69 1    
   133   67  143 1    
   134   68  144 1    
   135   68  145 1    
   136   68  146 1    
   137   69   70 am   BACKBONE|DICT|INTERRES
   138   69  147 1    
   139   70   71 2    
   140   70   72 1    
   141   72   73 1    
   142   72   74 1    
   143   72  148 1    
   144   73  149 1    
   145   73  150 1    
   146   73  151 1    
   147   74   75 am   BACKBONE|DICT|INTERRES
   148   74  152 1    
   149   75   76 2    
   150   75   77 1    
   151   77   78 1    
   152   77   79 1    
   153   77  153 1    
   154   78  154 1    
   155   78  155 1    
   156   78  156 1    
   157   79   80 am   BACKBONE|DICT|INTERRES
   158   79  157 1    
   159   80   81 2    
@<TRIPOS>SUBSTRUCTURE
     1 UNK         1 GROUP             0       ****    0 ROOT    
