@<TRIPOS>MOLECULE
3R207
157   159    1
SMALL
USER_CHARGES


@<TRIPOS>ATOM
      1 CA        -47.9086  -32.5836    2.3790 C.3       0 UNK        -0.1975 
      2 C         -48.1492  -31.3247    3.1996 C.2       0 UNK         0.4852 
      3 O         -48.5428  -30.2986    2.6424 O.2       0 UNK        -0.5216 
      4 N         -47.9241  -31.3991    4.5180 N.am      1 UNK        -0.4461 
      5 CA        -48.0325  -30.2723    5.4506 C.3       1 UNK         0.0864 
      6 C6        -48.3305  -30.7709    6.8907 C.3       14 UNK        -0.0898 
      7 S7        -49.2414  -29.5412    7.8825 S.3       14 UNK        -0.2598 
      8 C8        -50.9496  -29.8362    7.3235 C.3       14 UNK         0.0286 
      9 C9        -51.8503  -28.6540    7.6493 C.ar      14 UNK        -0.0844 
     10 C10       -51.6194  -27.4156    7.0443 C.ar      14 UNK        -0.0881 
     11 C11       -52.4309  -26.3163    7.3361 C.ar      14 UNK        -0.0643 
     12 C12       -53.5047  -26.4681    8.2192 C.ar      14 UNK        -0.0930 
     13 C13       -53.7527  -27.7055    8.8226 C.ar      14 UNK        -0.0827 
     14 C14       -52.9190  -28.7928    8.5395 C.ar      14 UNK        -0.1249 
     15 C15       -54.9184  -27.8744    9.7832 C.3       14 UNK         0.0141 
     16 S16       -54.3985  -27.5074   11.4871 S.3       14 UNK        -0.2313 
     17 C17       -55.1783  -28.8500   12.4499 C.3       14 UNK        -0.0915 
     18 CA        -56.2962  -28.3441   13.3984 C.3       13 UNK         0.0968 
     19 C         -57.0130  -29.5337   14.1055 C.2       13 UNK         0.5732 
     20 N         -56.9978  -29.6467   15.4296 N.am      13 UNK        -0.7310 
     21 O         -57.6127  -30.3694   13.4331 O.2       13 UNK        -0.5035 
     22 N         -55.7985  -27.3104   14.3163 N.am      13 UNK        -0.4233 
     23 C         -56.5679  -26.4301   14.9672 C.2       13 UNK         0.4989 
     24 O         -57.7821  -26.3181   14.7891 O.2       13 UNK        -0.4996 
     25 CA        -55.8528  -25.5295   15.9926 C.3       12 UNK         0.0216 
     26 CB        -56.8124  -24.9178   17.0359 C.3       12 UNK        -0.1964 
     27 N         -54.7191  -26.2005   16.6459 N.am      12 UNK        -0.4276 
     28 C         -54.7652  -27.2860   17.4319 C.2       12 UNK         0.5020 
     29 O         -55.8022  -27.8972   17.6981 O.2       12 UNK        -0.5489 
     30 CA        -53.4128  -27.7739   17.9867 C.3       11 UNK         0.0294 
     31 CB        -53.5253  -29.1081   18.7554 C.3       11 UNK        -0.2019 
     32 N         -52.3627  -27.8541   16.9630 N.am      11 UNK        -0.4493 
     33 C         -52.3710  -28.6031   15.8474 C.2       11 UNK         0.4932 
     34 O         -53.3207  -29.3086   15.5073 O.2       11 UNK        -0.5029 
     35 CA        -51.1038  -28.5561   14.9736 C.3       10 UNK         0.0280 
     36 CB        -51.3775  -28.9271   13.5057 C.3       10 UNK        -0.1976 
     37 N         -50.4959  -27.2272   15.0275 N.am      10 UNK        -0.4242 
     38 C         -49.2631  -26.9467   15.4712 C.2       10 UNK         0.5072 
     39 O         -48.4496  -27.8046   15.8170 O.2       10 UNK        -0.5224 
     40 CA        -48.8658  -25.4606   15.5937 C.3       9 UNK         0.0343 
     41 CB        -47.9003  -25.0512   14.4732 C.3       9 UNK        -0.2003 
     42 N         -50.0002  -24.5338   15.6045 N.am      9 UNK        -0.4272 
     43 C         -50.9106  -24.4519   16.5845 C.2       9 UNK         0.4988 
     44 O         -50.8801  -25.1352   17.6084 O.2       9 UNK        -0.5108 
     45 CA        -52.0934  -23.4948   16.3575 C.3       8 UNK         0.0248 
     46 CB        -51.7665  -22.0994   16.9115 C.3       8 UNK        -0.2001 
     47 N         -52.5226  -23.3752   14.9582 N.am      8 UNK        -0.4140 
     48 C         -52.8741  -24.3859   14.1496 C.2       8 UNK         0.5028 
     49 O         -52.8267  -25.5703   14.4853 O.2       8 UNK        -0.5428 
     50 CA        -53.4085  -24.0288   12.7517 C.3       7 UNK         0.0264 
     51 CB        -53.6624  -22.5193   12.5344 C.3       7 UNK        -0.1988 
     52 N         -52.5721  -24.5626   11.6733 N.am      7 UNK        -0.4454 
     53 C         -51.2729  -24.3161   11.4516 C.2       7 UNK         0.5027 
     54 O         -50.5521  -23.6541   12.2044 O.2       7 UNK        -0.5083 
     55 CA        -50.7288  -24.8164   10.0964 C.3       6 UNK         0.0844 
     56 C56       -51.0272  -23.7524    9.0075 C.3       14 UNK        -0.0967 
     57 S57       -50.5661  -24.2707    7.3218 S.3       14 UNK        -0.2604 
     58 C58       -52.1295  -24.9685    6.6990 C.3       14 UNK         0.0134 
     59 N         -49.3064  -25.1618   10.1599 N.am      6 UNK        -0.4116 
     60 C         -48.7968  -26.1627   10.8910 C.2       5 UNK         0.5034 
     61 O         -49.4817  -26.9127   11.5847 O.2       5 UNK        -0.5045 
     62 CA        -47.2733  -26.3784   10.8648 C.3       5 UNK         0.0224 
     63 CB        -46.9201  -27.7417   10.2466 C.3       5 UNK        -0.1978 
     64 N         -46.5579  -25.3270   10.1375 N.am      5 UNK        -0.4737 
     65 C         -45.9818  -24.2615   10.7120 C.2       4 UNK         0.5027 
     66 O         -46.0076  -24.0458   11.9229 O.2       4 UNK        -0.5211 
     67 CA        -45.2239  -23.2750    9.8031 C.3       4 UNK         0.0297 
     68 CB        -43.7060  -23.4337    9.9927 C.3       4 UNK        -0.1993 
     69 N         -45.5402  -23.4283    8.3824 N.am      4 UNK        -0.4486 
     70 C         -46.6650  -22.9943    7.7990 C.2       3 UNK         0.4961 
     71 O         -47.5440  -22.3657    8.3879 O.2       3 UNK        -0.5105 
     72 CA        -46.8479  -23.3549    6.3128 C.3       3 UNK         0.0299 
     73 CB        -46.2624  -22.2523    5.4160 C.3       3 UNK        -0.1972 
     74 N         -46.2643  -24.6521    5.9411 N.am      3 UNK        -0.4305 
     75 C         -46.6438  -25.8282    6.4588 C.2       2 UNK         0.5006 
     76 O         -47.4951  -25.9467    7.3416 O.2       2 UNK        -0.5106 
     77 CA        -45.9271  -27.0810    5.9512 C.3       2 UNK         0.0296 
     78 CB        -44.7072  -27.4026    6.8363 C.3       2 UNK        -0.2002 
     79 N         -46.8965  -28.1710    5.9827 N.am      2 UNK        -0.4032 
     80 C         -46.7900  -29.3539    5.3706 C.2       1 UNK         0.5000 
     81 O         -45.7791  -29.7188    4.7617 O.2       1 UNK        -0.5238 
     82 H82       -47.1427  -32.3991    1.6261 H         1 UNK         0.0889 
     83 H83       -48.8246  -32.8799    1.8686 H         1 UNK         0.0889 
     84 H84       -47.5807  -33.4182    2.9985 H         1 UNK         0.0889 
     85 H85       -47.5635  -32.2576    4.9092 H         1 UNK         0.3028 
     86 H86       -48.8805  -29.6702    5.1171 H         1 UNK         0.0864 
     87 H87       -47.4124  -31.0445    7.4145 H         1 UNK         0.0720 
     88 H88       -48.9363  -31.6786    6.8649 H         1 UNK         0.0720 
     89 H89       -51.3218  -30.7523    7.7845 H         1 UNK         0.0814 
     90 H90       -50.9687  -30.0027    6.2458 H         1 UNK         0.0814 
     91 H91       -50.7876  -27.2979    6.3632 H         1 UNK         0.1469 
     92 H92       -54.1420  -25.6237    8.4438 H         1 UNK         0.1381 
     93 H93       -53.1050  -29.7470    9.0134 H         1 UNK         0.1206 
     94 H94       -55.3092  -28.8888    9.6996 H         1 UNK         0.0813 
     95 H95       -55.7396  -27.2104    9.5092 H         1 UNK         0.0813 
     96 H96       -54.3946  -29.3448   13.0249 H         1 UNK         0.0638 
     97 H97       -55.5685  -29.6099   11.7720 H         1 UNK         0.0638 
     98 H98       -57.0585  -27.8775   12.7717 H         1 UNK         0.0568 
     99 H99       -57.4735  -30.4232   15.8593 H         1 UNK         0.3450 
    100 H100      -56.5133  -28.9724   16.0101 H         1 UNK         0.3450 
    101 H101      -54.8095  -27.3438   14.5217 H         1 UNK         0.2987 
    102 H102      -55.4364  -24.7009   15.4207 H         1 UNK         0.0766 
    103 H103      -57.5721  -24.3009   16.5544 H         1 UNK         0.0798 
    104 H104      -56.2784  -24.2799   17.7401 H         1 UNK         0.0798 
    105 H105      -57.3344  -25.6859   17.6074 H         1 UNK         0.0798 
    106 H106      -53.8038  -25.8663   16.3680 H         1 UNK         0.3198 
    107 H107      -53.0876  -27.0130   18.6983 H         1 UNK         0.0843 
    108 H108      -53.8842  -29.9153   18.1157 H         1 UNK         0.0831 
    109 H109      -54.2239  -29.0207   19.5885 H         1 UNK         0.0831 
    110 H110      -52.5639  -29.4103   19.1703 H         1 UNK         0.0831 
    111 H111      -51.5501  -27.2732   17.1333 H         1 UNK         0.3133 
    112 H112      -50.4261  -29.3051   15.3869 H         1 UNK         0.0566 
    113 H113      -51.8754  -29.8934   13.4190 H         1 UNK         0.0814 
    114 H114      -52.0067  -28.1820   13.0197 H         1 UNK         0.0814 
    115 H115      -50.4486  -28.9954   12.9403 H         1 UNK         0.0814 
    116 H116      -51.1195  -26.4641   14.7751 H         1 UNK         0.3091 
    117 H117      -48.3403  -25.3531   16.5449 H         1 UNK         0.0702 
    118 H118      -47.0615  -25.7444   14.3976 H         1 UNK         0.0785 
    119 H119      -47.4830  -24.0599   14.6507 H         1 UNK         0.0785 
    120 H120      -48.3995  -25.0297   13.5055 H         1 UNK         0.0785 
    121 H121      -50.1289  -23.9648   14.7779 H         1 UNK         0.2998 
    122 H122      -52.9405  -23.8881   16.9221 H         1 UNK         0.0697 
    123 H123      -50.9516  -21.6265   16.3617 H         1 UNK         0.0825 
    124 H124      -51.4635  -22.1556   17.9582 H         1 UNK         0.0825 
    125 H125      -52.6326  -21.4389   16.8639 H         1 UNK         0.0825 
    126 H126      -52.5811  -22.4379   14.5867 H         1 UNK         0.3029 
    127 H127      -54.3712  -24.5359   12.6694 H         1 UNK         0.0897 
    128 H128      -52.7428  -21.9336   12.5704 H         1 UNK         0.0792 
    129 H129      -54.3467  -22.1186   13.2838 H         1 UNK         0.0792 
    130 H130      -54.1229  -22.3402   11.5626 H         1 UNK         0.0792 
    131 H131      -53.0498  -25.1851   11.0355 H         1 UNK         0.3086 
    132 H132      -51.2617  -25.7350    9.8445 H         1 UNK         0.0583 
    133 H133      -52.0847  -23.4809    9.0064 H         1 UNK         0.1020 
    134 H134      -50.4855  -22.8297    9.2273 H         1 UNK         0.1020 
    135 H135      -52.9429  -24.2603    6.8639 H         1 UNK         0.0694 
    136 H136      -52.0499  -25.0966    5.6186 H         1 UNK         0.0694 
    137 H137      -48.6811  -24.5965    9.6046 H         1 UNK         0.2989 
    138 H138      -46.9425  -26.3966   11.9052 H         1 UNK         0.1055 
    139 H139      -47.2144  -27.7981    9.1994 H         1 UNK         0.0806 
    140 H140      -47.4283  -28.5536   10.7688 H         1 UNK         0.0806 
    141 H141      -45.8500  -27.9391   10.3064 H         1 UNK         0.0806 
    142 H142      -46.5579  -25.4091    9.1269 H         1 UNK         0.3061 
    143 H143      -45.5027  -22.2658   10.1142 H         1 UNK         0.0734 
    144 H144      -43.3633  -24.4271    9.7001 H         1 UNK         0.0832 
    145 H145      -43.4262  -23.2884   11.0371 H         1 UNK         0.0832 
    146 H146      -43.1526  -22.6993    9.4072 H         1 UNK         0.0832 
    147 H147      -44.8721  -23.9312    7.8168 H         1 UNK         0.3156 
    148 H148      -47.9209  -23.4117    6.1208 H         1 UNK         0.0589 
    149 H149      -46.4706  -22.4438    4.3632 H         1 UNK         0.0808 
    150 H150      -46.6981  -21.2818    5.6581 H         1 UNK         0.0808 
    151 H151      -45.1819  -22.1631    5.5356 H         1 UNK         0.0808 
    152 H152      -45.5494  -24.6403    5.2271 H         1 UNK         0.3098 
    153 H153      -45.6077  -26.9203    4.9195 H         1 UNK         0.0720 
    154 H154      -44.9979  -27.5902    7.8703 H         1 UNK         0.0791 
    155 H155      -43.9962  -26.5756    6.8410 H         1 UNK         0.0791 
    156 H156      -44.1724  -28.2817    6.4771 H         1 UNK         0.0791 
    157 H157      -47.7409  -27.9493    6.4998 H         1 UNK         0.3028 
@<TRIPOS>BOND
     1    1    2 1    
     2    1   82 1    
     3    1   83 1    
     4    1   84 1    
     5    2    3 2    
     6    2    4 am   BACKBONE|DICT|INTERRES
     7    4    5 1    
     8    4   85 1    
     9    5    6 1    
    10    5   80 1    
    11    5   86 1    
    12    6    7 1    
    13    6   87 1    
    14    6   88 1    
    15    7    8 1    
    16    8    9 1    
    17    8   89 1    
    18    8   90 1    
    19    9   10 ar   
    20    9   14 ar   
    21   10   11 ar   
    22   10   91 1    
    23   11   12 ar   
    24   11   58 1    
    25   12   13 ar   
    26   12   92 1    
    27   13   14 ar   
    28   13   15 1    
    29   14   93 1    
    30   15   16 1    
    31   15   94 1    
    32   15   95 1    
    33   16   17 1    
    34   17   18 1    
    35   17   96 1    
    36   17   97 1    
    37   18   19 1    
    38   18   22 1    
    39   18   98 1    
    40   19   20 am   BACKBONE|DICT|INTERRES
    41   19   21 2    
    42   20   99 1    
    43   20  100 1    
    44   22   23 am   BACKBONE|DICT|INTERRES
    45   22  101 1    
    46   23   24 2    
    47   23   25 1    
    48   25   26 1    
    49   25   27 1    
    50   25  102 1    
    51   26  103 1    
    52   26  104 1    
    53   26  105 1    
    54   27   28 am   BACKBONE|DICT|INTERRES
    55   27  106 1    
    56   28   29 2    
    57   28   30 1    
    58   30   31 1    
    59   30   32 1    
    60   30  107 1    
    61   31  108 1    
    62   31  109 1    
    63   31  110 1    
    64   32   33 am   BACKBONE|DICT|INTERRES
    65   32  111 1    
    66   33   34 2    
    67   33   35 1    
    68   35   36 1    
    69   35   37 1    
    70   35  112 1    
    71   36  113 1    
    72   36  114 1    
    73   36  115 1    
    74   37   38 am   BACKBONE|DICT|INTERRES
    75   37  116 1    
    76   38   39 2    
    77   38   40 1    
    78   40   41 1    
    79   40   42 1    
    80   40  117 1    
    81   41  118 1    
    82   41  119 1    
    83   41  120 1    
    84   42   43 am   BACKBONE|DICT|INTERRES
    85   42  121 1    
    86   43   44 2    
    87   43   45 1    
    88   45   46 1    
    89   45   47 1    
    90   45  122 1    
    91   46  123 1    
    92   46  124 1    
    93   46  125 1    
    94   47   48 am   BACKBONE|DICT|INTERRES
    95   47  126 1    
    96   48   49 2    
    97   48   50 1    
    98   50   51 1    
    99   50   52 1    
   100   50  127 1    
   101   51  128 1    
   102   51  129 1    
   103   51  130 1    
   104   52   53 am   BACKBONE|DICT|INTERRES
   105   52  131 1    
   106   53   54 2    
   107   53   55 1    
   108   55   56 1    
   109   55   59 1    
   110   55  132 1    
   111   56   57 1    
   112   56  133 1    
   113   56  134 1    
   114   57   58 1    
   115   58  135 1    
   116   58  136 1    
   117   59   60 am   BACKBONE|DICT|INTERRES
   118   59  137 1    
   119   60   61 2    
   120   60   62 1    
   121   62   63 1    
   122   62   64 1    
   123   62  138 1    
   124   63  139 1    
   125   63  140 1    
   126   63  141 1    
   127   64   65 am   BACKBONE|DICT|INTERRES
   128   64  142 1    
   129   65   66 2    
   130   65   67 1    
   131   67   68 1    
   132   67   69 1    
   133   67  143 1    
   134   68  144 1    
   135   68  145 1    
   136   68  146 1    
   137   69   70 am   BACKBONE|DICT|INTERRES
   138   69  147 1    
   139   70   71 2    
   140   70   72 1    
   141   72   73 1    
   142   72   74 1    
   143   72  148 1    
   144   73  149 1    
   145   73  150 1    
   146   73  151 1    
   147   74   75 am   BACKBONE|DICT|INTERRES
   148   74  152 1    
   149   75   76 2    
   150   75   77 1    
   151   77   78 1    
   152   77   79 1    
   153   77  153 1    
   154   78  154 1    
   155   78  155 1    
   156   78  156 1    
   157   79   80 am   BACKBONE|DICT|INTERRES
   158   79  157 1    
   159   80   81 2    
@<TRIPOS>SUBSTRUCTURE
     1 UNK         1 GROUP             0       ****    0 ROOT    
