@<TRIPOS>MOLECULE
3R207
157   159    1
SMALL
USER_CHARGES


@<TRIPOS>ATOM
      1 CA        -53.9909  -31.1521    6.8859 C.3       0 UNK        -0.1975 
      2 C         -53.0125  -30.6572    5.8323 C.2       0 UNK         0.4852 
      3 O         -52.3773  -31.4689    5.1588 O.2       0 UNK        -0.5216 
      4 N         -52.8925  -29.3320    5.6755 N.am      1 UNK        -0.4461 
      5 CA        -52.0860  -28.6868    4.6273 C.3       1 UNK         0.0864 
      6 C6        -52.6088  -27.2724    4.2521 C.3       14 UNK        -0.0898 
      7 S7        -54.4318  -27.1722    4.1380 S.3       14 UNK        -0.2598 
      8 C8        -54.8375  -25.8145    5.2891 C.3       14 UNK         0.0286 
      9 C9        -54.2169  -25.9786    6.6732 C.ar      14 UNK        -0.0844 
     10 C10       -53.1912  -25.1194    7.0803 C.ar      14 UNK        -0.0881 
     11 C11       -52.6344  -25.2324    8.3552 C.ar      14 UNK        -0.0643 
     12 C12       -53.1104  -26.2146    9.2280 C.ar      14 UNK        -0.0930 
     13 C13       -54.1399  -27.0833    8.8405 C.ar      14 UNK        -0.0827 
     14 C14       -54.6862  -26.9560    7.5575 C.ar      14 UNK        -0.1249 
     15 C15       -54.7392  -28.1138    9.8005 C.3       14 UNK         0.0141 
     16 S16       -53.6387  -28.6639   11.1504 S.3       14 UNK        -0.2313 
     17 C17       -52.4531  -29.7371   10.2808 C.3       14 UNK        -0.0915 
     18 CA        -51.9873  -30.9388   11.1487 C.3       13 UNK         0.0968 
     19 C         -51.0364  -31.8527   10.3196 C.2       13 UNK         0.5732 
     20 N         -49.7454  -31.9242   10.6220 N.am      13 UNK        -0.7310 
     21 O         -51.4831  -32.5075    9.3817 O.2       13 UNK        -0.5035 
     22 N         -51.4648  -30.5035   12.4589 N.am      13 UNK        -0.4233 
     23 C         -51.1527  -31.3123   13.4803 C.2       13 UNK         0.4989 
     24 O         -51.3094  -32.5335   13.4657 O.2       13 UNK        -0.4996 
     25 CA        -50.5426  -30.6468   14.7250 C.3       12 UNK         0.0216 
     26 CB        -49.0908  -30.2085   14.4637 C.3       12 UNK        -0.1964 
     27 N         -51.3214  -29.5085   15.2215 N.am      12 UNK        -0.4276 
     28 C         -52.4588  -29.6233   15.9234 C.2       12 UNK         0.5020 
     29 O         -53.0187  -30.6964   16.1510 O.2       12 UNK        -0.5489 
     30 CA        -53.0534  -28.3303   16.5085 C.3       11 UNK         0.0294 
     31 CB        -52.4566  -28.0492   17.8969 C.3       11 UNK        -0.2019 
     32 N         -52.8408  -27.1672   15.6446 N.am      11 UNK        -0.4493 
     33 C         -53.5897  -26.8977   14.5645 C.2       11 UNK         0.4932 
     34 O         -54.5657  -27.5724   14.2356 O.2       11 UNK        -0.5029 
     35 CA        -53.1722  -25.6840   13.7104 C.3       10 UNK         0.0280 
     36 CB        -54.3054  -25.1411   12.8136 C.3       10 UNK        -0.1976 
     37 N         -52.5516  -24.6145   14.5010 N.am      10 UNK        -0.4242 
     38 C         -53.1306  -23.8668   15.4537 C.2       10 UNK         0.5072 
     39 O         -54.3212  -23.9525   15.7599 O.2       10 UNK        -0.5224 
     40 CA        -52.2344  -22.8457   16.1890 C.3       9 UNK         0.0343 
     41 CB        -52.7344  -22.5516   17.6198 C.3       9 UNK        -0.2003 
     42 N         -50.8031  -23.1787   16.2137 N.am      9 UNK        -0.4272 
     43 C         -50.2267  -24.2796   16.7238 C.2       9 UNK         0.4988 
     44 O         -50.8640  -25.2295   17.1811 O.2       9 UNK        -0.5108 
     45 CA        -48.6865  -24.3422   16.6785 C.3       8 UNK         0.0248 
     46 CB        -48.1670  -25.7930   16.6750 C.3       8 UNK        -0.2001 
     47 N         -48.1791  -23.6565   15.4892 N.am      8 UNK        -0.4140 
     48 C         -47.5693  -22.4627   15.4577 C.2       8 UNK         0.5028 
     49 O         -47.2790  -21.8160   16.4640 O.2       8 UNK        -0.5428 
     50 CA        -47.2618  -21.8673   14.0675 C.3       7 UNK         0.0264 
     51 CB        -45.7844  -22.0810   13.7019 C.3       7 UNK        -0.1988 
     52 N         -48.1151  -22.4228   13.0100 N.am      7 UNK        -0.4454 
     53 C         -49.4249  -22.1502   12.8834 C.2       7 UNK         0.5027 
     54 O         -50.0025  -21.3007   13.5625 O.2       7 UNK        -0.5083 
     55 CA        -50.2608  -23.0230   11.9221 C.3       6 UNK         0.0844 
     56 C56       -50.6768  -22.2776   10.6315 C.3       14 UNK        -0.0967 
     57 S57       -52.1912  -23.0118    9.9236 S.3       14 UNK        -0.2604 
     58 C58       -51.5326  -24.2845    8.8031 C.3       14 UNK         0.0134 
     59 N         -49.6182  -24.3061   11.6278 N.am      6 UNK        -0.4116 
     60 C         -49.4870  -25.3078   12.5055 C.2       5 UNK         0.5034 
     61 O         -49.8854  -25.2474   13.6669 O.2       5 UNK        -0.5045 
     62 CA        -48.7776  -26.5800   12.0272 C.3       5 UNK         0.0224 
     63 CB        -49.8236  -27.6091   11.5831 C.3       5 UNK        -0.1978 
     64 N         -47.8216  -26.3348   10.9429 N.am      5 UNK        -0.4737 
     65 C         -46.6844  -25.6378   11.0985 C.2       4 UNK         0.5027 
     66 O         -46.3400  -25.1478   12.1732 O.2       4 UNK        -0.5211 
     67 CA        -45.7916  -25.4156    9.8639 C.3       4 UNK         0.0297 
     68 CB        -44.6347  -26.4272    9.8566 C.3       4 UNK        -0.1993 
     69 N         -46.5028  -25.4904    8.5864 N.am      4 UNK        -0.4486 
     70 C         -47.4840  -24.6660    8.1940 C.2       3 UNK         0.4961 
     71 O         -47.8947  -23.7179    8.8637 O.2       3 UNK        -0.5105 
     72 CA        -48.1581  -24.9947    6.8487 C.3       3 UNK         0.0299 
     73 CB        -47.4360  -24.2786    5.6971 C.3       3 UNK        -0.1972 
     74 N         -48.2544  -26.4308    6.5502 N.am      3 UNK        -0.4305 
     75 C         -48.8221  -27.3478    7.3463 C.2       2 UNK         0.5006 
     76 O         -49.2910  -27.0960    8.4563 O.2       2 UNK        -0.5106 
     77 CA        -48.9044  -28.7801    6.8059 C.3       2 UNK         0.0296 
     78 CB        -48.6856  -29.8192    7.9201 C.3       2 UNK        -0.2002 
     79 N         -50.2294  -28.9706    6.2276 N.am      2 UNK        -0.4032 
     80 C         -50.5844  -28.6182    4.9845 C.2       1 UNK         0.5000 
     81 O         -49.7808  -28.2159    4.1403 O.2       1 UNK        -0.5238 
     82 H82       -54.4983  -30.3297    7.3875 H         1 UNK         0.0889 
     83 H83       -53.4698  -31.7466    7.6354 H         1 UNK         0.0889 
     84 H84       -54.7498  -31.7820    6.4227 H         1 UNK         0.0889 
     85 H85       -53.4479  -28.7006    6.2374 H         1 UNK         0.3028 
     86 H86       -52.1601  -29.3030    3.7284 H         1 UNK         0.0864 
     87 H87       -52.2010  -26.9753    3.2841 H         1 UNK         0.0720 
     88 H88       -52.2426  -26.5257    4.9560 H         1 UNK         0.0720 
     89 H89       -55.9220  -25.7525    5.3894 H         1 UNK         0.0814 
     90 H90       -54.5241  -24.8719    4.8376 H         1 UNK         0.0814 
     91 H91       -52.8314  -24.3528    6.4077 H         1 UNK         0.1469 
     92 H92       -52.6896  -26.2723   10.2213 H         1 UNK         0.1381 
     93 H93       -55.4970  -27.6030    7.2506 H         1 UNK         0.1206 
     94 H94       -55.0898  -28.9889    9.2532 H         1 UNK         0.0813 
     95 H95       -55.6248  -27.6680   10.2549 H         1 UNK         0.0813 
     96 H96       -52.9237  -30.0960    9.3658 H         1 UNK         0.0638 
     97 H97       -51.6053  -29.1299    9.9628 H         1 UNK         0.0638 
     98 H98       -52.8683  -31.5475   11.3602 H         1 UNK         0.0568 
     99 H99       -49.1487  -32.5262   10.0781 H         1 UNK         0.3450 
    100 H100      -49.3671  -31.4028   11.3943 H         1 UNK         0.3450 
    101 H101      -51.3501  -29.5101   12.5727 H         1 UNK         0.2987 
    102 H102      -50.5153  -31.4030   15.5132 H         1 UNK         0.0766 
    103 H103      -49.0243  -29.4181   13.7171 H         1 UNK         0.0798 
    104 H104      -48.4893  -31.0457   14.1063 H         1 UNK         0.0798 
    105 H105      -48.6190  -29.8436   15.3764 H         1 UNK         0.0798 
    106 H106      -50.9300  -28.5867   15.0990 H         1 UNK         0.3198 
    107 H107      -54.1278  -28.4851   16.6321 H         1 UNK         0.0843 
    108 H108      -52.8998  -27.1602   18.3463 H         1 UNK         0.0831 
    109 H109      -51.3775  -27.8962   17.8516 H         1 UNK         0.0831 
    110 H110      -52.6399  -28.8825   18.5766 H         1 UNK         0.0831 
    111 H111      -52.1012  -26.5252   15.9091 H         1 UNK         0.3133 
    112 H112      -52.3952  -26.0543   13.0417 H         1 UNK         0.0566 
    113 H113      -54.6602  -25.9082   12.1248 H         1 UNK         0.0814 
    114 H114      -55.1648  -24.8107   13.3971 H         1 UNK         0.0814 
    115 H115      -53.9641  -24.3011   12.2089 H         1 UNK         0.0814 
    116 H116      -51.5491  -24.5226   14.3660 H         1 UNK         0.3091 
    117 H117      -52.3138  -21.9203   15.6164 H         1 UNK         0.0702 
    118 H118      -52.1087  -21.8086   18.1144 H         1 UNK         0.0785 
    119 H119      -52.7392  -23.4510   18.2367 H         1 UNK         0.0785 
    120 H120      -53.7517  -22.1582   17.6097 H         1 UNK         0.0785 
    121 H121      -50.1936  -22.4732   15.8221 H         1 UNK         0.2998 
    122 H122      -48.3212  -23.8526   17.5832 H         1 UNK         0.0697 
    123 H123      -47.0782  -25.8235   16.6330 H         1 UNK         0.0825 
    124 H124      -48.4693  -26.3211   17.5803 H         1 UNK         0.0825 
    125 H125      -48.5509  -26.3573   15.8242 H         1 UNK         0.0825 
    126 H126      -48.4198  -24.1003   14.6113 H         1 UNK         0.3029 
    127 H127      -47.4445  -20.7917   14.1240 H         1 UNK         0.0897 
    128 H128      -45.5487  -21.6551   12.7265 H         1 UNK         0.0792 
    129 H129      -45.1313  -21.6001   14.4314 H         1 UNK         0.0792 
    130 H130      -45.5206  -23.1387   13.6809 H         1 UNK         0.0792 
    131 H131      -47.7044  -23.1435   12.4304 H         1 UNK         0.3086 
    132 H132      -51.1759  -23.2431   12.4756 H         1 UNK         0.0583 
    133 H133      -50.9072  -21.2317   10.8450 H         1 UNK         0.1020 
    134 H134      -49.8733  -22.2633    9.8933 H         1 UNK         0.1020 
    135 H135      -51.0711  -23.7927    7.9466 H         1 UNK         0.0694 
    136 H136      -50.7484  -24.8616    9.2913 H         1 UNK         0.0694 
    137 H137      -49.2242  -24.4159   10.7024 H         1 UNK         0.2989 
    138 H138      -48.2274  -26.9880   12.8782 H         1 UNK         0.1055 
    139 H139      -50.4331  -27.2292   10.7630 H         1 UNK         0.0806 
    140 H140      -50.5033  -27.8420   12.4022 H         1 UNK         0.0806 
    141 H141      -49.3583  -28.5390   11.2557 H         1 UNK         0.0806 
    142 H142      -48.0844  -26.6685   10.0200 H         1 UNK         0.3061 
    143 H143      -45.3694  -24.4119    9.9478 H         1 UNK         0.0734 
    144 H144      -43.9372  -26.2294    9.0425 H         1 UNK         0.0832 
    145 H145      -44.0660  -26.3753   10.7863 H         1 UNK         0.0832 
    146 H146      -44.9943  -27.4518    9.7525 H         1 UNK         0.0832 
    147 H147      -46.2477  -26.2465    7.9680 H         1 UNK         0.3156 
    148 H148      -49.1779  -24.6116    6.8942 H         1 UNK         0.0589 
    149 H149      -46.4179  -24.6476    5.5657 H         1 UNK         0.0808 
    150 H150      -47.9658  -24.4089    4.7532 H         1 UNK         0.0808 
    151 H151      -47.3721  -23.2055    5.8839 H         1 UNK         0.0808 
    152 H152      -47.9319  -26.7252    5.6385 H         1 UNK         0.3098 
    153 H153      -48.1363  -28.9278    6.0437 H         1 UNK         0.0720 
    154 H154      -47.7026  -29.6999    8.3772 H         1 UNK         0.0791 
    155 H155      -49.4260  -29.7255    8.7150 H         1 UNK         0.0791 
    156 H156      -48.7428  -30.8360    7.5312 H         1 UNK         0.0791 
    157 H157      -50.9617  -29.2543    6.8610 H         1 UNK         0.3028 
@<TRIPOS>BOND
     1    1    2 1    
     2    1   82 1    
     3    1   83 1    
     4    1   84 1    
     5    2    3 2    
     6    2    4 am   BACKBONE|DICT|INTERRES
     7    4    5 1    
     8    4   85 1    
     9    5    6 1    
    10    5   80 1    
    11    5   86 1    
    12    6    7 1    
    13    6   87 1    
    14    6   88 1    
    15    7    8 1    
    16    8    9 1    
    17    8   89 1    
    18    8   90 1    
    19    9   10 ar   
    20    9   14 ar   
    21   10   11 ar   
    22   10   91 1    
    23   11   12 ar   
    24   11   58 1    
    25   12   13 ar   
    26   12   92 1    
    27   13   14 ar   
    28   13   15 1    
    29   14   93 1    
    30   15   16 1    
    31   15   94 1    
    32   15   95 1    
    33   16   17 1    
    34   17   18 1    
    35   17   96 1    
    36   17   97 1    
    37   18   19 1    
    38   18   22 1    
    39   18   98 1    
    40   19   20 am   BACKBONE|DICT|INTERRES
    41   19   21 2    
    42   20   99 1    
    43   20  100 1    
    44   22   23 am   BACKBONE|DICT|INTERRES
    45   22  101 1    
    46   23   24 2    
    47   23   25 1    
    48   25   26 1    
    49   25   27 1    
    50   25  102 1    
    51   26  103 1    
    52   26  104 1    
    53   26  105 1    
    54   27   28 am   BACKBONE|DICT|INTERRES
    55   27  106 1    
    56   28   29 2    
    57   28   30 1    
    58   30   31 1    
    59   30   32 1    
    60   30  107 1    
    61   31  108 1    
    62   31  109 1    
    63   31  110 1    
    64   32   33 am   BACKBONE|DICT|INTERRES
    65   32  111 1    
    66   33   34 2    
    67   33   35 1    
    68   35   36 1    
    69   35   37 1    
    70   35  112 1    
    71   36  113 1    
    72   36  114 1    
    73   36  115 1    
    74   37   38 am   BACKBONE|DICT|INTERRES
    75   37  116 1    
    76   38   39 2    
    77   38   40 1    
    78   40   41 1    
    79   40   42 1    
    80   40  117 1    
    81   41  118 1    
    82   41  119 1    
    83   41  120 1    
    84   42   43 am   BACKBONE|DICT|INTERRES
    85   42  121 1    
    86   43   44 2    
    87   43   45 1    
    88   45   46 1    
    89   45   47 1    
    90   45  122 1    
    91   46  123 1    
    92   46  124 1    
    93   46  125 1    
    94   47   48 am   BACKBONE|DICT|INTERRES
    95   47  126 1    
    96   48   49 2    
    97   48   50 1    
    98   50   51 1    
    99   50   52 1    
   100   50  127 1    
   101   51  128 1    
   102   51  129 1    
   103   51  130 1    
   104   52   53 am   BACKBONE|DICT|INTERRES
   105   52  131 1    
   106   53   54 2    
   107   53   55 1    
   108   55   56 1    
   109   55   59 1    
   110   55  132 1    
   111   56   57 1    
   112   56  133 1    
   113   56  134 1    
   114   57   58 1    
   115   58  135 1    
   116   58  136 1    
   117   59   60 am   BACKBONE|DICT|INTERRES
   118   59  137 1    
   119   60   61 2    
   120   60   62 1    
   121   62   63 1    
   122   62   64 1    
   123   62  138 1    
   124   63  139 1    
   125   63  140 1    
   126   63  141 1    
   127   64   65 am   BACKBONE|DICT|INTERRES
   128   64  142 1    
   129   65   66 2    
   130   65   67 1    
   131   67   68 1    
   132   67   69 1    
   133   67  143 1    
   134   68  144 1    
   135   68  145 1    
   136   68  146 1    
   137   69   70 am   BACKBONE|DICT|INTERRES
   138   69  147 1    
   139   70   71 2    
   140   70   72 1    
   141   72   73 1    
   142   72   74 1    
   143   72  148 1    
   144   73  149 1    
   145   73  150 1    
   146   73  151 1    
   147   74   75 am   BACKBONE|DICT|INTERRES
   148   74  152 1    
   149   75   76 2    
   150   75   77 1    
   151   77   78 1    
   152   77   79 1    
   153   77  153 1    
   154   78  154 1    
   155   78  155 1    
   156   78  156 1    
   157   79   80 am   BACKBONE|DICT|INTERRES
   158   79  157 1    
   159   80   81 2    
@<TRIPOS>SUBSTRUCTURE
     1 UNK         1 GROUP             0       ****    0 ROOT    
