@<TRIPOS>MOLECULE
3R207
157   159    1
SMALL
USER_CHARGES


@<TRIPOS>ATOM
      1 CA        -45.5435  -30.0868    6.3048 C.3       0 UNK        -0.1975 
      2 C         -46.3032  -28.8334    6.7099 C.2       0 UNK         0.4852 
      3 O         -45.7022  -27.9071    7.2524 O.2       0 UNK        -0.5216 
      4 N         -47.6114  -28.7831    6.4225 N.am      1 UNK        -0.4461 
      5 CA        -48.5517  -27.7123    6.8001 C.3       1 UNK         0.0864 
      6 C6        -48.8709  -27.6727    8.3240 C.3       14 UNK        -0.0898 
      7 S7        -49.2576  -29.3085    9.0408 S.3       14 UNK        -0.2598 
      8 C8        -50.9084  -29.6661    8.3597 C.3       14 UNK         0.0286 
      9 C9        -52.0037  -28.8826    9.0643 C.ar      14 UNK        -0.0844 
     10 C10       -52.5779  -27.7584    8.4647 C.ar      14 UNK        -0.0881 
     11 C11       -53.6000  -27.0556    9.1109 C.ar      14 UNK        -0.0643 
     12 C12       -54.0518  -27.4880   10.3626 C.ar      14 UNK        -0.0930 
     13 C13       -53.4822  -28.6107   10.9705 C.ar      14 UNK        -0.0827 
     14 C14       -52.4606  -29.3024   10.3151 C.ar      14 UNK        -0.1249 
     15 C15       -53.9420  -29.0654   12.3473 C.3       14 UNK         0.0141 
     16 S16       -54.6931  -30.7237   12.3144 S.3       14 UNK        -0.2313 
     17 C17       -56.3234  -30.3761   11.5685 C.3       14 UNK        -0.0915 
     18 CA        -57.4941  -30.4570   12.5835 C.3       13 UNK         0.0968 
     19 C         -57.8303  -31.9222   12.9924 C.2       13 UNK         0.5732 
     20 N         -57.7413  -32.2986   14.2629 N.am      13 UNK        -0.7310 
     21 O         -58.1961  -32.7286   12.1401 O.2       13 UNK        -0.5035 
     22 N         -57.2927  -29.5241   13.7025 N.am      13 UNK        -0.4233 
     23 C         -58.2653  -29.0122   14.4640 C.2       13 UNK         0.4989 
     24 O         -59.4601  -29.2756   14.3208 O.2       13 UNK        -0.4996 
     25 CA        -57.8418  -28.0377   15.5783 C.3       12 UNK         0.0216 
     26 CB        -57.7145  -28.7827   16.9173 C.3       12 UNK        -0.1964 
     27 N         -56.6001  -27.2939   15.3282 N.am      12 UNK        -0.4276 
     28 C         -56.3682  -26.4530   14.3137 C.2       12 UNK         0.5020 
     29 O         -57.1543  -26.2874   13.3807 O.2       12 UNK        -0.5489 
     30 CA        -55.0598  -25.6336   14.3179 C.3       11 UNK         0.0294 
     31 CB        -55.3467  -24.1860   14.7601 C.3       11 UNK        -0.2019 
     32 N         -53.8958  -26.1598   15.0554 N.am      11 UNK        -0.4493 
     33 C         -53.7633  -26.4509   16.3584 C.2       11 UNK         0.4932 
     34 O         -54.7105  -26.4931   17.1439 O.2       11 UNK        -0.5029 
     35 CA        -52.3413  -26.6818   16.9062 C.3       10 UNK         0.0280 
     36 CB        -52.2937  -27.7663   18.0048 C.3       10 UNK        -0.1976 
     37 N         -51.3005  -26.8792   15.8879 N.am      10 UNK        -0.4242 
     38 C         -51.0472  -27.9751   15.1538 C.2       10 UNK         0.5072 
     39 O         -51.7220  -29.0027   15.2159 O.2       10 UNK        -0.5224 
     40 CA        -49.8328  -27.9419   14.1958 C.3       9 UNK         0.0343 
     41 CB        -50.2238  -28.3521   12.7673 C.3       9 UNK        -0.2003 
     42 N         -49.1683  -26.6396   14.1342 N.am      9 UNK        -0.4272 
     43 C         -48.2656  -26.1822   15.0120 C.2       9 UNK         0.4988 
     44 O         -47.8082  -26.8497   15.9396 O.2       9 UNK        -0.5108 
     45 CA        -47.8485  -24.7079   14.8613 C.3       8 UNK         0.0248 
     46 CB        -46.6180  -24.5736   13.9493 C.3       8 UNK        -0.2001 
     47 N         -48.9403  -23.8665   14.3563 N.am      8 UNK        -0.4140 
     48 C         -50.0649  -23.5998   15.0380 C.2       8 UNK         0.5028 
     49 O         -50.2766  -23.9939   16.1843 O.2       8 UNK        -0.5428 
     50 CA        -51.1619  -22.8116   14.3034 C.3       7 UNK         0.0264 
     51 CB        -50.9143  -21.2995   14.4207 C.3       7 UNK        -0.1988 
     52 N         -51.2917  -23.1799   12.8908 N.am      7 UNK        -0.4454 
     53 C         -51.6748  -24.3871   12.4454 C.2       7 UNK         0.5027 
     54 O         -51.9779  -25.3229   13.1833 O.2       7 UNK        -0.5083 
     55 CA        -51.6657  -24.5982   10.9186 C.3       6 UNK         0.0844 
     56 C56       -52.9827  -24.0723   10.2966 C.3       14 UNK        -0.0967 
     57 S57       -53.0845  -24.3985    8.5042 S.3       14 UNK        -0.2604 
     58 C58       -54.2119  -25.8280    8.4526 C.3       14 UNK         0.0134 
     59 N         -50.4731  -24.0091   10.2976 N.am      6 UNK        -0.4116 
     60 C         -49.2138  -24.3581   10.5888 C.2       5 UNK         0.5034 
     61 O         -48.9099  -25.2467   11.3903 O.2       5 UNK        -0.5045 
     62 CA        -48.1092  -23.5194    9.9437 C.3       5 UNK         0.0224 
     63 CB        -47.9286  -22.1884   10.7018 C.3       5 UNK        -0.1978 
     64 N         -46.8733  -24.2926    9.9768 N.am      5 UNK        -0.4737 
     65 C         -45.7878  -24.0590    9.2346 C.2       4 UNK         0.5027 
     66 O         -45.6832  -23.0909    8.4793 O.2       4 UNK        -0.5211 
     67 CA        -44.6236  -25.0625    9.3460 C.3       4 UNK         0.0297 
     68 CB        -44.8983  -26.2530   10.2896 C.3       4 UNK        -0.1993 
     69 N         -44.3257  -25.5785    8.0140 N.am      4 UNK        -0.4486 
     70 C         -43.4558  -25.0460    7.1466 C.2       3 UNK         0.4961 
     71 O         -42.6640  -24.1432    7.4208 O.2       3 UNK        -0.5105 
     72 CA        -43.4945  -25.6097    5.7183 C.3       3 UNK         0.0299 
     73 CB        -42.7444  -26.9497    5.6331 C.3       3 UNK        -0.1972 
     74 N         -44.8745  -25.7796    5.2543 N.am      3 UNK        -0.4305 
     75 C         -45.6283  -24.7944    4.7427 C.2       2 UNK         0.5006 
     76 O         -45.2155  -23.6495    4.5536 O.2       2 UNK        -0.5106 
     77 CA        -47.0766  -25.1324    4.3394 C.3       2 UNK         0.0296 
     78 CB        -47.1716  -25.3365    2.8178 C.3       2 UNK        -0.2002 
     79 N         -47.6052  -26.3213    5.0123 N.am      2 UNK        -0.4032 
     80 C         -48.1400  -26.3282    6.2425 C.2       1 UNK         0.5000 
     81 O         -48.2989  -25.3119    6.9207 O.2       1 UNK        -0.5238 
     82 H82       -44.7573  -29.8364    5.5933 H         1 UNK         0.0889 
     83 H83       -46.1957  -30.8292    5.8454 H         1 UNK         0.0889 
     84 H84       -45.0792  -30.5391    7.1806 H         1 UNK         0.0889 
     85 H85       -48.0348  -29.5778    5.9635 H         1 UNK         0.3028 
     86 H86       -49.4828  -27.9466    6.2835 H         1 UNK         0.0864 
     87 H87       -48.0186  -27.2720    8.8757 H         1 UNK         0.0720 
     88 H88       -49.7034  -26.9970    8.5289 H         1 UNK         0.0720 
     89 H89       -51.1048  -30.7329    8.4775 H         1 UNK         0.0814 
     90 H90       -50.9242  -29.4799    7.2859 H         1 UNK         0.0814 
     91 H91       -52.2290  -27.4238    7.4975 H         1 UNK         0.1469 
     92 H92       -54.8411  -26.9467   10.8659 H         1 UNK         0.1381 
     93 H93       -52.0168  -30.1705   10.7831 H         1 UNK         0.1206 
     94 H94       -54.6409  -28.3523   12.7834 H         1 UNK         0.0813 
     95 H95       -53.0808  -29.0905   13.0123 H         1 UNK         0.0813 
     96 H96       -56.4784  -31.0704   10.7407 H         1 UNK         0.0638 
     97 H97       -56.3068  -29.3852   11.1126 H         1 UNK         0.0638 
     98 H98       -58.3815  -30.1126   12.0488 H         1 UNK         0.0568 
     99 H99       -57.9684  -33.2479   14.5129 H         1 UNK         0.3450 
    100 H100      -57.4428  -31.6467   14.9693 H         1 UNK         0.3450 
    101 H101      -56.3368  -29.2804   13.9090 H         1 UNK         0.2987 
    102 H102      -58.6412  -27.3002   15.6743 H         1 UNK         0.0766 
    103 H103      -58.6294  -29.3289   17.1520 H         1 UNK         0.0798 
    104 H104      -57.5332  -28.0905   17.7401 H         1 UNK         0.0798 
    105 H105      -56.8967  -29.5043   16.9015 H         1 UNK         0.0798 
    106 H106      -55.9179  -27.2706   16.0848 H         1 UNK         0.3198 
    107 H107      -54.7393  -25.5952   13.2756 H         1 UNK         0.0843 
    108 H108      -55.6335  -24.1336   15.8110 H         1 UNK         0.0831 
    109 H109      -56.1611  -23.7508   14.1791 H         1 UNK         0.0831 
    110 H110      -54.4752  -23.5482   14.6167 H         1 UNK         0.0831 
    111 H111      -53.0382  -26.1402   14.5064 H         1 UNK         0.3133 
    112 H112      -52.0752  -25.7411   17.3896 H         1 UNK         0.0566 
    113 H113      -52.6512  -28.7302   17.6420 H         1 UNK         0.0814 
    114 H114      -52.9218  -27.4911   18.8529 H         1 UNK         0.0814 
    115 H115      -51.2817  -27.9029   18.3858 H         1 UNK         0.0814 
    116 H116      -50.7029  -26.0731   15.7460 H         1 UNK         0.3091 
    117 H117      -49.1182  -28.6786   14.5682 H         1 UNK         0.0702 
    118 H118      -49.3613  -28.3450   12.1004 H         1 UNK         0.0785 
    119 H119      -50.9718  -27.6811   12.3448 H         1 UNK         0.0785 
    120 H120      -50.6357  -29.3613   12.7477 H         1 UNK         0.0785 
    121 H121      -49.4481  -26.0335   13.3715 H         1 UNK         0.2998 
    122 H122      -47.5759  -24.3401   15.8529 H         1 UNK         0.0697 
    123 H123      -46.8158  -24.9394   12.9426 H         1 UNK         0.0825 
    124 H124      -45.7796  -25.1498   14.3429 H         1 UNK         0.0825 
    125 H125      -46.2894  -23.5371   13.8726 H         1 UNK         0.0825 
    126 H126      -48.8616  -23.5391   13.4056 H         1 UNK         0.3029 
    127 H127      -52.1091  -23.0411   14.7959 H         1 UNK         0.0897 
    128 H128      -49.9927  -20.9980   13.9211 H         1 UNK         0.0792 
    129 H129      -50.8316  -20.9985   15.4661 H         1 UNK         0.0792 
    130 H130      -51.7351  -20.7282   13.9864 H         1 UNK         0.0792 
    131 H131      -51.0666  -22.4662   12.2133 H         1 UNK         0.3086 
    132 H132      -51.6138  -25.6759   10.7481 H         1 UNK         0.0583 
    133 H133      -53.8479  -24.5179   10.7915 H         1 UNK         0.1020 
    134 H134      -53.0778  -22.9952   10.4473 H         1 UNK         0.1020 
    135 H135      -55.1590  -25.5618    8.9247 H         1 UNK         0.0694 
    136 H136      -54.4442  -26.0560    7.4114 H         1 UNK         0.0694 
    137 H137      -50.6406  -23.2881    9.6109 H         1 UNK         0.2989 
    138 H138      -48.3790  -23.3273    8.9024 H         1 UNK         0.1055 
    139 H139      -47.1738  -21.5603   10.2288 H         1 UNK         0.0806 
    140 H140      -47.6219  -22.3509   11.7356 H         1 UNK         0.0806 
    141 H141      -48.8540  -21.6116   10.7190 H         1 UNK         0.0806 
    142 H142      -46.9257  -25.1243   10.5523 H         1 UNK         0.3061 
    143 H143      -43.7613  -24.5167    9.7341 H         1 UNK         0.0734 
    144 H144      -45.7579  -26.8430    9.9678 H         1 UNK         0.0832 
    145 H145      -44.0403  -26.9245   10.3264 H         1 UNK         0.0832 
    146 H146      -45.0797  -25.9180   11.3115 H         1 UNK         0.0832 
    147 H147      -44.9120  -26.3495    7.6955 H         1 UNK         0.3156 
    148 H148      -42.9846  -24.9015    5.0613 H         1 UNK         0.0589 
    149 H149      -43.1820  -27.7073    6.2837 H         1 UNK         0.0808 
    150 H150      -41.7026  -26.8291    5.9332 H         1 UNK         0.0808 
    151 H151      -42.7444  -27.3404    4.6154 H         1 UNK         0.0808 
    152 H152      -45.3065  -26.6728    5.4456 H         1 UNK         0.3098 
    153 H153      -47.6968  -24.2727    4.6031 H         1 UNK         0.0720 
    154 H154      -46.8161  -24.4546    2.2828 H         1 UNK         0.0791 
    155 H155      -48.2013  -25.5092    2.5040 H         1 UNK         0.0791 
    156 H156      -46.5709  -26.1836    2.4840 H         1 UNK         0.0791 
    157 H157      -47.5239  -27.1997    4.5202 H         1 UNK         0.3028 
@<TRIPOS>BOND
     1    1    2 1    
     2    1   82 1    
     3    1   83 1    
     4    1   84 1    
     5    2    3 2    
     6    2    4 am   BACKBONE|DICT|INTERRES
     7    4    5 1    
     8    4   85 1    
     9    5    6 1    
    10    5   80 1    
    11    5   86 1    
    12    6    7 1    
    13    6   87 1    
    14    6   88 1    
    15    7    8 1    
    16    8    9 1    
    17    8   89 1    
    18    8   90 1    
    19    9   10 ar   
    20    9   14 ar   
    21   10   11 ar   
    22   10   91 1    
    23   11   12 ar   
    24   11   58 1    
    25   12   13 ar   
    26   12   92 1    
    27   13   14 ar   
    28   13   15 1    
    29   14   93 1    
    30   15   16 1    
    31   15   94 1    
    32   15   95 1    
    33   16   17 1    
    34   17   18 1    
    35   17   96 1    
    36   17   97 1    
    37   18   19 1    
    38   18   22 1    
    39   18   98 1    
    40   19   20 am   BACKBONE|DICT|INTERRES
    41   19   21 2    
    42   20   99 1    
    43   20  100 1    
    44   22   23 am   BACKBONE|DICT|INTERRES
    45   22  101 1    
    46   23   24 2    
    47   23   25 1    
    48   25   26 1    
    49   25   27 1    
    50   25  102 1    
    51   26  103 1    
    52   26  104 1    
    53   26  105 1    
    54   27   28 am   BACKBONE|DICT|INTERRES
    55   27  106 1    
    56   28   29 2    
    57   28   30 1    
    58   30   31 1    
    59   30   32 1    
    60   30  107 1    
    61   31  108 1    
    62   31  109 1    
    63   31  110 1    
    64   32   33 am   BACKBONE|DICT|INTERRES
    65   32  111 1    
    66   33   34 2    
    67   33   35 1    
    68   35   36 1    
    69   35   37 1    
    70   35  112 1    
    71   36  113 1    
    72   36  114 1    
    73   36  115 1    
    74   37   38 am   BACKBONE|DICT|INTERRES
    75   37  116 1    
    76   38   39 2    
    77   38   40 1    
    78   40   41 1    
    79   40   42 1    
    80   40  117 1    
    81   41  118 1    
    82   41  119 1    
    83   41  120 1    
    84   42   43 am   BACKBONE|DICT|INTERRES
    85   42  121 1    
    86   43   44 2    
    87   43   45 1    
    88   45   46 1    
    89   45   47 1    
    90   45  122 1    
    91   46  123 1    
    92   46  124 1    
    93   46  125 1    
    94   47   48 am   BACKBONE|DICT|INTERRES
    95   47  126 1    
    96   48   49 2    
    97   48   50 1    
    98   50   51 1    
    99   50   52 1    
   100   50  127 1    
   101   51  128 1    
   102   51  129 1    
   103   51  130 1    
   104   52   53 am   BACKBONE|DICT|INTERRES
   105   52  131 1    
   106   53   54 2    
   107   53   55 1    
   108   55   56 1    
   109   55   59 1    
   110   55  132 1    
   111   56   57 1    
   112   56  133 1    
   113   56  134 1    
   114   57   58 1    
   115   58  135 1    
   116   58  136 1    
   117   59   60 am   BACKBONE|DICT|INTERRES
   118   59  137 1    
   119   60   61 2    
   120   60   62 1    
   121   62   63 1    
   122   62   64 1    
   123   62  138 1    
   124   63  139 1    
   125   63  140 1    
   126   63  141 1    
   127   64   65 am   BACKBONE|DICT|INTERRES
   128   64  142 1    
   129   65   66 2    
   130   65   67 1    
   131   67   68 1    
   132   67   69 1    
   133   67  143 1    
   134   68  144 1    
   135   68  145 1    
   136   68  146 1    
   137   69   70 am   BACKBONE|DICT|INTERRES
   138   69  147 1    
   139   70   71 2    
   140   70   72 1    
   141   72   73 1    
   142   72   74 1    
   143   72  148 1    
   144   73  149 1    
   145   73  150 1    
   146   73  151 1    
   147   74   75 am   BACKBONE|DICT|INTERRES
   148   74  152 1    
   149   75   76 2    
   150   75   77 1    
   151   77   78 1    
   152   77   79 1    
   153   77  153 1    
   154   78  154 1    
   155   78  155 1    
   156   78  156 1    
   157   79   80 am   BACKBONE|DICT|INTERRES
   158   79  157 1    
   159   80   81 2    
@<TRIPOS>SUBSTRUCTURE
     1 UNK         1 GROUP             0       ****    0 ROOT    
