@<TRIPOS>MOLECULE
3R207
157   159    1
SMALL
USER_CHARGES


@<TRIPOS>ATOM
      1 CA        -50.0093  -24.3010    3.2942 C.3       0 UNK        -0.1975 
      2 C         -49.8415  -25.6591    3.9585 C.2       0 UNK         0.4852 
      3 O         -49.3425  -26.5913    3.3255 O.2       0 UNK        -0.5216 
      4 N         -50.2529  -25.7771    5.2290 N.am      1 UNK        -0.4461 
      5 CA        -50.1913  -26.9745    6.0772 C.3       1 UNK         0.0864 
      6 C6        -50.9320  -28.2013    5.4690 C.3       14 UNK        -0.0898 
      7 S7        -51.6653  -29.2820    6.7403 S.3       14 UNK        -0.2598 
      8 C8        -53.4269  -28.8255    6.6309 C.3       14 UNK         0.0286 
      9 C9        -53.7095  -27.4956    7.3156 C.ar      14 UNK        -0.0844 
     10 C10       -53.5438  -26.2900    6.6279 C.ar      14 UNK        -0.0881 
     11 C11       -53.7805  -25.0685    7.2642 C.ar      14 UNK        -0.0643 
     12 C12       -54.2271  -25.0590    8.5898 C.ar      14 UNK        -0.0930 
     13 C13       -54.4023  -26.2591    9.2866 C.ar      14 UNK        -0.0827 
     14 C14       -54.1423  -27.4725    8.6432 C.ar      14 UNK        -0.1249 
     15 C15       -54.8819  -26.2517   10.7315 C.3       14 UNK         0.0141 
     16 S16       -53.6249  -25.6285   11.8941 S.3       14 UNK        -0.2313 
     17 C17       -52.1951  -26.7260   11.5975 C.3       14 UNK        -0.0915 
     18 CA        -52.4389  -28.2232   11.9189 C.3       13 UNK         0.0968 
     19 C         -51.1725  -29.0835   11.6325 C.2       13 UNK         0.5732 
     20 N         -50.6874  -29.9057   12.5571 N.am      13 UNK        -0.7310 
     21 O         -50.6205  -29.0170   10.5383 O.2       13 UNK        -0.5035 
     22 N         -52.9936  -28.4131   13.2664 N.am      13 UNK        -0.4233 
     23 C         -53.8542  -29.3853   13.5945 C.2       13 UNK         0.4989 
     24 O         -54.3364  -30.1734   12.7784 O.2       13 UNK        -0.4996 
     25 CA        -54.2357  -29.5012   15.0843 C.3       12 UNK         0.0216 
     26 CB        -54.8416  -30.8748   15.4440 C.3       12 UNK        -0.1964 
     27 N         -53.1327  -29.1728   15.9956 N.am      12 UNK        -0.4276 
     28 C         -51.9192  -29.7481   16.0487 C.2       12 UNK         0.5020 
     29 O         -51.5756  -30.6751   15.3136 O.2       12 UNK        -0.5489 
     30 CA        -50.8966  -29.1755   17.0495 C.3       11 UNK         0.0294 
     31 CB        -49.5350  -28.9468   16.3674 C.3       11 UNK        -0.2019 
     32 N         -51.3542  -27.9083   17.6231 N.am      11 UNK        -0.4493 
     33 C         -51.9177  -27.7616   18.8308 C.2       11 UNK         0.4932 
     34 O         -52.0367  -28.6761   19.6460 O.2       11 UNK        -0.5029 
     35 CA        -52.4676  -26.3655   19.1879 C.3       10 UNK         0.0280 
     36 CB        -51.4613  -25.6031   20.0650 C.3       10 UNK        -0.1976 
     37 N         -52.8055  -25.5454   18.0195 N.am      10 UNK        -0.4242 
     38 C         -53.7650  -25.8288   17.1255 C.2       10 UNK         0.5072 
     39 O         -54.5206  -26.7958   17.2184 O.2       10 UNK        -0.5224 
     40 CA        -53.8378  -24.9306   15.8776 C.3       9 UNK         0.0343 
     41 CB        -54.7854  -23.7445   16.1117 C.3       9 UNK        -0.2003 
     42 N         -52.5262  -24.4324   15.4507 N.am      9 UNK        -0.4272 
     43 C         -51.4989  -25.1980   15.0601 C.2       9 UNK         0.4988 
     44 O         -51.5579  -26.4290   15.0046 O.2       9 UNK        -0.5108 
     45 CA        -50.1880  -24.4647   14.7182 C.3       8 UNK         0.0248 
     46 CB        -49.0747  -25.4232   14.2546 C.3       8 UNK        -0.2001 
     47 N         -50.3754  -23.4109   13.7148 N.am      8 UNK        -0.4140 
     48 C         -50.8514  -22.1812   13.9705 C.2       8 UNK         0.5028 
     49 O         -51.2694  -21.8437   15.0798 O.2       8 UNK        -0.5428 
     50 CA        -50.8588  -21.1410   12.8332 C.3       7 UNK         0.0264 
     51 CB        -49.7217  -20.1256   13.0350 C.3       7 UNK        -0.1988 
     52 N         -50.7291  -21.7342   11.5027 N.am      7 UNK        -0.4454 
     53 C         -51.7321  -22.3074   10.8230 C.2       7 UNK         0.5027 
     54 O         -52.9037  -22.2785   11.2001 O.2       7 UNK        -0.5083 
     55 CA        -51.3818  -23.0341    9.5012 C.3       6 UNK         0.0844 
     56 C56       -51.9542  -22.2507    8.2949 C.3       14 UNK        -0.0967 
     57 S57       -51.8360  -23.1713    6.7235 S.3       14 UNK        -0.2604 
     58 C58       -53.5461  -23.7679    6.5109 C.3       14 UNK         0.0134 
     59 N         -49.9505  -23.3441    9.3379 N.am      6 UNK        -0.4116 
     60 C         -49.2562  -24.1503   10.1511 C.2       5 UNK         0.5034 
     61 O         -49.7312  -24.6574   11.1689 O.2       5 UNK        -0.5045 
     62 CA        -47.7771  -24.3854    9.8336 C.3       5 UNK         0.0224 
     63 CB        -46.9052  -23.2369   10.3726 C.3       5 UNK        -0.1978 
     64 N         -47.4149  -25.6398   10.4805 N.am      5 UNK        -0.4737 
     65 C         -46.4154  -26.4544   10.1423 C.2       4 UNK         0.5027 
     66 O         -45.5427  -26.1691    9.3213 O.2       4 UNK        -0.5211 
     67 CA        -46.4221  -27.8489   10.7812 C.3       4 UNK         0.0297 
     68 CB        -47.2985  -27.9789   12.0472 C.3       4 UNK        -0.1993 
     69 N         -46.8870  -28.7631    9.7468 N.am      4 UNK        -0.4486 
     70 C         -46.5564  -30.0545    9.6318 C.2       3 UNK         0.4961 
     71 O         -45.9008  -30.6736   10.4709 O.2       3 UNK        -0.5105 
     72 CA        -47.0055  -30.7775    8.3444 C.3       3 UNK         0.0299 
     73 CB        -48.3451  -31.4959    8.5731 C.3       3 UNK        -0.1972 
     74 N         -47.1359  -29.8749    7.1962 N.am      3 UNK        -0.4305 
     75 C         -46.1340  -29.1674    6.6523 C.2       2 UNK         0.5006 
     76 O         -44.9485  -29.3483    6.9342 O.2       2 UNK        -0.5106 
     77 CA        -46.4947  -28.0540    5.6456 C.3       2 UNK         0.0296 
     78 CB        -45.9595  -28.3978    4.2450 C.3       2 UNK        -0.2002 
     79 N         -47.9193  -27.7164    5.5304 N.am      2 UNK        -0.4032 
     80 C         -48.7475  -27.3067    6.5022 C.2       1 UNK         0.5000 
     81 O         -48.4172  -27.1935    7.6824 O.2       1 UNK        -0.5238 
     82 H82       -50.6403  -24.3923    2.4103 H         1 UNK         0.0889 
     83 H83       -49.0395  -23.9140    2.9825 H         1 UNK         0.0889 
     84 H84       -50.4667  -23.5718    3.9626 H         1 UNK         0.0889 
     85 H85       -50.6361  -24.9598    5.6886 H         1 UNK         0.3028 
     86 H86       -50.7153  -26.6836    6.9900 H         1 UNK         0.0864 
     87 H87       -50.2789  -28.8050    4.8368 H         1 UNK         0.0720 
     88 H88       -51.7262  -27.8700    4.7998 H         1 UNK         0.0720 
     89 H89       -53.7452  -28.7940    5.5879 H         1 UNK         0.0814 
     90 H90       -54.0179  -29.6147    7.0982 H         1 UNK         0.0814 
     91 H91       -53.2128  -26.2979    5.5992 H         1 UNK         0.1469 
     92 H92       -54.4190  -24.1189    9.0889 H         1 UNK         0.1381 
     93 H93       -54.2776  -28.4045    9.1740 H         1 UNK         0.1206 
     94 H94       -55.1934  -27.2493   11.0444 H         1 UNK         0.0813 
     95 H95       -55.7694  -25.6223   10.8094 H         1 UNK         0.0813 
     96 H96       -51.8759  -26.5980   10.5614 H         1 UNK         0.0638 
     97 H97       -51.3760  -26.3536   12.2105 H         1 UNK         0.0638 
     98 H98       -53.1755  -28.5799   11.2003 H         1 UNK         0.0568 
     99 H99       -51.1376  -30.0207   13.4585 H         1 UNK         0.3450 
    100 H100      -49.8726  -30.4530   12.3359 H         1 UNK         0.3450 
    101 H101      -52.6119  -27.8074   13.9860 H         1 UNK         0.2987 
    102 H102      -55.0053  -28.7468   15.2543 H         1 UNK         0.0766 
    103 H103      -55.1224  -30.9206   16.4961 H         1 UNK         0.0798 
    104 H104      -55.7425  -31.0717   14.8613 H         1 UNK         0.0798 
    105 H105      -54.1423  -31.6883   15.2474 H         1 UNK         0.0798 
    106 H106      -53.3230  -28.4011   16.6258 H         1 UNK         0.3198 
    107 H107      -50.7622  -29.9196   17.8374 H         1 UNK         0.0843 
    108 H108      -49.1001  -29.8913   16.0376 H         1 UNK         0.0831 
    109 H109      -48.8198  -28.4822   17.0463 H         1 UNK         0.0831 
    110 H110      -49.6284  -28.3115   15.4861 H         1 UNK         0.0831 
    111 H111      -51.3347  -27.1175   16.9893 H         1 UNK         0.3133 
    112 H112      -53.3827  -26.5126   19.7656 H         1 UNK         0.0566 
    113 H113      -50.5279  -25.4089   19.5347 H         1 UNK         0.0814 
    114 H114      -51.2133  -26.1744   20.9609 H         1 UNK         0.0814 
    115 H115      -51.8666  -24.6467   20.3964 H         1 UNK         0.0814 
    116 H116      -52.2362  -24.7271   17.8587 H         1 UNK         0.3091 
    117 H117      -54.2401  -25.5354   15.0618 H         1 UNK         0.0702 
    118 H118      -55.7761  -24.0894   16.4114 H         1 UNK         0.0785 
    119 H119      -54.9102  -23.1541   15.2034 H         1 UNK         0.0785 
    120 H120      -54.4180  -23.0812   16.8959 H         1 UNK         0.0785 
    121 H121      -52.3780  -23.4271   15.4615 H         1 UNK         0.2998 
    122 H122      -49.8402  -23.9968   15.6415 H         1 UNK         0.0697 
    123 H123      -49.3866  -26.0295   13.4050 H         1 UNK         0.0825 
    124 H124      -48.7956  -26.1080   15.0554 H         1 UNK         0.0825 
    125 H125      -48.1739  -24.8810   13.9667 H         1 UNK         0.0825 
    126 H126      -50.1341  -23.6648   12.7607 H         1 UNK         0.3029 
    127 H127      -51.8085  -20.6042   12.8899 H         1 UNK         0.0897 
    128 H128      -49.7500  -19.3417   12.2779 H         1 UNK         0.0792 
    129 H129      -49.8031  -19.6366   14.0070 H         1 UNK         0.0792 
    130 H130      -48.7410  -20.6014   12.9913 H         1 UNK         0.0792 
    131 H131      -49.7993  -21.7817   11.1135 H         1 UNK         0.3086 
    132 H132      -51.8947  -23.9957    9.5527 H         1 UNK         0.0583 
    133 H133      -52.9983  -21.9821    8.4677 H         1 UNK         0.1020 
    134 H134      -51.4257  -21.3032    8.1744 H         1 UNK         0.1020 
    135 H135      -54.2613  -23.0063    6.8246 H         1 UNK         0.0694 
    136 H136      -53.7269  -23.9236    5.4461 H         1 UNK         0.0694 
    137 H137      -49.4997  -22.9474    8.5263 H         1 UNK         0.2989 
    138 H138      -47.6540  -24.4874    8.7529 H         1 UNK         0.1055 
    139 H139      -45.8487  -23.4130   10.1699 H         1 UNK         0.0806 
    140 H140      -47.0213  -23.1150   11.4505 H         1 UNK         0.0806 
    141 H141      -47.1683  -22.2883    9.9033 H         1 UNK         0.0806 
    142 H142      -48.1202  -25.9642   11.1320 H         1 UNK         0.3061 
    143 H143      -45.3889  -28.0883   11.0417 H         1 UNK         0.0734 
    144 H144      -47.0048  -27.2526   12.8060 H         1 UNK         0.0832 
    145 H145      -48.3572  -27.8321   11.8311 H         1 UNK         0.0832 
    146 H146      -47.1938  -28.9674   12.4949 H         1 UNK         0.0832 
    147 H147      -47.4147  -28.3229    8.9952 H         1 UNK         0.3156 
    148 H148      -46.2483  -31.5251    8.0998 H         1 UNK         0.0589 
    149 H149      -49.1460  -30.7914    8.8050 H         1 UNK         0.0808 
    150 H150      -48.6453  -32.0694    7.6959 H         1 UNK         0.0808 
    151 H151      -48.2752  -32.1944    9.4081 H         1 UNK         0.0808 
    152 H152      -48.0763  -29.6609    6.8992 H         1 UNK         0.3098 
    153 H153      -45.9862  -27.1520    5.9925 H         1 UNK         0.0720 
    154 H154      -46.1078  -27.5717    3.5489 H         1 UNK         0.0791 
    155 H155      -44.8889  -28.6061    4.2718 H         1 UNK         0.0791 
    156 H156      -46.4532  -29.2784    3.8317 H         1 UNK         0.0791 
    157 H157      -48.2967  -27.6860    4.5872 H         1 UNK         0.3028 
@<TRIPOS>BOND
     1    1    2 1    
     2    1   82 1    
     3    1   83 1    
     4    1   84 1    
     5    2    3 2    
     6    2    4 am   BACKBONE|DICT|INTERRES
     7    4    5 1    
     8    4   85 1    
     9    5    6 1    
    10    5   80 1    
    11    5   86 1    
    12    6    7 1    
    13    6   87 1    
    14    6   88 1    
    15    7    8 1    
    16    8    9 1    
    17    8   89 1    
    18    8   90 1    
    19    9   10 ar   
    20    9   14 ar   
    21   10   11 ar   
    22   10   91 1    
    23   11   12 ar   
    24   11   58 1    
    25   12   13 ar   
    26   12   92 1    
    27   13   14 ar   
    28   13   15 1    
    29   14   93 1    
    30   15   16 1    
    31   15   94 1    
    32   15   95 1    
    33   16   17 1    
    34   17   18 1    
    35   17   96 1    
    36   17   97 1    
    37   18   19 1    
    38   18   22 1    
    39   18   98 1    
    40   19   20 am   BACKBONE|DICT|INTERRES
    41   19   21 2    
    42   20   99 1    
    43   20  100 1    
    44   22   23 am   BACKBONE|DICT|INTERRES
    45   22  101 1    
    46   23   24 2    
    47   23   25 1    
    48   25   26 1    
    49   25   27 1    
    50   25  102 1    
    51   26  103 1    
    52   26  104 1    
    53   26  105 1    
    54   27   28 am   BACKBONE|DICT|INTERRES
    55   27  106 1    
    56   28   29 2    
    57   28   30 1    
    58   30   31 1    
    59   30   32 1    
    60   30  107 1    
    61   31  108 1    
    62   31  109 1    
    63   31  110 1    
    64   32   33 am   BACKBONE|DICT|INTERRES
    65   32  111 1    
    66   33   34 2    
    67   33   35 1    
    68   35   36 1    
    69   35   37 1    
    70   35  112 1    
    71   36  113 1    
    72   36  114 1    
    73   36  115 1    
    74   37   38 am   BACKBONE|DICT|INTERRES
    75   37  116 1    
    76   38   39 2    
    77   38   40 1    
    78   40   41 1    
    79   40   42 1    
    80   40  117 1    
    81   41  118 1    
    82   41  119 1    
    83   41  120 1    
    84   42   43 am   BACKBONE|DICT|INTERRES
    85   42  121 1    
    86   43   44 2    
    87   43   45 1    
    88   45   46 1    
    89   45   47 1    
    90   45  122 1    
    91   46  123 1    
    92   46  124 1    
    93   46  125 1    
    94   47   48 am   BACKBONE|DICT|INTERRES
    95   47  126 1    
    96   48   49 2    
    97   48   50 1    
    98   50   51 1    
    99   50   52 1    
   100   50  127 1    
   101   51  128 1    
   102   51  129 1    
   103   51  130 1    
   104   52   53 am   BACKBONE|DICT|INTERRES
   105   52  131 1    
   106   53   54 2    
   107   53   55 1    
   108   55   56 1    
   109   55   59 1    
   110   55  132 1    
   111   56   57 1    
   112   56  133 1    
   113   56  134 1    
   114   57   58 1    
   115   58  135 1    
   116   58  136 1    
   117   59   60 am   BACKBONE|DICT|INTERRES
   118   59  137 1    
   119   60   61 2    
   120   60   62 1    
   121   62   63 1    
   122   62   64 1    
   123   62  138 1    
   124   63  139 1    
   125   63  140 1    
   126   63  141 1    
   127   64   65 am   BACKBONE|DICT|INTERRES
   128   64  142 1    
   129   65   66 2    
   130   65   67 1    
   131   67   68 1    
   132   67   69 1    
   133   67  143 1    
   134   68  144 1    
   135   68  145 1    
   136   68  146 1    
   137   69   70 am   BACKBONE|DICT|INTERRES
   138   69  147 1    
   139   70   71 2    
   140   70   72 1    
   141   72   73 1    
   142   72   74 1    
   143   72  148 1    
   144   73  149 1    
   145   73  150 1    
   146   73  151 1    
   147   74   75 am   BACKBONE|DICT|INTERRES
   148   74  152 1    
   149   75   76 2    
   150   75   77 1    
   151   77   78 1    
   152   77   79 1    
   153   77  153 1    
   154   78  154 1    
   155   78  155 1    
   156   78  156 1    
   157   79   80 am   BACKBONE|DICT|INTERRES
   158   79  157 1    
   159   80   81 2    
@<TRIPOS>SUBSTRUCTURE
     1 UNK         1 GROUP             0       ****    0 ROOT    
