@<TRIPOS>MOLECULE
3R207
157   159    1
SMALL
USER_CHARGES


@<TRIPOS>ATOM
      1 CA        -45.1429  -27.9661    4.1055 C.3       0 UNK        -0.1975 
      2 C         -46.5619  -28.1950    3.6074 C.2       0 UNK         0.4852 
      3 O         -46.7518  -28.6051    2.4622 O.2       0 UNK        -0.5216 
      4 N         -47.5583  -27.9098    4.4528 N.am      1 UNK        -0.4461 
      5 CA        -48.9917  -28.0724    4.1747 C.3       1 UNK         0.0864 
      6 C6        -49.7384  -28.6947    5.3861 C.3       14 UNK        -0.0898 
      7 S7        -49.0321  -30.2789    5.9595 S.3       14 UNK        -0.2598 
      8 C8        -50.5299  -31.2343    6.3653 C.3       14 UNK         0.0286 
      9 C9        -51.2066  -30.7378    7.6375 C.ar      14 UNK        -0.0844 
     10 C10       -50.8856  -31.3033    8.8777 C.ar      14 UNK        -0.0881 
     11 C11       -51.5373  -30.8813   10.0422 C.ar      14 UNK        -0.0643 
     12 C12       -52.5018  -29.8730    9.9577 C.ar      14 UNK        -0.0930 
     13 C13       -52.8152  -29.2843    8.7301 C.ar      14 UNK        -0.0827 
     14 C14       -52.1758  -29.7313    7.5718 C.ar      14 UNK        -0.1249 
     15 C15       -53.8251  -28.1490    8.6679 C.3       14 UNK         0.0141 
     16 S16       -55.4960  -28.7136    9.1142 S.3       14 UNK        -0.2313 
     17 C17       -56.3539  -27.1184    9.3472 C.3       14 UNK        -0.0915 
     18 CA        -55.9732  -26.3932   10.6692 C.3       13 UNK         0.0968 
     19 C         -56.7508  -25.0560   10.8345 C.2       13 UNK         0.5732 
     20 N         -57.4589  -24.8272   11.9342 N.am      13 UNK        -0.7310 
     21 O         -56.7007  -24.2024    9.9521 O.2       13 UNK        -0.5035 
     22 N         -56.0551  -27.2911   11.8343 N.am      13 UNK        -0.4233 
     23 C         -55.2129  -27.2558   12.8712 C.2       13 UNK         0.4989 
     24 O         -54.2977  -26.4380   12.9902 O.2       13 UNK        -0.4996 
     25 CA        -55.4113  -28.3317   13.9450 C.3       12 UNK         0.0216 
     26 CB        -55.0887  -29.7383   13.3993 C.3       12 UNK        -0.1964 
     27 N         -54.5426  -28.0137   15.0738 N.am      12 UNK        -0.4276 
     28 C         -54.6554  -28.4830   16.3209 C.2       12 UNK         0.5020 
     29 O         -55.5190  -29.2858   16.6773 O.2       12 UNK        -0.5489 
     30 CA        -53.6346  -27.9714   17.3493 C.3       11 UNK         0.0294 
     31 CB        -52.4297  -28.9236   17.4269 C.3       11 UNK        -0.2019 
     32 N         -53.1554  -26.6276   17.0274 N.am      11 UNK        -0.4493 
     33 C         -53.7661  -25.4866   17.3709 C.2       11 UNK         0.4932 
     34 O         -54.8128  -25.4407   18.0195 O.2       11 UNK        -0.5029 
     35 CA        -53.0797  -24.1840   16.9091 C.3       10 UNK         0.0280 
     36 CB        -53.5789  -22.9333   17.6626 C.3       10 UNK        -0.1976 
     37 N         -51.6141  -24.2726   16.9452 N.am      10 UNK        -0.4242 
     38 C         -50.8314  -24.5017   18.0122 C.2       10 UNK         0.5072 
     39 O         -51.2485  -24.5746   19.1689 O.2       10 UNK        -0.5224 
     40 CA        -49.3289  -24.7289   17.7546 C.3       9 UNK         0.0343 
     41 CB        -48.9793  -26.2109   17.9724 C.3       9 UNK        -0.2003 
     42 N         -48.8972  -24.3384   16.4100 N.am      9 UNK        -0.4272 
     43 C         -48.6934  -23.0769   16.0052 C.2       9 UNK         0.4988 
     44 O         -48.7743  -22.0969   16.7461 O.2       9 UNK        -0.5108 
     45 CA        -48.3862  -22.8728   14.5098 C.3       8 UNK         0.0248 
     46 CB        -46.8980  -23.1219   14.2201 C.3       8 UNK        -0.2001 
     47 N         -49.2122  -23.7161   13.6377 N.am      8 UNK        -0.4140 
     48 C         -50.5501  -23.6418   13.5593 C.2       8 UNK         0.5028 
     49 O         -51.2297  -22.8268   14.1819 O.2       8 UNK        -0.5428 
     50 CA        -51.2592  -24.6801   12.6821 C.3       7 UNK         0.0264 
     51 CB        -51.2999  -24.2322   11.2122 C.3       7 UNK        -0.1988 
     52 N         -50.6286  -25.9942   12.7783 N.am      7 UNK        -0.4454 
     53 C         -50.7722  -26.8362   13.8127 C.2       7 UNK         0.5027 
     54 O         -51.4481  -26.5964   14.8135 O.2       7 UNK        -0.5083 
     55 CA        -50.0180  -28.1764   13.7015 C.3       6 UNK         0.0844 
     56 C56       -50.7859  -29.0973   12.7210 C.3       14 UNK        -0.0967 
     57 S57       -49.9328  -30.6582   12.3191 S.3       14 UNK        -0.2604 
     58 C58       -51.2300  -31.5353   11.3852 C.3       14 UNK         0.0134 
     59 N         -48.6246  -27.9893   13.2948 N.am      6 UNK        -0.4116 
     60 C         -47.7104  -27.2048   13.8824 C.2       5 UNK         0.5034 
     61 O         -47.8996  -26.5746   14.9210 O.2       5 UNK        -0.5045 
     62 CA        -46.3776  -27.0414   13.1311 C.3       5 UNK         0.0224 
     63 CB        -45.3601  -28.0907   13.6048 C.3       5 UNK        -0.1978 
     64 N         -46.5292  -27.1240   11.6726 N.am      5 UNK        -0.4737 
     65 C         -47.3004  -26.3110   10.9381 C.2       4 UNK         0.5027 
     66 O         -47.9416  -25.3609   11.3983 O.2       4 UNK        -0.5211 
     67 CA        -47.4452  -26.6801    9.4626 C.3       4 UNK         0.0297 
     68 CB        -48.4887  -27.8020    9.2848 C.3       4 UNK        -0.1993 
     69 N         -47.8482  -25.4935    8.7155 N.am      4 UNK        -0.4486 
     70 C         -47.6583  -25.3270    7.4057 C.2       3 UNK         0.4961 
     71 O         -47.1292  -26.1762    6.6788 O.2       3 UNK        -0.5105 
     72 CA        -48.1322  -23.9994    6.7959 C.3       3 UNK         0.0299 
     73 CB        -47.1511  -22.8542    7.0978 C.3       3 UNK        -0.1972 
     74 N         -48.2121  -24.2188    5.3600 N.am      3 UNK        -0.4305 
     75 C         -49.0864  -23.6964    4.4943 C.2       2 UNK         0.5006 
     76 O         -49.8513  -22.7676    4.7550 O.2       2 UNK        -0.5106 
     77 CA        -49.1357  -24.3724    3.1080 C.3       2 UNK         0.0296 
     78 CB        -48.1589  -23.6917    2.1356 C.3       2 UNK        -0.2002 
     79 N         -48.8213  -25.8052    3.1982 N.am      2 UNK        -0.4032 
     80 C         -49.6221  -26.7159    3.7765 C.2       1 UNK         0.5000 
     81 O         -50.8017  -26.4850    4.0515 O.2       1 UNK        -0.5238 
     82 H82       -45.1279  -27.5804    5.1252 H         1 UNK         0.0889 
     83 H83       -44.6292  -27.2502    3.4644 H         1 UNK         0.0889 
     84 H84       -44.5848  -28.9018    4.0891 H         1 UNK         0.0889 
     85 H85       -47.3393  -27.5213    5.3683 H         1 UNK         0.3028 
     86 H86       -49.1292  -28.7413    3.3226 H         1 UNK         0.0864 
     87 H87       -49.7506  -28.0037    6.2308 H         1 UNK         0.0720 
     88 H88       -50.7808  -28.8633    5.1145 H         1 UNK         0.0720 
     89 H89       -50.2515  -32.2827    6.4825 H         1 UNK         0.0814 
     90 H90       -51.2269  -31.2035    5.5264 H         1 UNK         0.0814 
     91 H91       -50.1391  -32.0837    8.9349 H         1 UNK         0.1469 
     92 H92       -53.0148  -29.5408   10.8491 H         1 UNK         0.1381 
     93 H93       -52.4318  -29.2908    6.6188 H         1 UNK         0.1206 
     94 H94       -53.8525  -27.7013    7.6732 H         1 UNK         0.0813 
     95 H95       -53.4985  -27.3653    9.3513 H         1 UNK         0.0813 
     96 H96       -56.1422  -26.4842    8.4843 H         1 UNK         0.0638 
     97 H97       -57.4269  -27.3162    9.3229 H         1 UNK         0.0638 
     98 H98       -54.9335  -26.0810   10.5639 H         1 UNK         0.0568 
     99 H99       -57.9530  -23.9541   12.0292 H         1 UNK         0.3450 
    100 H100      -57.5027  -25.5151   12.6680 H         1 UNK         0.3450 
    101 H101      -56.7841  -27.9885   11.8049 H         1 UNK         0.2987 
    102 H102      -56.4509  -28.2936   14.2769 H         1 UNK         0.0766 
    103 H103      -55.2505  -30.5062   14.1558 H         1 UNK         0.0798 
    104 H104      -54.0546  -29.8144   13.0667 H         1 UNK         0.0798 
    105 H105      -55.7229  -29.9923   12.5491 H         1 UNK         0.0798 
    106 H106      -53.8358  -27.3162   14.8634 H         1 UNK         0.3198 
    107 H107      -54.1217  -27.9535   18.3268 H         1 UNK         0.0843 
    108 H108      -51.9030  -28.9887   16.4741 H         1 UNK         0.0831 
    109 H109      -52.7473  -29.9325   17.6939 H         1 UNK         0.0831 
    110 H110      -51.7154  -28.5976   18.1832 H         1 UNK         0.0831 
    111 H111      -52.3443  -26.5676   16.4138 H         1 UNK         0.3133 
    112 H112      -53.3449  -24.0618   15.8578 H         1 UNK         0.0566 
    113 H113      -53.0839  -22.0314   17.3023 H         1 UNK         0.0814 
    114 H114      -54.6509  -22.7928   17.5192 H         1 UNK         0.0814 
    115 H115      -53.4023  -23.0082   18.7359 H         1 UNK         0.0814 
    116 H116      -51.1622  -24.2136   16.0421 H         1 UNK         0.3091 
    117 H117      -48.7759  -24.1343   18.4847 H         1 UNK         0.0702 
    118 H118      -47.9111  -26.3891   17.8468 H         1 UNK         0.0785 
    119 H119      -49.5103  -26.8559   17.2704 H         1 UNK         0.0785 
    120 H120      -49.2458  -26.5346   18.9794 H         1 UNK         0.0785 
    121 H121      -48.7273  -25.0975   15.7538 H         1 UNK         0.2998 
    122 H122      -48.6102  -21.8329   14.2628 H         1 UNK         0.0697 
    123 H123      -46.5910  -24.1227   14.5220 H         1 UNK         0.0825 
    124 H124      -46.2741  -22.4148   14.7682 H         1 UNK         0.0825 
    125 H125      -46.6703  -23.0034   13.1604 H         1 UNK         0.0825 
    126 H126      -48.7308  -24.3905   13.0515 H         1 UNK         0.3029 
    127 H127      -52.2878  -24.7631   13.0390 H         1 UNK         0.0897 
    128 H128      -50.3004  -24.1285   10.7892 H         1 UNK         0.0792 
    129 H129      -51.7968  -23.2660   11.1152 H         1 UNK         0.0792 
    130 H130      -51.8538  -24.9430   10.5984 H         1 UNK         0.0792 
    131 H131      -49.9884  -26.2380   12.0354 H         1 UNK         0.3086 
    132 H132      -50.0078  -28.6421   14.6888 H         1 UNK         0.0583 
    133 H133      -51.7674  -29.3358   13.1332 H         1 UNK         0.1020 
    134 H134      -50.9624  -28.5777   11.7777 H         1 UNK         0.1020 
    135 H135      -50.9074  -32.5656   11.2274 H         1 UNK         0.0694 
    136 H136      -52.1360  -31.5946   11.9905 H         1 UNK         0.0694 
    137 H137      -48.3468  -28.4897   12.4639 H         1 UNK         0.2989 
    138 H138      -45.9849  -26.0511   13.3667 H         1 UNK         0.1055 
    139 H139      -45.2162  -28.0333   14.6849 H         1 UNK         0.0806 
    140 H140      -44.3850  -27.9357   13.1425 H         1 UNK         0.0806 
    141 H141      -45.6853  -29.1058   13.3732 H         1 UNK         0.0806 
    142 H142      -46.0403  -27.8779   11.2098 H         1 UNK         0.3061 
    143 H143      -46.4730  -27.0219    9.1002 H         1 UNK         0.0734 
    144 H144      -48.5353  -28.1367    8.2495 H         1 UNK         0.0832 
    145 H145      -48.2426  -28.6786    9.8853 H         1 UNK         0.0832 
    146 H146      -49.4889  -27.4777    9.5744 H         1 UNK         0.0832 
    147 H147      -48.2333  -24.7497    9.2851 H         1 UNK         0.3156 
    148 H148      -49.1227  -23.7628    7.1903 H         1 UNK         0.0589 
    149 H149      -47.0801  -22.6694    8.1703 H         1 UNK         0.0808 
    150 H150      -46.1467  -23.0787    6.7363 H         1 UNK         0.0808 
    151 H151      -47.4742  -21.9240    6.6299 H         1 UNK         0.0808 
    152 H152      -47.6507  -25.0069    5.0636 H         1 UNK         0.3098 
    153 H153      -50.1485  -24.2615    2.7147 H         1 UNK         0.0720 
    154 H154      -48.2220  -24.1295    1.1392 H         1 UNK         0.0791 
    155 H155      -47.1252  -23.7729    2.4741 H         1 UNK         0.0791 
    156 H156      -48.3868  -22.6294    2.0365 H         1 UNK         0.0791 
    157 H157      -47.8825  -26.0874    2.9558 H         1 UNK         0.3028 
@<TRIPOS>BOND
     1    1    2 1    
     2    1   82 1    
     3    1   83 1    
     4    1   84 1    
     5    2    3 2    
     6    2    4 am   BACKBONE|DICT|INTERRES
     7    4    5 1    
     8    4   85 1    
     9    5    6 1    
    10    5   80 1    
    11    5   86 1    
    12    6    7 1    
    13    6   87 1    
    14    6   88 1    
    15    7    8 1    
    16    8    9 1    
    17    8   89 1    
    18    8   90 1    
    19    9   10 ar   
    20    9   14 ar   
    21   10   11 ar   
    22   10   91 1    
    23   11   12 ar   
    24   11   58 1    
    25   12   13 ar   
    26   12   92 1    
    27   13   14 ar   
    28   13   15 1    
    29   14   93 1    
    30   15   16 1    
    31   15   94 1    
    32   15   95 1    
    33   16   17 1    
    34   17   18 1    
    35   17   96 1    
    36   17   97 1    
    37   18   19 1    
    38   18   22 1    
    39   18   98 1    
    40   19   20 am   BACKBONE|DICT|INTERRES
    41   19   21 2    
    42   20   99 1    
    43   20  100 1    
    44   22   23 am   BACKBONE|DICT|INTERRES
    45   22  101 1    
    46   23   24 2    
    47   23   25 1    
    48   25   26 1    
    49   25   27 1    
    50   25  102 1    
    51   26  103 1    
    52   26  104 1    
    53   26  105 1    
    54   27   28 am   BACKBONE|DICT|INTERRES
    55   27  106 1    
    56   28   29 2    
    57   28   30 1    
    58   30   31 1    
    59   30   32 1    
    60   30  107 1    
    61   31  108 1    
    62   31  109 1    
    63   31  110 1    
    64   32   33 am   BACKBONE|DICT|INTERRES
    65   32  111 1    
    66   33   34 2    
    67   33   35 1    
    68   35   36 1    
    69   35   37 1    
    70   35  112 1    
    71   36  113 1    
    72   36  114 1    
    73   36  115 1    
    74   37   38 am   BACKBONE|DICT|INTERRES
    75   37  116 1    
    76   38   39 2    
    77   38   40 1    
    78   40   41 1    
    79   40   42 1    
    80   40  117 1    
    81   41  118 1    
    82   41  119 1    
    83   41  120 1    
    84   42   43 am   BACKBONE|DICT|INTERRES
    85   42  121 1    
    86   43   44 2    
    87   43   45 1    
    88   45   46 1    
    89   45   47 1    
    90   45  122 1    
    91   46  123 1    
    92   46  124 1    
    93   46  125 1    
    94   47   48 am   BACKBONE|DICT|INTERRES
    95   47  126 1    
    96   48   49 2    
    97   48   50 1    
    98   50   51 1    
    99   50   52 1    
   100   50  127 1    
   101   51  128 1    
   102   51  129 1    
   103   51  130 1    
   104   52   53 am   BACKBONE|DICT|INTERRES
   105   52  131 1    
   106   53   54 2    
   107   53   55 1    
   108   55   56 1    
   109   55   59 1    
   110   55  132 1    
   111   56   57 1    
   112   56  133 1    
   113   56  134 1    
   114   57   58 1    
   115   58  135 1    
   116   58  136 1    
   117   59   60 am   BACKBONE|DICT|INTERRES
   118   59  137 1    
   119   60   61 2    
   120   60   62 1    
   121   62   63 1    
   122   62   64 1    
   123   62  138 1    
   124   63  139 1    
   125   63  140 1    
   126   63  141 1    
   127   64   65 am   BACKBONE|DICT|INTERRES
   128   64  142 1    
   129   65   66 2    
   130   65   67 1    
   131   67   68 1    
   132   67   69 1    
   133   67  143 1    
   134   68  144 1    
   135   68  145 1    
   136   68  146 1    
   137   69   70 am   BACKBONE|DICT|INTERRES
   138   69  147 1    
   139   70   71 2    
   140   70   72 1    
   141   72   73 1    
   142   72   74 1    
   143   72  148 1    
   144   73  149 1    
   145   73  150 1    
   146   73  151 1    
   147   74   75 am   BACKBONE|DICT|INTERRES
   148   74  152 1    
   149   75   76 2    
   150   75   77 1    
   151   77   78 1    
   152   77   79 1    
   153   77  153 1    
   154   78  154 1    
   155   78  155 1    
   156   78  156 1    
   157   79   80 am   BACKBONE|DICT|INTERRES
   158   79  157 1    
   159   80   81 2    
@<TRIPOS>SUBSTRUCTURE
     1 UNK         1 GROUP             0       ****    0 ROOT    
