@<TRIPOS>MOLECULE
3R207
157   159    1
SMALL
USER_CHARGES


@<TRIPOS>ATOM
      1 CA        -47.1245  -29.8276    0.9342 C.3       0 UNK        -0.1975 
      2 C         -47.8241  -29.4765    2.2392 C.2       0 UNK         0.4852 
      3 O         -48.0374  -30.3591    3.0713 O.2       0 UNK        -0.5216 
      4 N         -48.1823  -28.1967    2.4173 N.am      1 UNK        -0.4461 
      5 CA        -48.8273  -27.6289    3.6055 C.3       1 UNK         0.0864 
      6 C6        -50.2633  -28.1842    3.8413 C.3       14 UNK        -0.0898 
      7 S7        -51.2069  -27.1633    5.0241 S.3       14 UNK        -0.2598 
      8 C8        -52.3848  -28.3628    5.7252 C.3       14 UNK         0.0286 
      9 C9        -52.7006  -28.0181    7.1727 C.ar      14 UNK        -0.0844 
     10 C10       -52.0806  -28.7189    8.2111 C.ar      14 UNK        -0.0881 
     11 C11       -52.3257  -28.3750    9.5430 C.ar      14 UNK        -0.0643 
     12 C12       -53.1966  -27.3233    9.8314 C.ar      14 UNK        -0.0930 
     13 C13       -53.8536  -26.6343    8.8063 C.ar      14 UNK        -0.0827 
     14 C14       -53.5975  -26.9883    7.4771 C.ar      14 UNK        -0.1249 
     15 C15       -54.7980  -25.4734    9.1098 C.3       14 UNK         0.0141 
     16 S16       -55.7639  -25.6641   10.6494 S.3       14 UNK        -0.2313 
     17 C17       -57.0206  -26.9038   10.1755 C.3       14 UNK        -0.0915 
     18 CA        -57.0491  -28.1801   11.0644 C.3       13 UNK         0.0968 
     19 C         -55.9943  -29.2451   10.6445 C.2       13 UNK         0.5732 
     20 N         -55.0870  -29.6646   11.5193 N.am      13 UNK        -0.7310 
     21 O         -56.0291  -29.7300    9.5163 O.2       13 UNK        -0.5035 
     22 N         -57.0690  -27.8566   12.5007 N.am      13 UNK        -0.4233 
     23 C         -57.5665  -28.6451   13.4592 C.2       13 UNK         0.4989 
     24 O         -58.1003  -29.7348   13.2433 O.2       13 UNK        -0.4996 
     25 CA        -57.4197  -28.1337   14.9039 C.3       12 UNK         0.0216 
     26 CB        -58.4056  -28.8176   15.8702 C.3       12 UNK        -0.1964 
     27 N         -56.0563  -28.3212   15.4062 N.am      12 UNK        -0.4276 
     28 C         -55.0078  -27.5545   15.0848 C.2       12 UNK         0.5020 
     29 O         -55.0650  -26.6212   14.2796 O.2       12 UNK        -0.5489 
     30 CA        -53.6662  -27.9052   15.7543 C.3       11 UNK         0.0294 
     31 CB        -52.8323  -28.8052   14.8294 C.3       11 UNK        -0.2019 
     32 N         -52.9086  -26.6918   16.0782 N.am      11 UNK        -0.4493 
     33 C         -53.2894  -25.8098   17.0150 C.2       11 UNK         0.4932 
     34 O         -54.2056  -26.0264   17.8115 O.2       11 UNK        -0.5029 
     35 CA        -52.5651  -24.4507   17.0443 C.3       10 UNK         0.0280 
     36 CB        -52.8486  -23.6335   18.3241 C.3       10 UNK        -0.1976 
     37 N         -51.1269  -24.5313   16.7744 N.am      10 UNK        -0.4242 
     38 C         -50.1769  -25.0945   17.5369 C.2       10 UNK         0.5072 
     39 O         -50.4124  -25.6788   18.5958 O.2       10 UNK        -0.5224 
     40 CA        -48.7093  -24.9890   17.0633 C.3       9 UNK         0.0343 
     41 CB        -48.0649  -26.3823   16.9600 C.3       9 UNK        -0.2003 
     42 N         -48.5420  -24.2915   15.7842 N.am      9 UNK        -0.4272 
     43 C         -48.5785  -22.9628   15.6065 C.2       9 UNK         0.4988 
     44 O         -48.6583  -22.1513   16.5286 O.2       9 UNK        -0.5108 
     45 CA        -48.5949  -22.4564   14.1496 C.3       8 UNK         0.0248 
     46 CB        -47.1679  -22.2776   13.6096 C.3       8 UNK        -0.2001 
     47 N         -49.3599  -23.3295   13.2514 N.am      8 UNK        -0.4140 
     48 C         -50.6699  -23.5920   13.3798 C.2       8 UNK         0.5028 
     49 O         -51.3972  -23.0441   14.2067 O.2       8 UNK        -0.5428 
     50 CA        -51.2495  -24.7072   12.4978 C.3       7 UNK         0.0264 
     51 CB        -51.7459  -24.1456   11.1563 C.3       7 UNK        -0.1988 
     52 N         -50.2725  -25.7870   12.2996 N.am      7 UNK        -0.4454 
     53 C         -49.9752  -26.6762   13.2591 C.2       7 UNK         0.5027 
     54 O         -50.5284  -26.6755   14.3595 O.2       7 UNK        -0.5083 
     55 CA        -48.8681  -27.7171   12.9893 C.3       6 UNK         0.0844 
     56 C56       -49.4155  -29.0397   12.4009 C.3       14 UNK        -0.0967 
     57 S57       -49.8599  -28.9176   10.6397 S.3       14 UNK        -0.2604 
     58 C58       -51.6595  -29.1363   10.6764 C.3       14 UNK         0.0134 
     59 N         -47.7136  -27.1979   12.2450 N.am      6 UNK        -0.4116 
     60 C         -46.7894  -26.3923   12.7866 C.2       5 UNK         0.5034 
     61 O         -46.9284  -25.8402   13.8767 O.2       5 UNK        -0.5045 
     62 CA        -45.4819  -26.1928   12.0072 C.3       5 UNK         0.0224 
     63 CB        -44.7707  -27.5329   11.7471 C.3       5 UNK        -0.1978 
     64 N         -45.7489  -25.5267   10.7386 N.am      5 UNK        -0.4737 
     65 C         -45.5225  -24.2296   10.4923 C.2       4 UNK         0.5027 
     66 O         -44.9129  -23.4822   11.2572 O.2       4 UNK        -0.5211 
     67 CA        -46.0867  -23.6515    9.1778 C.3       4 UNK         0.0297 
     68 CB        -44.9842  -23.5746    8.1097 C.3       4 UNK        -0.1993 
     69 N         -47.2307  -24.3922    8.6339 N.am      4 UNK        -0.4486 
     70 C         -48.3768  -24.6310    9.2866 C.2       3 UNK         0.4961 
     71 O         -48.6213  -24.2072   10.4161 O.2       3 UNK        -0.5105 
     72 CA        -49.3955  -25.5583    8.6014 C.3       3 UNK         0.0299 
     73 CB        -50.3779  -24.7325    7.7568 C.3       3 UNK        -0.1972 
     74 N         -48.8241  -26.6269    7.7718 N.am      3 UNK        -0.4305 
     75 C         -47.8509  -27.4901    8.1117 C.2       2 UNK         0.5006 
     76 O         -47.2308  -27.4370    9.1762 O.2       2 UNK        -0.5106 
     77 CA        -47.5119  -28.6145    7.1133 C.3       2 UNK         0.0296 
     78 CB        -47.8163  -29.9913    7.7270 C.3       2 UNK        -0.2002 
     79 N         -48.2272  -28.4998    5.8393 N.am      2 UNK        -0.4032 
     80 C         -47.8784  -27.6957    4.8257 C.2       1 UNK         0.5000 
     81 O         -46.8637  -26.9954    4.8325 O.2       1 UNK        -0.5238 
     82 H82       -47.0061  -28.9586    0.2871 H         1 UNK         0.0889 
     83 H83       -47.6983  -30.5783    0.3916 H         1 UNK         0.0889 
     84 H84       -46.1350  -30.2361    1.1377 H         1 UNK         0.0889 
     85 H85       -47.9481  -27.5235    1.7005 H         1 UNK         0.3028 
     86 H86       -48.9332  -26.5656    3.3827 H         1 UNK         0.0864 
     87 H87       -50.8165  -28.1790    2.9008 H         1 UNK         0.0720 
     88 H88       -50.2400  -29.2263    4.1625 H         1 UNK         0.0720 
     89 H89       -51.9831  -29.3750    5.6634 H         1 UNK         0.0814 
     90 H90       -53.2997  -28.3599    5.1309 H         1 UNK         0.0814 
     91 H91       -51.3927  -29.5226    7.9885 H         1 UNK         0.1469 
     92 H92       -53.3695  -27.0487   10.8626 H         1 UNK         0.1381 
     93 H93       -54.0762  -26.4457    6.6733 H         1 UNK         0.1206 
     94 H94       -54.2016  -24.5640    9.1895 H         1 UNK         0.0813 
     95 H95       -55.4885  -25.3140    8.2802 H         1 UNK         0.0813 
     96 H96       -57.9895  -26.4073   10.2431 H         1 UNK         0.0638 
     97 H97       -56.9065  -27.1653    9.1218 H         1 UNK         0.0638 
     98 H98       -58.0041  -28.6632   10.8486 H         1 UNK         0.0568 
     99 H99       -54.4308  -30.3739   11.2384 H         1 UNK         0.3450 
    100 H100      -55.0684  -29.2867   12.4507 H         1 UNK         0.3450 
    101 H101      -56.5557  -27.0265   12.7766 H         1 UNK         0.2987 
    102 H102      -57.6496  -27.0656   14.9018 H         1 UNK         0.0766 
    103 H103      -58.3461  -28.3847   16.8691 H         1 UNK         0.0798 
    104 H104      -58.2155  -29.8882   15.9569 H         1 UNK         0.0798 
    105 H105      -59.4343  -28.6962   15.5278 H         1 UNK         0.0798 
    106 H106      -55.9176  -29.0913   16.0452 H         1 UNK         0.3198 
    107 H107      -53.8582  -28.4441   16.6848 H         1 UNK         0.0843 
    108 H108      -51.8674  -29.0483   15.2747 H         1 UNK         0.0831 
    109 H109      -52.6477  -28.3228   13.8696 H         1 UNK         0.0831 
    110 H110      -53.3448  -29.7469   14.6292 H         1 UNK         0.0831 
    111 H111      -52.1256  -26.4700   15.4689 H         1 UNK         0.3133 
    112 H112      -52.9860  -23.8863   16.2116 H         1 UNK         0.0566 
    113 H113      -52.3444  -22.6675   18.2977 H         1 UNK         0.0814 
    114 H114      -53.9158  -23.4366   18.4335 H         1 UNK         0.0814 
    115 H115      -52.5234  -24.1586   19.2226 H         1 UNK         0.0814 
    116 H116      -50.8415  -24.0861   15.9093 H         1 UNK         0.3091 
    117 H117      -48.1702  -24.4280   17.8293 H         1 UNK         0.0702 
    118 H118      -47.0194  -26.3154   16.6587 H         1 UNK         0.0785 
    119 H119      -48.5832  -27.0119   16.2372 H         1 UNK         0.0785 
    120 H120      -48.0910  -26.9001   17.9196 H         1 UNK         0.0785 
    121 H121      -48.3804  -24.8796   14.9737 H         1 UNK         0.2998 
    122 H122      -49.0825  -21.4793   14.1473 H         1 UNK         0.0697 
    123 H123      -46.6207  -23.2199   13.5837 H         1 UNK         0.0825 
    124 H124      -46.5982  -21.5891   14.2349 H         1 UNK         0.0825 
    125 H125      -47.1727  -21.8692   12.5987 H         1 UNK         0.0825 
    126 H126      -48.8549  -23.7839   12.4982 H         1 UNK         0.3029 
    127 H127      -52.1165  -25.1287   13.0132 H         1 UNK         0.0897 
    128 H128      -51.9566  -24.9363   10.4394 H         1 UNK         0.0792 
    129 H129      -52.6695  -23.5836   11.2992 H         1 UNK         0.0792 
    130 H130      -51.0291  -23.4618   10.7037 H         1 UNK         0.0792 
    131 H131      -49.7326  -25.7739   11.4444 H         1 UNK         0.3086 
    132 H132      -48.4885  -27.9839   13.9783 H         1 UNK         0.0583 
    133 H133      -48.6500  -29.8124   12.4873 H         1 UNK         0.1020 
    134 H134      -50.2583  -29.4092   12.9882 H         1 UNK         0.1020 
    135 H135      -51.8967  -30.1979   10.5980 H         1 UNK         0.0694 
    136 H136      -52.0526  -28.7978   11.6349 H         1 UNK         0.0694 
    137 H137      -47.5700  -27.5679   11.3117 H         1 UNK         0.2989 
    138 H138      -44.8227  -25.5815   12.6280 H         1 UNK         0.1055 
    139 H139      -44.6002  -28.0724   12.6798 H         1 UNK         0.0806 
    140 H140      -43.7969  -27.3746   11.2834 H         1 UNK         0.0806 
    141 H141      -45.3457  -28.1866   11.0902 H         1 UNK         0.0806 
    142 H142      -46.2732  -26.0670   10.0538 H         1 UNK         0.3061 
    143 H143      -46.4295  -22.6375    9.3941 H         1 UNK         0.0734 
    144 H144      -45.3382  -23.0784    7.2059 H         1 UNK         0.0832 
    145 H145      -44.1273  -23.0059    8.4740 H         1 UNK         0.0832 
    146 H146      -44.6226  -24.5655    7.8319 H         1 UNK         0.0832 
    147 H147      -47.1136  -24.8036    7.7193 H         1 UNK         0.3156 
    148 H148      -49.9642  -26.0514    9.3909 H         1 UNK         0.0589 
    149 H149      -49.9028  -24.3291    6.8619 H         1 UNK         0.0808 
    150 H150      -51.2297  -25.3347    7.4434 H         1 UNK         0.0808 
    151 H151      -50.7776  -23.8887    8.3198 H         1 UNK         0.0808 
    152 H152      -49.2832  -26.7781    6.8855 H         1 UNK         0.3098 
    153 H153      -46.4383  -28.5591    6.9214 H         1 UNK         0.0720 
    154 H154      -47.5058  -30.7986    7.0636 H         1 UNK         0.0791 
    155 H155      -48.8797  -30.1155    7.9336 H         1 UNK         0.0791 
    156 H156      -47.2853  -30.1269    8.6705 H         1 UNK         0.0791 
    157 H157      -49.0658  -29.0531    5.7394 H         1 UNK         0.3028 
@<TRIPOS>BOND
     1    1    2 1    
     2    1   82 1    
     3    1   83 1    
     4    1   84 1    
     5    2    3 2    
     6    2    4 am   BACKBONE|DICT|INTERRES
     7    4    5 1    
     8    4   85 1    
     9    5    6 1    
    10    5   80 1    
    11    5   86 1    
    12    6    7 1    
    13    6   87 1    
    14    6   88 1    
    15    7    8 1    
    16    8    9 1    
    17    8   89 1    
    18    8   90 1    
    19    9   10 ar   
    20    9   14 ar   
    21   10   11 ar   
    22   10   91 1    
    23   11   12 ar   
    24   11   58 1    
    25   12   13 ar   
    26   12   92 1    
    27   13   14 ar   
    28   13   15 1    
    29   14   93 1    
    30   15   16 1    
    31   15   94 1    
    32   15   95 1    
    33   16   17 1    
    34   17   18 1    
    35   17   96 1    
    36   17   97 1    
    37   18   19 1    
    38   18   22 1    
    39   18   98 1    
    40   19   20 am   BACKBONE|DICT|INTERRES
    41   19   21 2    
    42   20   99 1    
    43   20  100 1    
    44   22   23 am   BACKBONE|DICT|INTERRES
    45   22  101 1    
    46   23   24 2    
    47   23   25 1    
    48   25   26 1    
    49   25   27 1    
    50   25  102 1    
    51   26  103 1    
    52   26  104 1    
    53   26  105 1    
    54   27   28 am   BACKBONE|DICT|INTERRES
    55   27  106 1    
    56   28   29 2    
    57   28   30 1    
    58   30   31 1    
    59   30   32 1    
    60   30  107 1    
    61   31  108 1    
    62   31  109 1    
    63   31  110 1    
    64   32   33 am   BACKBONE|DICT|INTERRES
    65   32  111 1    
    66   33   34 2    
    67   33   35 1    
    68   35   36 1    
    69   35   37 1    
    70   35  112 1    
    71   36  113 1    
    72   36  114 1    
    73   36  115 1    
    74   37   38 am   BACKBONE|DICT|INTERRES
    75   37  116 1    
    76   38   39 2    
    77   38   40 1    
    78   40   41 1    
    79   40   42 1    
    80   40  117 1    
    81   41  118 1    
    82   41  119 1    
    83   41  120 1    
    84   42   43 am   BACKBONE|DICT|INTERRES
    85   42  121 1    
    86   43   44 2    
    87   43   45 1    
    88   45   46 1    
    89   45   47 1    
    90   45  122 1    
    91   46  123 1    
    92   46  124 1    
    93   46  125 1    
    94   47   48 am   BACKBONE|DICT|INTERRES
    95   47  126 1    
    96   48   49 2    
    97   48   50 1    
    98   50   51 1    
    99   50   52 1    
   100   50  127 1    
   101   51  128 1    
   102   51  129 1    
   103   51  130 1    
   104   52   53 am   BACKBONE|DICT|INTERRES
   105   52  131 1    
   106   53   54 2    
   107   53   55 1    
   108   55   56 1    
   109   55   59 1    
   110   55  132 1    
   111   56   57 1    
   112   56  133 1    
   113   56  134 1    
   114   57   58 1    
   115   58  135 1    
   116   58  136 1    
   117   59   60 am   BACKBONE|DICT|INTERRES
   118   59  137 1    
   119   60   61 2    
   120   60   62 1    
   121   62   63 1    
   122   62   64 1    
   123   62  138 1    
   124   63  139 1    
   125   63  140 1    
   126   63  141 1    
   127   64   65 am   BACKBONE|DICT|INTERRES
   128   64  142 1    
   129   65   66 2    
   130   65   67 1    
   131   67   68 1    
   132   67   69 1    
   133   67  143 1    
   134   68  144 1    
   135   68  145 1    
   136   68  146 1    
   137   69   70 am   BACKBONE|DICT|INTERRES
   138   69  147 1    
   139   70   71 2    
   140   70   72 1    
   141   72   73 1    
   142   72   74 1    
   143   72  148 1    
   144   73  149 1    
   145   73  150 1    
   146   73  151 1    
   147   74   75 am   BACKBONE|DICT|INTERRES
   148   74  152 1    
   149   75   76 2    
   150   75   77 1    
   151   77   78 1    
   152   77   79 1    
   153   77  153 1    
   154   78  154 1    
   155   78  155 1    
   156   78  156 1    
   157   79   80 am   BACKBONE|DICT|INTERRES
   158   79  157 1    
   159   80   81 2    
@<TRIPOS>SUBSTRUCTURE
     1 UNK         1 GROUP             0       ****    0 ROOT    
