@<TRIPOS>MOLECULE
3R207
157   159    1
SMALL
USER_CHARGES


@<TRIPOS>ATOM
      1 CA        -48.1420  -29.4792    1.4501 C.3       0 UNK        -0.1975 
      2 C         -48.3755  -29.5402    2.9525 C.2       0 UNK         0.4852 
      3 O         -47.6915  -30.2971    3.6420 O.2       0 UNK        -0.5216 
      4 N         -49.3312  -28.7433    3.4547 N.am      1 UNK        -0.4461 
      5 CA        -49.7498  -28.6546    4.8643 C.3       1 UNK         0.0864 
      6 C6        -50.4172  -29.9536    5.3984 C.3       14 UNK        -0.0898 
      7 S7        -51.8370  -30.5284    4.3993 S.3       14 UNK        -0.2598 
      8 C8        -53.1543  -29.3300    4.8066 C.3       14 UNK         0.0286 
      9 C9        -53.3268  -29.1215    6.3051 C.ar      14 UNK        -0.0844 
     10 C10       -53.0095  -27.8868    6.8808 C.ar      14 UNK        -0.0881 
     11 C11       -53.1169  -27.6981    8.2615 C.ar      14 UNK        -0.0643 
     12 C12       -53.5529  -28.7537    9.0663 C.ar      14 UNK        -0.0930 
     13 C13       -53.8974  -29.9843    8.4999 C.ar      14 UNK        -0.0827 
     14 C14       -53.7866  -30.1629    7.1178 C.ar      14 UNK        -0.1249 
     15 C15       -54.3791  -31.1144    9.3939 C.3       14 UNK         0.0141 
     16 S16       -56.0743  -30.7986    9.9708 S.3       14 UNK        -0.2313 
     17 C17       -56.2049  -31.9726   11.3635 C.3       14 UNK        -0.0915 
     18 CA        -55.9726  -31.3246   12.7581 C.3       13 UNK         0.0968 
     19 C         -54.4615  -31.0992   13.0720 C.2       13 UNK         0.5732 
     20 N         -54.0072  -29.8962   13.4078 N.am      13 UNK        -0.7310 
     21 O         -53.6809  -32.0464   13.0179 O.2       13 UNK        -0.5035 
     22 N         -56.8228  -30.1410   12.9489 N.am      13 UNK        -0.4233 
     23 C         -57.1920  -29.6479   14.1335 C.2       13 UNK         0.4989 
     24 O         -56.9902  -30.2080   15.2136 O.2       13 UNK        -0.4996 
     25 CA        -57.9028  -28.2850   14.1030 C.3       12 UNK         0.0216 
     26 CB        -59.4147  -28.4543   14.3259 C.3       12 UNK        -0.1964 
     27 N         -57.3577  -27.3764   15.1137 N.am      12 UNK        -0.4276 
     28 C         -56.0905  -26.9434   15.1508 C.2       12 UNK         0.5020 
     29 O         -55.2397  -27.2102   14.2946 O.2       12 UNK        -0.5489 
     30 CA        -55.7097  -26.0901   16.3646 C.3       11 UNK         0.0294 
     31 CB        -55.5299  -26.9700   17.6174 C.3       11 UNK        -0.2019 
     32 N         -54.4676  -25.3783   16.0795 N.am      11 UNK        -0.4493 
     33 C         -54.0486  -24.2712   16.7034 C.2       11 UNK         0.4932 
     34 O         -54.7089  -23.6937   17.5697 O.2       11 UNK        -0.5029 
     35 CA        -52.6649  -23.7184   16.2972 C.3       10 UNK         0.0280 
     36 CB        -52.0800  -22.7550   17.3515 C.3       10 UNK        -0.1976 
     37 N         -51.6806  -24.7547   15.9567 N.am      10 UNK        -0.4242 
     38 C         -51.2746  -25.7794   16.7245 C.2       10 UNK         0.5072 
     39 O         -51.7015  -26.0179   17.8551 O.2       10 UNK        -0.5224 
     40 CA        -50.1932  -26.6927   16.1248 C.3       9 UNK         0.0343 
     41 CB        -50.7661  -27.5481   14.9814 C.3       9 UNK        -0.2003 
     42 N         -49.0285  -25.9418   15.6515 N.am      9 UNK        -0.4272 
     43 C         -48.1770  -25.2734   16.4444 C.2       9 UNK         0.4988 
     44 O         -48.2426  -25.2676   17.6743 O.2       9 UNK        -0.5108 
     45 CA        -47.0607  -24.4713   15.7531 C.3       8 UNK         0.0248 
     46 CB        -45.8832  -25.3851   15.3774 C.3       8 UNK        -0.2001 
     47 N         -47.5343  -23.7491   14.5695 N.am      8 UNK        -0.4140 
     48 C         -48.3829  -22.7109   14.6119 C.2       8 UNK         0.5028 
     49 O         -48.7851  -22.1979   15.6563 O.2       8 UNK        -0.5428 
     50 CA        -48.8823  -22.1511   13.2691 C.3       7 UNK         0.0264 
     51 CB        -47.8958  -21.1100   12.7170 C.3       7 UNK        -0.1988 
     52 N         -49.1214  -23.1856   12.2599 N.am      7 UNK        -0.4454 
     53 C         -50.0474  -24.1517   12.3568 C.2       7 UNK         0.5027 
     54 O         -50.8332  -24.2551   13.2997 O.2       7 UNK        -0.5083 
     55 CA        -50.0692  -25.2124   11.2378 C.3       6 UNK         0.0844 
     56 C56       -50.8062  -24.6805    9.9859 C.3       14 UNK        -0.0967 
     57 S57       -51.0010  -25.9764    8.7189 S.3       14 UNK        -0.2604 
     58 C58       -52.7717  -26.3547    8.8852 C.3       14 UNK         0.0134 
     59 N         -48.7212  -25.7063   10.9359 N.am      6 UNK        -0.4116 
     60 C         -47.9199  -26.3270   11.8136 C.2       5 UNK         0.5034 
     61 O         -48.2508  -26.6155   12.9629 O.2       5 UNK        -0.5045 
     62 CA        -46.4840  -26.6157   11.3555 C.3       5 UNK         0.0224 
     63 CB        -46.4098  -27.9276   10.5580 C.3       5 UNK        -0.1978 
     64 N         -45.9444  -25.5075   10.5642 N.am      5 UNK        -0.4737 
     65 C         -45.5820  -24.3260   11.0848 C.2       4 UNK         0.5027 
     66 O         -45.6194  -24.0745   12.2886 O.2       4 UNK        -0.5211 
     67 CA        -45.1398  -23.2285   10.1008 C.3       4 UNK         0.0297 
     68 CB        -43.6458  -23.3716    9.7710 C.3       4 UNK        -0.1993 
     69 N         -45.9186  -23.2222    8.8599 N.am      4 UNK        -0.4486 
     70 C         -47.2286  -22.9469    8.7891 C.2       3 UNK         0.4961 
     71 O         -47.9084  -22.6100    9.7573 O.2       3 UNK        -0.5105 
     72 CA        -47.9117  -23.1220    7.4201 C.3       3 UNK         0.0299 
     73 CB        -47.8672  -21.8054    6.6291 C.3       3 UNK        -0.1972 
     74 N         -47.3693  -24.2098    6.5949 N.am      3 UNK        -0.4305 
     75 C         -47.2522  -25.4900    6.9768 C.2       2 UNK         0.5006 
     76 O         -47.5275  -25.8900    8.1081 O.2       2 UNK        -0.5106 
     77 CA        -46.7173  -26.4679    5.9182 C.3       2 UNK         0.0296 
     78 CB        -45.6357  -27.4092    6.4898 C.3       2 UNK        -0.2002 
     79 N         -47.8080  -27.2058    5.2687 N.am      2 UNK        -0.4032 
     80 C         -48.6237  -28.1369    5.7944 C.2       1 UNK         0.5000 
     81 O         -48.5187  -28.5885    6.9361 O.2       1 UNK        -0.5238 
     82 H82       -47.1159  -29.1773    1.2416 H         1 UNK         0.0889 
     83 H83       -48.8102  -28.7710    0.9604 H         1 UNK         0.0889 
     84 H84       -48.3055  -30.4608    1.0061 H         1 UNK         0.0889 
     85 H85       -49.8541  -28.1575    2.8181 H         1 UNK         0.3028 
     86 H86       -50.5093  -27.8725    4.8959 H         1 UNK         0.0864 
     87 H87       -49.6871  -30.7638    5.4303 H         1 UNK         0.0720 
     88 H88       -50.7491  -29.8245    6.4297 H         1 UNK         0.0720 
     89 H89       -54.0956  -29.6849    4.3846 H         1 UNK         0.0814 
     90 H90       -52.9370  -28.3852    4.3064 H         1 UNK         0.0814 
     91 H91       -52.6607  -27.0720    6.2611 H         1 UNK         0.1469 
     92 H92       -53.6382  -28.6182   10.1362 H         1 UNK         0.1381 
     93 H93       -54.0387  -31.1163    6.6736 H         1 UNK         0.1206 
     94 H94       -54.3485  -32.0702    8.8685 H         1 UNK         0.0813 
     95 H95       -53.7029  -31.2068   10.2442 H         1 UNK         0.0813 
     96 H96       -57.2118  -32.3913   11.3325 H         1 UNK         0.0638 
     97 H97       -55.5371  -32.8206   11.2005 H         1 UNK         0.0638 
     98 H98       -56.2931  -32.0655   13.4930 H         1 UNK         0.0568 
     99 H99       -53.0264  -29.7901   13.6067 H         1 UNK         0.3450 
    100 H100      -54.6249  -29.1001   13.5064 H         1 UNK         0.3450 
    101 H101      -57.0214  -29.6175   12.1086 H         1 UNK         0.2987 
    102 H102      -57.7468  -27.8228   13.1257 H         1 UNK         0.0766 
    103 H103      -59.9361  -27.4989   14.2635 H         1 UNK         0.0798 
    104 H104      -59.6329  -28.8943   15.3002 H         1 UNK         0.0798 
    105 H105      -59.8494  -29.1088   13.5691 H         1 UNK         0.0798 
    106 H106      -57.9727  -27.1348   15.8774 H         1 UNK         0.3198 
    107 H107      -56.5078  -25.3639   16.5346 H         1 UNK         0.0843 
    108 H108      -54.7289  -27.6981   17.4819 H         1 UNK         0.0831 
    109 H109      -56.4400  -27.5248   17.8484 H         1 UNK         0.0831 
    110 H110      -55.2881  -26.3703   18.4950 H         1 UNK         0.0831 
    111 H111      -53.9175  -25.7822   15.3308 H         1 UNK         0.3133 
    112 H112      -52.8250  -23.1467   15.3821 H         1 UNK         0.0566 
    113 H113      -51.1186  -22.3540   17.0316 H         1 UNK         0.0814 
    114 H114      -52.7425  -21.9053   17.5202 H         1 UNK         0.0814 
    115 H115      -51.9324  -23.2507   18.3116 H         1 UNK         0.0814 
    116 H116      -51.2713  -24.6626   15.0273 H         1 UNK         0.3091 
    117 H117      -49.8554  -27.3695   16.9125 H         1 UNK         0.0702 
    118 H118      -51.6388  -28.1117   15.3142 H         1 UNK         0.0785 
    119 H119      -51.0743  -26.9390   14.1310 H         1 UNK         0.0785 
    120 H120      -50.0309  -28.2687   14.6225 H         1 UNK         0.0785 
    121 H121      -48.8523  -25.9569   14.6502 H         1 UNK         0.2998 
    122 H122      -46.6941  -23.7316   16.4680 H         1 UNK         0.0697 
    123 H123      -46.1759  -26.1492   14.6576 H         1 UNK         0.0825 
    124 H124      -45.4935  -25.8991   16.2570 H         1 UNK         0.0825 
    125 H125      -45.0610  -24.8150   14.9446 H         1 UNK         0.0825 
    126 H126      -47.1786  -24.0559   13.6704 H         1 UNK         0.3029 
    127 H127      -49.8347  -21.6511   13.4585 H         1 UNK         0.0897 
    128 H128      -48.2795  -20.6422   11.8101 H         1 UNK         0.0792 
    129 H129      -46.9298  -21.5567   12.4793 H         1 UNK         0.0792 
    130 H130      -47.7193  -20.3149   13.4427 H         1 UNK         0.0792 
    131 H131      -48.5563  -23.1312   11.4139 H         1 UNK         0.3086 
    132 H132      -50.6375  -26.0627   11.6211 H         1 UNK         0.0583 
    133 H133      -51.7885  -24.2865   10.2547 H         1 UNK         0.1020 
    134 H134      -50.2646  -23.8445    9.5432 H         1 UNK         0.1020 
    135 H135      -53.0438  -26.3490    9.9421 H         1 UNK         0.0694 
    136 H136      -53.3567  -25.5672    8.4080 H         1 UNK         0.0694 
    137 H137      -48.3829  -25.5662    9.9895 H         1 UNK         0.2989 
    138 H138      -45.8658  -26.7298   12.2487 H         1 UNK         0.1055 
    139 H139      -46.7277  -28.7707   11.1728 H         1 UNK         0.0806 
    140 H140      -45.3928  -28.1345   10.2250 H         1 UNK         0.0806 
    141 H141      -47.0545  -27.9111    9.6785 H         1 UNK         0.0806 
    142 H142      -45.9951  -25.6066    9.5574 H         1 UNK         0.3061 
    143 H143      -45.2891  -22.2652   10.5933 H         1 UNK         0.0734 
    144 H144      -43.2970  -22.5521    9.1423 H         1 UNK         0.0832 
    145 H145      -43.0442  -23.3575   10.6811 H         1 UNK         0.0832 
    146 H146      -43.4319  -24.3081    9.2543 H         1 UNK         0.0832 
    147 H147      -45.4395  -23.4901    8.0128 H         1 UNK         0.3156 
    148 H148      -48.9586  -23.3641    7.6103 H         1 UNK         0.0589 
    149 H149      -46.8466  -21.5269    6.3633 H         1 UNK         0.0808 
    150 H150      -48.4487  -21.8732    5.7095 H         1 UNK         0.0808 
    151 H151      -48.2866  -20.9850    7.2137 H         1 UNK         0.0808 
    152 H152      -47.1133  -23.9649    5.6489 H         1 UNK         0.3098 
    153 H153      -46.2405  -25.8823    5.1305 H         1 UNK         0.0720 
    154 H154      -45.2580  -28.0878    5.7250 H         1 UNK         0.0791 
    155 H155      -46.0081  -28.0137    7.3170 H         1 UNK         0.0791 
    156 H156      -44.7866  -26.8389    6.8679 H         1 UNK         0.0791 
    157 H157      -47.9997  -26.9289    4.3162 H         1 UNK         0.3028 
@<TRIPOS>BOND
     1    1    2 1    
     2    1   82 1    
     3    1   83 1    
     4    1   84 1    
     5    2    3 2    
     6    2    4 am   BACKBONE|DICT|INTERRES
     7    4    5 1    
     8    4   85 1    
     9    5    6 1    
    10    5   80 1    
    11    5   86 1    
    12    6    7 1    
    13    6   87 1    
    14    6   88 1    
    15    7    8 1    
    16    8    9 1    
    17    8   89 1    
    18    8   90 1    
    19    9   10 ar   
    20    9   14 ar   
    21   10   11 ar   
    22   10   91 1    
    23   11   12 ar   
    24   11   58 1    
    25   12   13 ar   
    26   12   92 1    
    27   13   14 ar   
    28   13   15 1    
    29   14   93 1    
    30   15   16 1    
    31   15   94 1    
    32   15   95 1    
    33   16   17 1    
    34   17   18 1    
    35   17   96 1    
    36   17   97 1    
    37   18   19 1    
    38   18   22 1    
    39   18   98 1    
    40   19   20 am   BACKBONE|DICT|INTERRES
    41   19   21 2    
    42   20   99 1    
    43   20  100 1    
    44   22   23 am   BACKBONE|DICT|INTERRES
    45   22  101 1    
    46   23   24 2    
    47   23   25 1    
    48   25   26 1    
    49   25   27 1    
    50   25  102 1    
    51   26  103 1    
    52   26  104 1    
    53   26  105 1    
    54   27   28 am   BACKBONE|DICT|INTERRES
    55   27  106 1    
    56   28   29 2    
    57   28   30 1    
    58   30   31 1    
    59   30   32 1    
    60   30  107 1    
    61   31  108 1    
    62   31  109 1    
    63   31  110 1    
    64   32   33 am   BACKBONE|DICT|INTERRES
    65   32  111 1    
    66   33   34 2    
    67   33   35 1    
    68   35   36 1    
    69   35   37 1    
    70   35  112 1    
    71   36  113 1    
    72   36  114 1    
    73   36  115 1    
    74   37   38 am   BACKBONE|DICT|INTERRES
    75   37  116 1    
    76   38   39 2    
    77   38   40 1    
    78   40   41 1    
    79   40   42 1    
    80   40  117 1    
    81   41  118 1    
    82   41  119 1    
    83   41  120 1    
    84   42   43 am   BACKBONE|DICT|INTERRES
    85   42  121 1    
    86   43   44 2    
    87   43   45 1    
    88   45   46 1    
    89   45   47 1    
    90   45  122 1    
    91   46  123 1    
    92   46  124 1    
    93   46  125 1    
    94   47   48 am   BACKBONE|DICT|INTERRES
    95   47  126 1    
    96   48   49 2    
    97   48   50 1    
    98   50   51 1    
    99   50   52 1    
   100   50  127 1    
   101   51  128 1    
   102   51  129 1    
   103   51  130 1    
   104   52   53 am   BACKBONE|DICT|INTERRES
   105   52  131 1    
   106   53   54 2    
   107   53   55 1    
   108   55   56 1    
   109   55   59 1    
   110   55  132 1    
   111   56   57 1    
   112   56  133 1    
   113   56  134 1    
   114   57   58 1    
   115   58  135 1    
   116   58  136 1    
   117   59   60 am   BACKBONE|DICT|INTERRES
   118   59  137 1    
   119   60   61 2    
   120   60   62 1    
   121   62   63 1    
   122   62   64 1    
   123   62  138 1    
   124   63  139 1    
   125   63  140 1    
   126   63  141 1    
   127   64   65 am   BACKBONE|DICT|INTERRES
   128   64  142 1    
   129   65   66 2    
   130   65   67 1    
   131   67   68 1    
   132   67   69 1    
   133   67  143 1    
   134   68  144 1    
   135   68  145 1    
   136   68  146 1    
   137   69   70 am   BACKBONE|DICT|INTERRES
   138   69  147 1    
   139   70   71 2    
   140   70   72 1    
   141   72   73 1    
   142   72   74 1    
   143   72  148 1    
   144   73  149 1    
   145   73  150 1    
   146   73  151 1    
   147   74   75 am   BACKBONE|DICT|INTERRES
   148   74  152 1    
   149   75   76 2    
   150   75   77 1    
   151   77   78 1    
   152   77   79 1    
   153   77  153 1    
   154   78  154 1    
   155   78  155 1    
   156   78  156 1    
   157   79   80 am   BACKBONE|DICT|INTERRES
   158   79  157 1    
   159   80   81 2    
@<TRIPOS>SUBSTRUCTURE
     1 UNK         1 GROUP             0       ****    0 ROOT    
