@<TRIPOS>MOLECULE
3R207
157   159    1
SMALL
USER_CHARGES


@<TRIPOS>ATOM
      1 CA        -50.5764  -31.0389    9.7919 C.3       0 UNK        -0.1975 
      2 C         -49.4675  -31.0256    8.7498 C.2       0 UNK         0.4852 
      3 O         -48.6086  -31.9073    8.7615 O.2       0 UNK        -0.5216 
      4 N         -49.4712  -30.0288    7.8527 N.am      1 UNK        -0.4461 
      5 CA        -48.4875  -29.8751    6.7720 C.3       1 UNK         0.0864 
      6 C6        -49.0643  -29.0385    5.6008 C.3       14 UNK        -0.0898 
      7 S7        -49.3270  -27.2668    5.9837 S.3       14 UNK        -0.2598 
      8 C8        -51.0490  -26.9956    5.4688 C.3       14 UNK         0.0286 
      9 C9        -51.9768  -26.9634    6.6708 C.ar      14 UNK        -0.0844 
     10 C10       -52.3296  -25.7381    7.2442 C.ar      14 UNK        -0.0881 
     11 C11       -53.1964  -25.6786    8.3392 C.ar      14 UNK        -0.0643 
     12 C12       -53.6900  -26.8787    8.8712 C.ar      14 UNK        -0.0930 
     13 C13       -53.3502  -28.1103    8.3026 C.ar      14 UNK        -0.0827 
     14 C14       -52.4953  -28.1483    7.1985 C.ar      14 UNK        -0.1249 
     15 C15       -53.9007  -29.3946    8.9009 C.3       14 UNK         0.0141 
     16 S16       -55.6934  -29.5451    8.6332 S.3       14 UNK        -0.2313 
     17 C17       -56.1358  -30.7188    9.9582 C.3       14 UNK        -0.0915 
     18 CA        -56.9120  -30.0450   11.1224 C.3       13 UNK         0.0968 
     19 C         -57.4049  -31.1071   12.1489 C.2       13 UNK         0.5732 
     20 N         -56.9784  -31.0727   13.4061 N.am      13 UNK        -0.7310 
     21 O         -58.1984  -31.9770   11.7974 O.2       13 UNK        -0.5035 
     22 N         -56.1593  -28.9232   11.7103 N.am      13 UNK        -0.4233 
     23 C         -56.6911  -27.9237   12.4222 C.2       13 UNK         0.4989 
     24 O         -57.8925  -27.8305   12.6799 O.2       13 UNK        -0.4996 
     25 CA        -55.7027  -26.8615   12.9426 C.3       12 UNK         0.0216 
     26 CB        -56.4021  -25.6723   13.6272 C.3       12 UNK        -0.1964 
     27 N         -54.7098  -27.4253   13.8601 N.am      12 UNK        -0.4276 
     28 C         -53.6464  -28.1475   13.4894 C.2       12 UNK         0.5020 
     29 O         -53.3811  -28.4140   12.3162 O.2       12 UNK        -0.5489 
     30 CA        -52.7312  -28.6255   14.6197 C.3       11 UNK         0.0294 
     31 CB        -51.6979  -29.6631   14.1428 C.3       11 UNK        -0.2019 
     32 N         -52.0226  -27.4712   15.1609 N.am      11 UNK        -0.4493 
     33 C         -52.1716  -26.9653   16.3915 C.2       11 UNK         0.4932 
     34 O         -53.0085  -27.3727   17.1987 O.2       11 UNK        -0.5029 
     35 CA        -51.2133  -25.8183   16.7815 C.3       10 UNK         0.0280 
     36 CB        -51.0705  -25.6416   18.3080 C.3       10 UNK        -0.1976 
     37 N         -49.8993  -25.9417   16.1353 N.am      10 UNK        -0.4242 
     38 C         -49.0266  -26.9570   16.2505 C.2       10 UNK         0.5072 
     39 O         -49.1408  -27.8740   17.0648 O.2       10 UNK        -0.5224 
     40 CA        -47.8429  -26.9868   15.2682 C.3       9 UNK         0.0343 
     41 CB        -47.9753  -28.1781   14.3014 C.3       9 UNK        -0.2003 
     42 N         -47.7381  -25.7578   14.4759 N.am      9 UNK        -0.4272 
     43 C         -46.7140  -24.8971   14.5413 C.2       9 UNK         0.4988 
     44 O         -45.7459  -25.0303   15.2910 O.2       9 UNK        -0.5108 
     45 CA        -46.7664  -23.6819   13.6026 C.3       8 UNK         0.0248 
     46 CB        -46.1954  -24.0488   12.2247 C.3       8 UNK        -0.2001 
     47 N         -48.1071  -23.1167   13.4347 N.am      8 UNK        -0.4140 
     48 C         -48.7810  -22.4610   14.3909 C.2       8 UNK         0.5028 
     49 O         -48.3865  -22.3463   15.5512 O.2       8 UNK        -0.5428 
     50 CA        -50.1129  -21.8141   13.9892 C.3       7 UNK         0.0264 
     51 CB        -49.8618  -20.4831   13.2607 C.3       7 UNK        -0.1988 
     52 N         -50.8938  -22.6947   13.1216 N.am      7 UNK        -0.4454 
     53 C         -52.0352  -23.3017   13.4762 C.2       7 UNK         0.5027 
     54 O         -52.5707  -23.1736   14.5773 O.2       7 UNK        -0.5083 
     55 CA        -52.7054  -24.2039   12.4173 C.3       6 UNK         0.0844 
     56 C56       -53.6550  -23.3364   11.5521 C.3       14 UNK        -0.0967 
     57 S57       -54.6462  -24.2966   10.3632 S.3       14 UNK        -0.2604 
     58 C58       -53.5888  -24.2970    8.8717 C.3       14 UNK         0.0134 
     59 N         -51.7426  -24.9456   11.5955 N.am      6 UNK        -0.4116 
     60 C         -50.7380  -25.7148   12.0342 C.2       5 UNK         0.5034 
     61 O         -50.5220  -25.9717   13.2190 O.2       5 UNK        -0.5045 
     62 CA        -49.7482  -26.2286   10.9779 C.3       5 UNK         0.0224 
     63 CB        -50.1569  -27.6283   10.5114 C.3       5 UNK        -0.1978 
     64 N         -49.5542  -25.3622    9.8059 N.am      5 UNK        -0.4737 
     65 C         -49.2310  -24.0607    9.8288 C.2       4 UNK         0.5027 
     66 O         -49.1905  -23.3803   10.8566 O.2       4 UNK        -0.5211 
     67 CA        -48.8310  -23.4511    8.4824 C.3       4 UNK         0.0297 
     68 CB        -48.5686  -21.9344    8.5619 C.3       4 UNK        -0.1993 
     69 N         -47.6329  -24.1517    8.0338 N.am      4 UNK        -0.4486 
     70 C         -47.2090  -24.2936    6.7764 C.2       3 UNK         0.4961 
     71 O         -47.7756  -23.7938    5.8042 O.2       3 UNK        -0.5105 
     72 CA        -45.9379  -25.1404    6.5562 C.3       3 UNK         0.0299 
     73 CB        -44.6700  -24.3062    6.8235 C.3       3 UNK        -0.1972 
     74 N         -45.9013  -26.4202    7.2857 N.am      3 UNK        -0.4305 
     75 C         -45.8684  -26.6474    8.6074 C.2       2 UNK         0.5006 
     76 O         -45.8625  -25.7494    9.4497 O.2       2 UNK        -0.5106 
     77 CA        -45.8990  -28.1219    9.0616 C.3       2 UNK         0.0296 
     78 CB        -45.9469  -28.2650   10.5959 C.3       2 UNK        -0.2002 
     79 N         -47.0440  -28.8333    8.4889 N.am      2 UNK        -0.4032 
     80 C         -47.1213  -29.3223    7.2433 C.2       1 UNK         0.5000 
     81 O         -46.1766  -29.2893    6.4518 O.2       1 UNK        -0.5238 
     82 H82       -51.2315  -30.1746    9.7021 H         1 UNK         0.0889 
     83 H83       -50.1506  -31.0361   10.7950 H         1 UNK         0.0889 
     84 H84       -51.1834  -31.9372    9.6823 H         1 UNK         0.0889 
     85 H85       -50.1996  -29.3288    7.8745 H         1 UNK         0.3028 
     86 H86       -48.2812  -30.8719    6.3755 H         1 UNK         0.0864 
     87 H87       -49.9984  -29.4903    5.2647 H         1 UNK         0.0720 
     88 H88       -48.3949  -29.0934    4.7402 H         1 UNK         0.0720 
     89 H89       -51.3724  -27.7549    4.7558 H         1 UNK         0.0814 
     90 H90       -51.1012  -26.0469    4.9323 H         1 UNK         0.0814 
     91 H91       -51.9399  -24.8215    6.8220 H         1 UNK         0.1469 
     92 H92       -54.3578  -26.8765    9.7198 H         1 UNK         0.1381 
     93 H93       -52.2348  -29.0961    6.7477 H         1 UNK         0.1206 
     94 H94       -53.4080  -30.2694    8.4745 H         1 UNK         0.0813 
     95 H95       -53.6798  -29.4055    9.9675 H         1 UNK         0.0813 
     96 H96       -55.2380  -31.2151   10.3313 H         1 UNK         0.0638 
     97 H97       -56.7431  -31.5020    9.5006 H         1 UNK         0.0638 
     98 H98       -57.8216  -29.6209   10.6928 H         1 UNK         0.0568 
     99 H99       -57.3118  -31.7650   14.0581 H         1 UNK         0.3450 
    100 H100      -56.3379  -30.3585   13.7091 H         1 UNK         0.3450 
    101 H101      -55.1506  -28.9356   11.5973 H         1 UNK         0.2987 
    102 H102      -55.1757  -26.4766   12.0700 H         1 UNK         0.0766 
    103 H103      -55.6853  -24.9052   13.9210 H         1 UNK         0.0798 
    104 H104      -56.9490  -25.9816   14.5188 H         1 UNK         0.0798 
    105 H105      -57.1166  -25.2002   12.9515 H         1 UNK         0.0798 
    106 H106      -54.8582  -27.2617   14.8464 H         1 UNK         0.3198 
    107 H107      -53.3562  -29.0967   15.3813 H         1 UNK         0.0843 
    108 H108      -51.0431  -29.2581   13.3720 H         1 UNK         0.0831 
    109 H109      -52.1911  -30.5410   13.7236 H         1 UNK         0.0831 
    110 H110      -51.0707  -30.0030   14.9671 H         1 UNK         0.0831 
    111 H111      -51.3754  -27.0093   14.5252 H         1 UNK         0.3133 
    112 H112      -51.6593  -24.9051   16.3880 H         1 UNK         0.0566 
    113 H113      -50.3886  -24.8266   18.5505 H         1 UNK         0.0814 
    114 H114      -52.0321  -25.4049   18.7648 H         1 UNK         0.0814 
    115 H115      -50.6979  -26.5464   18.7890 H         1 UNK         0.0814 
    116 H116      -49.7077  -25.2520   15.4238 H         1 UNK         0.3091 
    117 H117      -46.9436  -27.1382   15.8684 H         1 UNK         0.0702 
    118 H118      -47.1088  -28.2510   13.6442 H         1 UNK         0.0785 
    119 H119      -48.8641  -28.0959   13.6760 H         1 UNK         0.0785 
    120 H120      -48.0470  -29.1206   14.8461 H         1 UNK         0.0785 
    121 H121      -48.4987  -25.5720   13.8346 H         1 UNK         0.2998 
    122 H122      -46.1314  -22.9051   14.0342 H         1 UNK         0.0697 
    123 H123      -46.7911  -24.8208   11.7383 H         1 UNK         0.0825 
    124 H124      -45.1772  -24.4311   12.3084 H         1 UNK         0.0825 
    125 H125      -46.1638  -23.1851   11.5603 H         1 UNK         0.0825 
    126 H126      -48.4964  -23.1551   12.4942 H         1 UNK         0.3029 
    127 H127      -50.6613  -21.5960   14.9085 H         1 UNK         0.0897 
    128 H128      -50.7995  -19.9767   13.0313 H         1 UNK         0.0792 
    129 H129      -49.2703  -19.8050   13.8775 H         1 UNK         0.0792 
    130 H130      -49.3228  -20.6281   12.3232 H         1 UNK         0.0792 
    131 H131      -50.4996  -22.8906   12.2054 H         1 UNK         0.3086 
    132 H132      -53.2988  -24.9455   12.9544 H         1 UNK         0.0583 
    133 H133      -54.3656  -22.8107   12.1939 H         1 UNK         0.1020 
    134 H134      -53.1062  -22.5545   11.0231 H         1 UNK         0.1020 
    135 H135      -54.1298  -23.7696    8.0848 H         1 UNK         0.0694 
    136 H136      -52.6830  -23.7173    9.0531 H         1 UNK         0.0694 
    137 H137      -51.8365  -24.8340   10.5980 H         1 UNK         0.2989 
    138 H138      -48.7786  -26.3076   11.4724 H         1 UNK         0.1055 
    139 H139      -51.1113  -27.6120    9.9861 H         1 UNK         0.0806 
    140 H140      -50.2633  -28.3089   11.3564 H         1 UNK         0.0806 
    141 H141      -49.4091  -28.0511    9.8459 H         1 UNK         0.0806 
    142 H142      -49.5681  -25.8213    8.9056 H         1 UNK         0.3061 
    143 H143      -49.6456  -23.6347    7.7787 H         1 UNK         0.0734 
    144 H144      -48.3233  -21.5213    7.5836 H         1 UNK         0.0832 
    145 H145      -49.4495  -21.4046    8.9263 H         1 UNK         0.0832 
    146 H146      -47.7448  -21.7042    9.2388 H         1 UNK         0.0832 
    147 H147      -47.0850  -24.6168    8.7584 H         1 UNK         0.3156 
    148 H148      -45.9297  -25.4136    5.4997 H         1 UNK         0.0589 
    149 H149      -44.6008  -23.9877    7.8641 H         1 UNK         0.0808 
    150 H150      -44.6616  -23.4049    6.2092 H         1 UNK         0.0808 
    151 H151      -43.7677  -24.8691    6.5848 H         1 UNK         0.0808 
    152 H152      -45.9416  -27.2470    6.6977 H         1 UNK         0.3098 
    153 H153      -44.9764  -28.5887    8.7103 H         1 UNK         0.0720 
    154 H154      -46.8420  -27.8079   11.0186 H         1 UNK         0.0791 
    155 H155      -45.0859  -27.7825   11.0607 H         1 UNK         0.0791 
    156 H156      -45.9305  -29.3123   10.8980 H         1 UNK         0.0791 
    157 H157      -47.8696  -28.8941    9.0630 H         1 UNK         0.3028 
@<TRIPOS>BOND
     1    1    2 1    
     2    1   82 1    
     3    1   83 1    
     4    1   84 1    
     5    2    3 2    
     6    2    4 am   BACKBONE|DICT|INTERRES
     7    4    5 1    
     8    4   85 1    
     9    5    6 1    
    10    5   80 1    
    11    5   86 1    
    12    6    7 1    
    13    6   87 1    
    14    6   88 1    
    15    7    8 1    
    16    8    9 1    
    17    8   89 1    
    18    8   90 1    
    19    9   10 ar   
    20    9   14 ar   
    21   10   11 ar   
    22   10   91 1    
    23   11   12 ar   
    24   11   58 1    
    25   12   13 ar   
    26   12   92 1    
    27   13   14 ar   
    28   13   15 1    
    29   14   93 1    
    30   15   16 1    
    31   15   94 1    
    32   15   95 1    
    33   16   17 1    
    34   17   18 1    
    35   17   96 1    
    36   17   97 1    
    37   18   19 1    
    38   18   22 1    
    39   18   98 1    
    40   19   20 am   BACKBONE|DICT|INTERRES
    41   19   21 2    
    42   20   99 1    
    43   20  100 1    
    44   22   23 am   BACKBONE|DICT|INTERRES
    45   22  101 1    
    46   23   24 2    
    47   23   25 1    
    48   25   26 1    
    49   25   27 1    
    50   25  102 1    
    51   26  103 1    
    52   26  104 1    
    53   26  105 1    
    54   27   28 am   BACKBONE|DICT|INTERRES
    55   27  106 1    
    56   28   29 2    
    57   28   30 1    
    58   30   31 1    
    59   30   32 1    
    60   30  107 1    
    61   31  108 1    
    62   31  109 1    
    63   31  110 1    
    64   32   33 am   BACKBONE|DICT|INTERRES
    65   32  111 1    
    66   33   34 2    
    67   33   35 1    
    68   35   36 1    
    69   35   37 1    
    70   35  112 1    
    71   36  113 1    
    72   36  114 1    
    73   36  115 1    
    74   37   38 am   BACKBONE|DICT|INTERRES
    75   37  116 1    
    76   38   39 2    
    77   38   40 1    
    78   40   41 1    
    79   40   42 1    
    80   40  117 1    
    81   41  118 1    
    82   41  119 1    
    83   41  120 1    
    84   42   43 am   BACKBONE|DICT|INTERRES
    85   42  121 1    
    86   43   44 2    
    87   43   45 1    
    88   45   46 1    
    89   45   47 1    
    90   45  122 1    
    91   46  123 1    
    92   46  124 1    
    93   46  125 1    
    94   47   48 am   BACKBONE|DICT|INTERRES
    95   47  126 1    
    96   48   49 2    
    97   48   50 1    
    98   50   51 1    
    99   50   52 1    
   100   50  127 1    
   101   51  128 1    
   102   51  129 1    
   103   51  130 1    
   104   52   53 am   BACKBONE|DICT|INTERRES
   105   52  131 1    
   106   53   54 2    
   107   53   55 1    
   108   55   56 1    
   109   55   59 1    
   110   55  132 1    
   111   56   57 1    
   112   56  133 1    
   113   56  134 1    
   114   57   58 1    
   115   58  135 1    
   116   58  136 1    
   117   59   60 am   BACKBONE|DICT|INTERRES
   118   59  137 1    
   119   60   61 2    
   120   60   62 1    
   121   62   63 1    
   122   62   64 1    
   123   62  138 1    
   124   63  139 1    
   125   63  140 1    
   126   63  141 1    
   127   64   65 am   BACKBONE|DICT|INTERRES
   128   64  142 1    
   129   65   66 2    
   130   65   67 1    
   131   67   68 1    
   132   67   69 1    
   133   67  143 1    
   134   68  144 1    
   135   68  145 1    
   136   68  146 1    
   137   69   70 am   BACKBONE|DICT|INTERRES
   138   69  147 1    
   139   70   71 2    
   140   70   72 1    
   141   72   73 1    
   142   72   74 1    
   143   72  148 1    
   144   73  149 1    
   145   73  150 1    
   146   73  151 1    
   147   74   75 am   BACKBONE|DICT|INTERRES
   148   74  152 1    
   149   75   76 2    
   150   75   77 1    
   151   77   78 1    
   152   77   79 1    
   153   77  153 1    
   154   78  154 1    
   155   78  155 1    
   156   78  156 1    
   157   79   80 am   BACKBONE|DICT|INTERRES
   158   79  157 1    
   159   80   81 2    
@<TRIPOS>SUBSTRUCTURE
     1 UNK         1 GROUP             0       ****    0 ROOT    
