@<TRIPOS>MOLECULE
3R207
157   159    1
SMALL
USER_CHARGES


@<TRIPOS>ATOM
      1 CA        -46.8069  -25.2744    4.0699 C.3       0 UNK        -0.1975 
      2 C         -47.5700  -25.8894    5.2328 C.2       0 UNK         0.4852 
      3 O         -47.5512  -25.3431    6.3361 O.2       0 UNK        -0.5216 
      4 N         -48.2264  -27.0345    5.0044 N.am      1 UNK        -0.4461 
      5 CA        -49.0776  -27.7609    5.9597 C.3       1 UNK         0.0864 
      6 C6        -50.0747  -28.7054    5.2314 C.3       14 UNK        -0.0898 
      7 S7        -50.9977  -27.9025    3.8752 S.3       14 UNK        -0.2598 
      8 C8        -52.7212  -27.9870    4.4704 C.3       14 UNK         0.0286 
      9 C9        -53.0793  -26.9957    5.5775 C.ar      14 UNK        -0.0844 
     10 C10       -52.4424  -25.7529    5.7022 C.ar      14 UNK        -0.0881 
     11 C11       -52.8367  -24.8469    6.6905 C.ar      14 UNK        -0.0643 
     12 C12       -53.8888  -25.1776    7.5475 C.ar      14 UNK        -0.0930 
     13 C13       -54.5297  -26.4141    7.4406 C.ar      14 UNK        -0.0827 
     14 C14       -54.1196  -27.3177    6.4564 C.ar      14 UNK        -0.1249 
     15 C15       -55.6730  -26.7564    8.3838 C.3       14 UNK         0.0141 
     16 S16       -55.0646  -27.1492   10.0523 S.3       14 UNK        -0.2313 
     17 C17       -54.4947  -28.8752    9.8584 C.3       14 UNK        -0.0915 
     18 CA        -55.2059  -29.8576   10.8251 C.3       13 UNK         0.0968 
     19 C         -54.6886  -31.3114   10.6176 C.2       13 UNK         0.5732 
     20 N         -54.0423  -31.9373   11.5934 N.am      13 UNK        -0.7310 
     21 O         -54.8935  -31.8870    9.5516 O.2       13 UNK        -0.5035 
     22 N         -55.1753  -29.3685   12.2137 N.am      13 UNK        -0.4233 
     23 C         -55.9586  -29.7953   13.2077 C.2       13 UNK         0.4989 
     24 O         -56.7538  -30.7302   13.0957 O.2       13 UNK        -0.4996 
     25 CA        -55.8480  -29.0308   14.5431 C.3       12 UNK         0.0216 
     26 CB        -56.7525  -29.6235   15.6409 C.3       12 UNK        -0.1964 
     27 N         -54.4785  -28.9407   15.0606 N.am      12 UNK        -0.4276 
     28 C         -53.5259  -28.1118   14.6166 C.2       12 UNK         0.5020 
     29 O         -53.6442  -27.3972   13.6176 O.2       12 UNK        -0.5489 
     30 CA        -52.2153  -28.0791   15.4201 C.3       11 UNK         0.0294 
     31 CB        -51.0648  -28.6964   14.6120 C.3       11 UNK        -0.2019 
     32 N         -51.8737  -26.7061   15.8018 N.am      11 UNK        -0.4493 
     33 C         -52.5604  -25.9848   16.7003 C.2       11 UNK         0.4932 
     34 O         -53.4959  -26.4390   17.3622 O.2       11 UNK        -0.5029 
     35 CA        -52.1345  -24.5134   16.8808 C.3       10 UNK         0.0280 
     36 CB        -52.8134  -23.8331   18.0891 C.3       10 UNK        -0.1976 
     37 N         -50.6801  -24.3229   16.9285 N.am      10 UNK        -0.4242 
     38 C         -49.8160  -24.8159   17.8264 C.2       10 UNK         0.5072 
     39 O         -50.1266  -25.5821   18.7404 O.2       10 UNK        -0.5224 
     40 CA        -48.3492  -24.3668   17.6609 C.3       9 UNK         0.0343 
     41 CB        -47.5091  -24.6270   18.9255 C.3       9 UNK        -0.2003 
     42 N         -47.6949  -25.0109   16.5199 N.am      9 UNK        -0.4272 
     43 C         -47.9473  -24.7564   15.2300 C.2       9 UNK         0.4988 
     44 O         -48.7804  -23.9316   14.8461 O.2       9 UNK        -0.5108 
     45 CA        -47.1643  -25.6015   14.2159 C.3       8 UNK         0.0248 
     46 CB        -47.7132  -27.0381   14.1818 C.3       8 UNK        -0.2001 
     47 N         -47.2619  -25.0297   12.8740 N.am      8 UNK        -0.4140 
     48 C         -46.4316  -24.1168   12.3579 C.2       8 UNK         0.5028 
     49 O         -45.4399  -23.6838   12.9476 O.2       8 UNK        -0.5428 
     50 CA        -46.7521  -23.5919   10.9497 C.3       7 UNK         0.0264 
     51 CB        -46.3377  -24.6084    9.8730 C.3       7 UNK        -0.1988 
     52 N         -48.1735  -23.2760   10.7850 N.am      7 UNK        -0.4454 
     53 C         -48.6477  -22.1134   10.3132 C.2       7 UNK         0.5027 
     54 O         -47.9268  -21.1599   10.0119 O.2       7 UNK        -0.5083 
     55 CA        -50.1762  -21.9639   10.1257 C.3       6 UNK         0.0844 
     56 C56       -50.5701  -21.9736    8.6245 C.3       14 UNK        -0.0967 
     57 S57       -50.6617  -23.6491    7.8921 S.3       14 UNK        -0.2604 
     58 C58       -52.1372  -23.5060    6.8347 C.3       14 UNK         0.0134 
     59 N         -50.9533  -22.9331   10.9009 N.am      6 UNK        -0.4116 
     60 C         -51.1330  -22.9033   12.2259 C.2       5 UNK         0.5034 
     61 O         -50.7733  -21.9673   12.9399 O.2       5 UNK        -0.5045 
     62 CA        -51.8296  -24.1173   12.8741 C.3       5 UNK         0.0224 
     63 CB        -53.2738  -23.7579   13.2606 C.3       5 UNK        -0.1978 
     64 N         -51.8565  -25.3560   12.0819 N.am      5 UNK        -0.4737 
     65 C         -50.7987  -26.0022   11.5788 C.2       4 UNK         0.5027 
     66 O         -49.6423  -25.5826   11.6320 O.2       4 UNK        -0.5211 
     67 CA        -51.0774  -27.3189   10.8599 C.3       4 UNK         0.0297 
     68 CB        -51.3131  -27.0702    9.3620 C.3       4 UNK        -0.1993 
     69 N         -49.9212  -28.1881   11.0192 N.am      4 UNK        -0.4486 
     70 C         -49.9458  -29.5232   11.0300 C.2       3 UNK         0.4961 
     71 O         -50.9791  -30.1886   10.9561 O.2       3 UNK        -0.5105 
     72 CA        -48.5742  -30.2190   11.0926 C.3       3 UNK         0.0299 
     73 CB        -48.6811  -31.7544   11.0503 C.3       3 UNK        -0.1972 
     74 N         -47.7411  -29.7693    9.9767 N.am      3 UNK        -0.4305 
     75 C         -46.9677  -28.6784    9.9774 C.2       2 UNK         0.5006 
     76 O         -46.8090  -27.9592   10.9616 O.2       2 UNK        -0.5106 
     77 CA        -46.3069  -28.2886    8.6472 C.3       2 UNK         0.0296 
     78 CB        -45.3904  -29.4026    8.1006 C.3       2 UNK        -0.2002 
     79 N         -47.2744  -27.8313    7.6415 N.am      2 UNK        -0.4032 
     80 C         -48.2438  -28.5222    7.0233 C.2       1 UNK         0.5000 
     81 O         -48.4687  -29.7153    7.2433 O.2       1 UNK        -0.5238 
     82 H82       -47.1698  -24.2650    3.8775 H         1 UNK         0.0889 
     83 H83       -46.9199  -25.8557    3.1549 H         1 UNK         0.0889 
     84 H84       -45.7449  -25.2157    4.3073 H         1 UNK         0.0889 
     85 H85       -48.1906  -27.4410    4.0803 H         1 UNK         0.3028 
     86 H86       -49.6700  -27.0208    6.5027 H         1 UNK         0.0864 
     87 H87       -50.7828  -29.1255    5.9485 H         1 UNK         0.0720 
     88 H88       -49.5456  -29.5558    4.7966 H         1 UNK         0.0720 
     89 H89       -52.9301  -29.0085    4.7924 H         1 UNK         0.0814 
     90 H90       -53.3812  -27.7948    3.6237 H         1 UNK         0.0814 
     91 H91       -51.6413  -25.4790    5.0303 H         1 UNK         0.1469 
     92 H92       -54.2001  -24.4792    8.3123 H         1 UNK         0.1381 
     93 H93       -54.6242  -28.2699    6.3641 H         1 UNK         0.1206 
     94 H94       -56.3491  -25.9028    8.4505 H         1 UNK         0.0813 
     95 H95       -56.2694  -27.5854    7.9998 H         1 UNK         0.0813 
     96 H96       -53.4192  -28.9052   10.0234 H         1 UNK         0.0638 
     97 H97       -54.6432  -29.1895    8.8242 H         1 UNK         0.0638 
     98 H98       -56.2577  -29.8821   10.5340 H         1 UNK         0.0568 
     99 H99       -53.7128  -32.8773   11.4448 H         1 UNK         0.3450 
    100 H100      -53.8613  -31.4675   12.4645 H         1 UNK         0.3450 
    101 H101      -54.5533  -28.5886   12.4072 H         1 UNK         0.2987 
    102 H102      -56.1995  -28.0157   14.3457 H         1 UNK         0.0766 
    103 H103      -56.7120  -29.0282   16.5533 H         1 UNK         0.0798 
    104 H104      -56.4663  -30.6455   15.8925 H         1 UNK         0.0798 
    105 H105      -57.7952  -29.6460   15.3208 H         1 UNK         0.0798 
    106 H106      -54.2752  -29.5129   15.8678 H         1 UNK         0.3198 
    107 H107      -52.3394  -28.6638   16.3344 H         1 UNK         0.0843 
    108 H108      -51.2988  -29.7200   14.3158 H         1 UNK         0.0831 
    109 H109      -50.1433  -28.7304   15.1930 H         1 UNK         0.0831 
    110 H110      -50.8722  -28.1340   13.7006 H         1 UNK         0.0831 
    111 H111      -51.1326  -26.2585   15.2855 H         1 UNK         0.3133 
    112 H112      -52.4759  -23.9898   15.9887 H         1 UNK         0.0566 
    113 H113      -52.5229  -22.7857   18.1703 H         1 UNK         0.0814 
    114 H114      -53.8996  -23.8593   17.9936 H         1 UNK         0.0814 
    115 H115      -52.5584  -24.3260   19.0279 H         1 UNK         0.0814 
    116 H116      -50.2736  -23.7834   16.1689 H         1 UNK         0.3091 
    117 H117      -48.3559  -23.2881   17.4884 H         1 UNK         0.0702 
    118 H118      -46.5017  -24.2230   18.8230 H         1 UNK         0.0785 
    119 H119      -47.4231  -25.6924   19.1438 H         1 UNK         0.0785 
    120 H120      -47.9595  -24.1509   19.7976 H         1 UNK         0.0785 
    121 H121      -47.0199  -25.7278   16.7445 H         1 UNK         0.2998 
    122 H122      -46.1178  -25.6329   14.5264 H         1 UNK         0.0697 
    123 H123      -47.7101  -27.4957   15.1716 H         1 UNK         0.0825 
    124 H124      -47.1074  -27.6742   13.5377 H         1 UNK         0.0825 
    125 H125      -48.7364  -27.0653   13.8099 H         1 UNK         0.0825 
    126 H126      -48.0946  -25.2894   12.3479 H         1 UNK         0.3029 
    127 H127      -46.1460  -22.6940   10.8114 H         1 UNK         0.0897 
    128 H128      -46.4160  -24.1787    8.8739 H         1 UNK         0.0792 
    129 H129      -45.3054  -24.9331   10.0100 H         1 UNK         0.0792 
    130 H130      -46.9707  -25.4950    9.9003 H         1 UNK         0.0792 
    131 H131      -48.8315  -24.0096   11.0369 H         1 UNK         0.3086 
    132 H132      -50.4226  -20.9718   10.5107 H         1 UNK         0.0583 
    133 H133      -49.8857  -21.3650    8.0298 H         1 UNK         0.1020 
    134 H134      -51.5396  -21.4846    8.5265 H         1 UNK         0.1020 
    135 H135      -52.8378  -22.7800    7.2487 H         1 UNK         0.0694 
    136 H136      -51.8424  -23.1235    5.8564 H         1 UNK         0.0694 
    137 H137      -51.2810  -23.7395   10.3891 H         1 UNK         0.2989 
    138 H138      -51.2707  -24.3360   13.7848 H         1 UNK         0.1055 
    139 H139      -53.3057  -22.8598   13.8792 H         1 UNK         0.0806 
    140 H140      -53.7449  -24.5598   13.8300 H         1 UNK         0.0806 
    141 H141      -53.8887  -23.5685   12.3799 H         1 UNK         0.0806 
    142 H142      -52.7580  -25.8139   12.0210 H         1 UNK         0.3061 
    143 H143      -51.9540  -27.7816   11.3165 H         1 UNK         0.0734 
    144 H144      -51.5187  -27.9953    8.8236 H         1 UNK         0.0832 
    145 H145      -52.1676  -26.4131    9.2146 H         1 UNK         0.0832 
    146 H146      -50.4520  -26.5942    8.8918 H         1 UNK         0.0832 
    147 H147      -49.0334  -27.7078   11.1270 H         1 UNK         0.3156 
    148 H148      -48.1058  -29.9410   12.0392 H         1 UNK         0.0589 
    149 H149      -49.1511  -32.1011   10.1290 H         1 UNK         0.0808 
    150 H150      -47.6990  -32.2219   11.1222 H         1 UNK         0.0808 
    151 H151      -49.2790  -32.1271   11.8830 H         1 UNK         0.0808 
    152 H152      -47.9214  -30.1961    9.0722 H         1 UNK         0.3098 
    153 H153      -45.6700  -27.4278    8.8560 H         1 UNK         0.0720 
    154 H154      -44.8549  -29.0689    7.2117 H         1 UNK         0.0791 
    155 H155      -45.9408  -30.3056    7.8361 H         1 UNK         0.0791 
    156 H156      -44.6416  -29.6862    8.8412 H         1 UNK         0.0791 
    157 H157      -47.2049  -26.8488    7.3814 H         1 UNK         0.3028 
@<TRIPOS>BOND
     1    1    2 1    
     2    1   82 1    
     3    1   83 1    
     4    1   84 1    
     5    2    3 2    
     6    2    4 am   BACKBONE|DICT|INTERRES
     7    4    5 1    
     8    4   85 1    
     9    5    6 1    
    10    5   80 1    
    11    5   86 1    
    12    6    7 1    
    13    6   87 1    
    14    6   88 1    
    15    7    8 1    
    16    8    9 1    
    17    8   89 1    
    18    8   90 1    
    19    9   10 ar   
    20    9   14 ar   
    21   10   11 ar   
    22   10   91 1    
    23   11   12 ar   
    24   11   58 1    
    25   12   13 ar   
    26   12   92 1    
    27   13   14 ar   
    28   13   15 1    
    29   14   93 1    
    30   15   16 1    
    31   15   94 1    
    32   15   95 1    
    33   16   17 1    
    34   17   18 1    
    35   17   96 1    
    36   17   97 1    
    37   18   19 1    
    38   18   22 1    
    39   18   98 1    
    40   19   20 am   BACKBONE|DICT|INTERRES
    41   19   21 2    
    42   20   99 1    
    43   20  100 1    
    44   22   23 am   BACKBONE|DICT|INTERRES
    45   22  101 1    
    46   23   24 2    
    47   23   25 1    
    48   25   26 1    
    49   25   27 1    
    50   25  102 1    
    51   26  103 1    
    52   26  104 1    
    53   26  105 1    
    54   27   28 am   BACKBONE|DICT|INTERRES
    55   27  106 1    
    56   28   29 2    
    57   28   30 1    
    58   30   31 1    
    59   30   32 1    
    60   30  107 1    
    61   31  108 1    
    62   31  109 1    
    63   31  110 1    
    64   32   33 am   BACKBONE|DICT|INTERRES
    65   32  111 1    
    66   33   34 2    
    67   33   35 1    
    68   35   36 1    
    69   35   37 1    
    70   35  112 1    
    71   36  113 1    
    72   36  114 1    
    73   36  115 1    
    74   37   38 am   BACKBONE|DICT|INTERRES
    75   37  116 1    
    76   38   39 2    
    77   38   40 1    
    78   40   41 1    
    79   40   42 1    
    80   40  117 1    
    81   41  118 1    
    82   41  119 1    
    83   41  120 1    
    84   42   43 am   BACKBONE|DICT|INTERRES
    85   42  121 1    
    86   43   44 2    
    87   43   45 1    
    88   45   46 1    
    89   45   47 1    
    90   45  122 1    
    91   46  123 1    
    92   46  124 1    
    93   46  125 1    
    94   47   48 am   BACKBONE|DICT|INTERRES
    95   47  126 1    
    96   48   49 2    
    97   48   50 1    
    98   50   51 1    
    99   50   52 1    
   100   50  127 1    
   101   51  128 1    
   102   51  129 1    
   103   51  130 1    
   104   52   53 am   BACKBONE|DICT|INTERRES
   105   52  131 1    
   106   53   54 2    
   107   53   55 1    
   108   55   56 1    
   109   55   59 1    
   110   55  132 1    
   111   56   57 1    
   112   56  133 1    
   113   56  134 1    
   114   57   58 1    
   115   58  135 1    
   116   58  136 1    
   117   59   60 am   BACKBONE|DICT|INTERRES
   118   59  137 1    
   119   60   61 2    
   120   60   62 1    
   121   62   63 1    
   122   62   64 1    
   123   62  138 1    
   124   63  139 1    
   125   63  140 1    
   126   63  141 1    
   127   64   65 am   BACKBONE|DICT|INTERRES
   128   64  142 1    
   129   65   66 2    
   130   65   67 1    
   131   67   68 1    
   132   67   69 1    
   133   67  143 1    
   134   68  144 1    
   135   68  145 1    
   136   68  146 1    
   137   69   70 am   BACKBONE|DICT|INTERRES
   138   69  147 1    
   139   70   71 2    
   140   70   72 1    
   141   72   73 1    
   142   72   74 1    
   143   72  148 1    
   144   73  149 1    
   145   73  150 1    
   146   73  151 1    
   147   74   75 am   BACKBONE|DICT|INTERRES
   148   74  152 1    
   149   75   76 2    
   150   75   77 1    
   151   77   78 1    
   152   77   79 1    
   153   77  153 1    
   154   78  154 1    
   155   78  155 1    
   156   78  156 1    
   157   79   80 am   BACKBONE|DICT|INTERRES
   158   79  157 1    
   159   80   81 2    
@<TRIPOS>SUBSTRUCTURE
     1 UNK         1 GROUP             0       ****    0 ROOT    
