@<TRIPOS>MOLECULE
3R207
157   159    1
SMALL
USER_CHARGES


@<TRIPOS>ATOM
      1 CA        -49.4647  -32.1605    6.0402 C.3       0 UNK        -0.1975 
      2 C         -49.5358  -30.6487    5.8892 C.2       0 UNK         0.4852 
      3 O         -49.2001  -29.9282    6.8284 O.2       0 UNK        -0.5216 
      4 N         -49.9558  -30.1679    4.7103 N.am      1 UNK        -0.4461 
      5 CA        -50.1631  -28.7642    4.3088 C.3       1 UNK         0.0864 
      6 C6        -51.1718  -27.9811    5.1901 C.3       14 UNK        -0.0898 
      7 S7        -52.7942  -28.7961    5.3825 S.3       14 UNK        -0.2598 
      8 C8        -52.8981  -28.9699    7.2004 C.3       14 UNK         0.0286 
      9 C9        -53.3885  -27.7246    7.9457 C.ar      14 UNK        -0.0844 
     10 C10       -53.0898  -26.4251    7.5171 C.ar      14 UNK        -0.0881 
     11 C11       -53.5236  -25.3075    8.2356 C.ar      14 UNK        -0.0643 
     12 C12       -54.2632  -25.4931    9.4072 C.ar      14 UNK        -0.0930 
     13 C13       -54.5821  -26.7826    9.8458 C.ar      14 UNK        -0.0827 
     14 C14       -54.1433  -27.8876    9.1112 C.ar      14 UNK        -0.1249 
     15 C15       -55.4267  -26.9845   11.0949 C.3       14 UNK         0.0141 
     16 S16       -54.4069  -27.4611   12.5256 S.3       14 UNK        -0.2313 
     17 C17       -54.9704  -29.1609   12.9002 C.3       14 UNK        -0.0915 
     18 CA        -53.8254  -30.2090   12.9287 C.3       13 UNK         0.0968 
     19 C         -53.3992  -30.6561   11.4985 C.2       13 UNK         0.5732 
     20 N         -52.1626  -30.4397   11.0685 N.am      13 UNK        -0.7310 
     21 O         -54.2065  -31.2313   10.7724 O.2       13 UNK        -0.5035 
     22 N         -52.7383  -29.7876   13.8263 N.am      13 UNK        -0.4233 
     23 C         -51.7520  -30.5694   14.2801 C.2       13 UNK         0.4989 
     24 O         -51.6452  -31.7693   14.0250 O.2       13 UNK        -0.4996 
     25 CA        -50.7050  -29.8890   15.1746 C.3       12 UNK         0.0216 
     26 CB        -49.7226  -29.0623   14.3306 C.3       12 UNK        -0.1964 
     27 N         -51.3105  -29.0466   16.2109 N.am      12 UNK        -0.4276 
     28 C         -51.9747  -29.5306   17.2698 C.2       12 UNK         0.5020 
     29 O         -52.1072  -30.7324   17.5069 O.2       12 UNK        -0.5489 
     30 CA        -52.5977  -28.5071   18.2330 C.3       11 UNK         0.0294 
     31 CB        -51.5318  -27.9299   19.1793 C.3       11 UNK        -0.2019 
     32 N         -53.3039  -27.4124   17.5617 N.am      11 UNK        -0.4493 
     33 C         -54.3997  -27.5499   16.7998 C.2       11 UNK         0.4932 
     34 O         -54.9052  -28.6388   16.5306 O.2       11 UNK        -0.5029 
     35 CA        -55.0783  -26.2663   16.2769 C.3       10 UNK         0.0280 
     36 CB        -56.5496  -26.2167   16.7236 C.3       10 UNK        -0.1976 
     37 N         -54.4173  -25.0374   16.7323 N.am      10 UNK        -0.4242 
     38 C         -53.3976  -24.3828   16.1591 C.2       10 UNK         0.5072 
     39 O         -52.9217  -23.3722   16.6778 O.2       10 UNK        -0.5224 
     40 CA        -52.8265  -24.8685   14.8101 C.3       9 UNK         0.0343 
     41 CB        -53.5537  -24.1748   13.6472 C.3       9 UNK        -0.2003 
     42 N         -51.3911  -24.5961   14.7220 N.am      9 UNK        -0.4272 
     43 C         -50.4630  -25.2751   15.4106 C.2       9 UNK         0.4988 
     44 O         -50.7365  -26.2573   16.1049 O.2       9 UNK        -0.5108 
     45 CA        -48.9987  -24.7983   15.3281 C.3       8 UNK         0.0248 
     46 CB        -48.0051  -25.9723   15.3533 C.3       8 UNK        -0.2001 
     47 N         -48.7283  -23.9805   14.1441 N.am      8 UNK        -0.4140 
     48 C         -48.7670  -22.6424   14.1073 C.2       8 UNK         0.5028 
     49 O         -49.0213  -21.9341   15.0818 O.2       8 UNK        -0.5428 
     50 CA        -48.5057  -21.9806   12.7437 C.3       7 UNK         0.0264 
     51 CB        -46.9969  -21.8730   12.4722 C.3       7 UNK        -0.1988 
     52 N         -49.1573  -22.6793   11.6324 N.am      7 UNK        -0.4454 
     53 C         -50.4852  -22.8029   11.4834 C.2       7 UNK         0.5027 
     54 O         -51.3044  -22.3142   12.2609 O.2       7 UNK        -0.5083 
     55 CA        -50.9801  -23.6106   10.2685 C.3       6 UNK         0.0844 
     56 C56       -51.0157  -22.7149    9.0062 C.3       14 UNK        -0.0967 
     57 S57       -51.4541  -23.5993    7.4731 S.3       14 UNK        -0.2604 
     58 C58       -53.2364  -23.9070    7.7051 C.3       14 UNK         0.0134 
     59 N         -50.1877  -24.8259   10.0871 N.am      6 UNK        -0.4116 
     60 C         -50.2352  -25.8955   10.8924 C.2       5 UNK         0.5034 
     61 O         -50.9852  -26.0064   11.8596 O.2       5 UNK        -0.5045 
     62 CA        -49.2354  -27.0194   10.5903 C.3       5 UNK         0.0224 
     63 CB        -49.8114  -27.9799    9.5392 C.3       5 UNK        -0.1978 
     64 N         -47.9370  -26.5017   10.1467 N.am      5 UNK        -0.4737 
     65 C         -47.0987  -25.8179   10.9420 C.2       4 UNK         0.5027 
     66 O         -47.3236  -25.5885   12.1293 O.2       4 UNK        -0.5211 
     67 CA        -45.8162  -25.2531   10.3062 C.3       4 UNK         0.0297 
     68 CB        -44.6886  -26.2956   10.3594 C.3       4 UNK        -0.1993 
     69 N         -45.9992  -24.8032    8.9256 N.am      4 UNK        -0.4486 
     70 C         -46.8523  -23.8481    8.5282 C.2       3 UNK         0.4961 
     71 O         -47.5411  -23.1818    9.3009 O.2       3 UNK        -0.5105 
     72 CA        -46.9984  -23.6334    7.0095 C.3       3 UNK         0.0299 
     73 CB        -46.1168  -22.4629    6.5476 C.3       3 UNK        -0.1972 
     74 N         -46.6962  -24.8249    6.2021 N.am      3 UNK        -0.4305 
     75 C         -47.3513  -25.9906    6.2947 C.2       2 UNK         0.5006 
     76 O         -48.2641  -26.1956    7.0980 O.2       2 UNK        -0.5106 
     77 CA        -46.8594  -27.1358    5.3967 C.3       2 UNK         0.0296 
     78 CB        -45.7188  -27.9011    6.0879 C.3       2 UNK        -0.2002 
     79 N         -47.9648  -28.0581    5.1553 N.am      2 UNK        -0.4032 
     80 C         -48.8658  -27.9370    4.1758 C.2       1 UNK         0.5000 
     81 O         -48.7273  -27.1827    3.2105 O.2       1 UNK        -0.5238 
     82 H82       -50.1041  -32.4835    6.8612 H         1 UNK         0.0889 
     83 H83       -48.4430  -32.4670    6.2627 H         1 UNK         0.0889 
     84 H84       -49.7859  -32.6776    5.1363 H         1 UNK         0.0889 
     85 H85       -50.1836  -30.8349    3.9859 H         1 UNK         0.3028 
     86 H86       -50.5891  -28.8193    3.3056 H         1 UNK         0.0864 
     87 H87       -51.3573  -26.9993    4.7498 H         1 UNK         0.0720 
     88 H88       -50.7425  -27.7878    6.1751 H         1 UNK         0.0720 
     89 H89       -51.9268  -29.2658    7.5986 H         1 UNK         0.0814 
     90 H90       -53.5727  -29.8024    7.4066 H         1 UNK         0.0814 
     91 H91       -52.5210  -26.2607    6.6168 H         1 UNK         0.1469 
     92 H92       -54.6081  -24.6350    9.9675 H         1 UNK         0.1381 
     93 H93       -54.3930  -28.8816    9.4529 H         1 UNK         0.1206 
     94 H94       -56.2014  -27.7255   10.8965 H         1 UNK         0.0813 
     95 H95       -55.9556  -26.0637   11.3449 H         1 UNK         0.0813 
     96 H96       -55.7583  -29.4692   12.2119 H         1 UNK         0.0638 
     97 H97       -55.4477  -29.1285   13.8804 H         1 UNK         0.0638 
     98 H98       -54.2459  -31.1098   13.3793 H         1 UNK         0.0568 
     99 H99       -51.8995  -30.7560   10.1502 H         1 UNK         0.3450 
    100 H100      -51.4942  -29.9769   11.6600 H         1 UNK         0.3450 
    101 H101      -52.7393  -28.8100   14.0744 H         1 UNK         0.2987 
    102 H102      -50.1355  -30.6789   15.6693 H         1 UNK         0.0766 
    103 H103      -48.8798  -28.7362   14.9381 H         1 UNK         0.0798 
    104 H104      -50.1945  -28.1780   13.8992 H         1 UNK         0.0798 
    105 H105      -49.3137  -29.6522   13.5090 H         1 UNK         0.0798 
    106 H106      -51.1953  -28.0366   16.1282 H         1 UNK         0.3198 
    107 H107      -53.3317  -29.0407   18.8409 H         1 UNK         0.0843 
    108 H108      -50.7841  -27.3458   18.6412 H         1 UNK         0.0831 
    109 H109      -51.9791  -27.2866   19.9371 H         1 UNK         0.0831 
    110 H110      -51.0045  -28.7276   19.7045 H         1 UNK         0.0831 
    111 H111      -52.9356  -26.4837   17.7081 H         1 UNK         0.3133 
    112 H112      -55.0815  -26.3101   15.1883 H         1 UNK         0.0566 
    113 H113      -57.0522  -25.3296   16.3372 H         1 UNK         0.0814 
    114 H114      -57.1018  -27.0821   16.3541 H         1 UNK         0.0814 
    115 H115      -56.6437  -26.2105   17.8103 H         1 UNK         0.0814 
    116 H116      -54.7663  -24.6668   17.6047 H         1 UNK         0.3091 
    117 H117      -52.9483  -25.9465   14.7072 H         1 UNK         0.0702 
    118 H118      -53.4535  -23.0900   13.6979 H         1 UNK         0.0785 
    119 H119      -54.6197  -24.4042   13.6578 H         1 UNK         0.0785 
    120 H120      -53.1640  -24.5057   12.6844 H         1 UNK         0.0785 
    121 H121      -51.1128  -23.7922   14.1765 H         1 UNK         0.2998 
    122 H122      -48.8217  -24.2059   16.2278 H         1 UNK         0.0697 
    123 H123      -48.1144  -26.6024   14.4714 H         1 UNK         0.0825 
    124 H124      -48.1488  -26.6009   16.2330 H         1 UNK         0.0825 
    125 H125      -46.9754  -25.6157   15.3776 H         1 UNK         0.0825 
    126 H126      -48.4660  -24.4868   13.3019 H         1 UNK         0.3029 
    127 H127      -48.9173  -20.9697   12.7827 H         1 UNK         0.0897 
    128 H128      -46.7974  -21.3710   11.5251 H         1 UNK         0.0792 
    129 H129      -46.5004  -21.2991   13.2557 H         1 UNK         0.0792 
    130 H130      -46.5233  -22.8541   12.4379 H         1 UNK         0.0792 
    131 H131      -48.5504  -23.0481   10.9032 H         1 UNK         0.3086 
    132 H132      -52.0042  -23.9213   10.4840 H         1 UNK         0.0583 
    133 H133      -51.7157  -21.8888    9.1459 H         1 UNK         0.1020 
    134 H134      -50.0417  -22.2510    8.8381 H         1 UNK         0.1020 
    135 H135      -53.6659  -23.1429    8.3546 H         1 UNK         0.0694 
    136 H136      -53.7325  -23.7982    6.7398 H         1 UNK         0.0694 
    137 H137      -49.5391  -24.8298    9.3128 H         1 UNK         0.2989 
    138 H138      -49.0796  -27.5775   11.5163 H         1 UNK         0.1055 
    139 H139      -49.9695  -27.4877    8.5796 H         1 UNK         0.0806 
    140 H140      -50.7799  -28.3659    9.8568 H         1 UNK         0.0806 
    141 H141      -49.1548  -28.8342    9.3750 H         1 UNK         0.0806 
    142 H142      -47.7271  -26.5867    9.1586 H         1 UNK         0.3061 
    143 H143      -45.5082  -24.3874   10.8951 H         1 UNK         0.0734 
    144 H144      -43.7471  -25.8830    9.9966 H         1 UNK         0.0832 
    145 H145      -44.5189  -26.6323   11.3833 H         1 UNK         0.0832 
    146 H146      -44.9234  -27.1776    9.7618 H         1 UNK         0.0832 
    147 H147      -45.4736  -25.2899    8.2150 H         1 UNK         0.3156 
    148 H148      -48.0417  -23.3689    6.8229 H         1 UNK         0.0589 
    149 H149      -45.0558  -22.6778    6.6810 H         1 UNK         0.0808 
    150 H150      -46.2843  -22.2293    5.4960 H         1 UNK         0.0808 
    151 H151      -46.3399  -21.5591    7.1168 H         1 UNK         0.0808 
    152 H152      -45.9482  -24.7382    5.5283 H         1 UNK         0.3098 
    153 H153      -46.4980  -26.7277    4.4505 H         1 UNK         0.0720 
    154 H154      -45.3733  -28.7328    5.4735 H         1 UNK         0.0791 
    155 H155      -46.0302  -28.3064    7.0520 H         1 UNK         0.0791 
    156 H156      -44.8597  -27.2531    6.2661 H         1 UNK         0.0791 
    157 H157      -48.2290  -28.6609    5.9331 H         1 UNK         0.3028 
@<TRIPOS>BOND
     1    1    2 1    
     2    1   82 1    
     3    1   83 1    
     4    1   84 1    
     5    2    3 2    
     6    2    4 am   BACKBONE|DICT|INTERRES
     7    4    5 1    
     8    4   85 1    
     9    5    6 1    
    10    5   80 1    
    11    5   86 1    
    12    6    7 1    
    13    6   87 1    
    14    6   88 1    
    15    7    8 1    
    16    8    9 1    
    17    8   89 1    
    18    8   90 1    
    19    9   10 ar   
    20    9   14 ar   
    21   10   11 ar   
    22   10   91 1    
    23   11   12 ar   
    24   11   58 1    
    25   12   13 ar   
    26   12   92 1    
    27   13   14 ar   
    28   13   15 1    
    29   14   93 1    
    30   15   16 1    
    31   15   94 1    
    32   15   95 1    
    33   16   17 1    
    34   17   18 1    
    35   17   96 1    
    36   17   97 1    
    37   18   19 1    
    38   18   22 1    
    39   18   98 1    
    40   19   20 am   BACKBONE|DICT|INTERRES
    41   19   21 2    
    42   20   99 1    
    43   20  100 1    
    44   22   23 am   BACKBONE|DICT|INTERRES
    45   22  101 1    
    46   23   24 2    
    47   23   25 1    
    48   25   26 1    
    49   25   27 1    
    50   25  102 1    
    51   26  103 1    
    52   26  104 1    
    53   26  105 1    
    54   27   28 am   BACKBONE|DICT|INTERRES
    55   27  106 1    
    56   28   29 2    
    57   28   30 1    
    58   30   31 1    
    59   30   32 1    
    60   30  107 1    
    61   31  108 1    
    62   31  109 1    
    63   31  110 1    
    64   32   33 am   BACKBONE|DICT|INTERRES
    65   32  111 1    
    66   33   34 2    
    67   33   35 1    
    68   35   36 1    
    69   35   37 1    
    70   35  112 1    
    71   36  113 1    
    72   36  114 1    
    73   36  115 1    
    74   37   38 am   BACKBONE|DICT|INTERRES
    75   37  116 1    
    76   38   39 2    
    77   38   40 1    
    78   40   41 1    
    79   40   42 1    
    80   40  117 1    
    81   41  118 1    
    82   41  119 1    
    83   41  120 1    
    84   42   43 am   BACKBONE|DICT|INTERRES
    85   42  121 1    
    86   43   44 2    
    87   43   45 1    
    88   45   46 1    
    89   45   47 1    
    90   45  122 1    
    91   46  123 1    
    92   46  124 1    
    93   46  125 1    
    94   47   48 am   BACKBONE|DICT|INTERRES
    95   47  126 1    
    96   48   49 2    
    97   48   50 1    
    98   50   51 1    
    99   50   52 1    
   100   50  127 1    
   101   51  128 1    
   102   51  129 1    
   103   51  130 1    
   104   52   53 am   BACKBONE|DICT|INTERRES
   105   52  131 1    
   106   53   54 2    
   107   53   55 1    
   108   55   56 1    
   109   55   59 1    
   110   55  132 1    
   111   56   57 1    
   112   56  133 1    
   113   56  134 1    
   114   57   58 1    
   115   58  135 1    
   116   58  136 1    
   117   59   60 am   BACKBONE|DICT|INTERRES
   118   59  137 1    
   119   60   61 2    
   120   60   62 1    
   121   62   63 1    
   122   62   64 1    
   123   62  138 1    
   124   63  139 1    
   125   63  140 1    
   126   63  141 1    
   127   64   65 am   BACKBONE|DICT|INTERRES
   128   64  142 1    
   129   65   66 2    
   130   65   67 1    
   131   67   68 1    
   132   67   69 1    
   133   67  143 1    
   134   68  144 1    
   135   68  145 1    
   136   68  146 1    
   137   69   70 am   BACKBONE|DICT|INTERRES
   138   69  147 1    
   139   70   71 2    
   140   70   72 1    
   141   72   73 1    
   142   72   74 1    
   143   72  148 1    
   144   73  149 1    
   145   73  150 1    
   146   73  151 1    
   147   74   75 am   BACKBONE|DICT|INTERRES
   148   74  152 1    
   149   75   76 2    
   150   75   77 1    
   151   77   78 1    
   152   77   79 1    
   153   77  153 1    
   154   78  154 1    
   155   78  155 1    
   156   78  156 1    
   157   79   80 am   BACKBONE|DICT|INTERRES
   158   79  157 1    
   159   80   81 2    
@<TRIPOS>SUBSTRUCTURE
     1 UNK         1 GROUP             0       ****    0 ROOT    
