@<TRIPOS>MOLECULE
3R207
157   159    1
SMALL
USER_CHARGES


@<TRIPOS>ATOM
      1 CA        -49.0174  -23.9433    3.2976 C.3       0 UNK        -0.1975 
      2 C         -48.9454  -24.5966    4.6691 C.2       0 UNK         0.4852 
      3 O         -47.8513  -24.7470    5.2131 O.2       0 UNK        -0.5216 
      4 N         -50.1047  -24.9624    5.2387 N.am      1 UNK        -0.4461 
      5 CA        -50.2763  -25.6653    6.5215 C.3       1 UNK         0.0864 
      6 C6        -49.9387  -27.1792    6.4260 C.3       14 UNK        -0.0898 
      7 S7        -51.1026  -28.0533    5.3236 S.3       14 UNK        -0.2598 
      8 C8        -51.4417  -29.5987    6.2456 C.3       14 UNK         0.0286 
      9 C9        -52.2589  -29.4744    7.5375 C.ar      14 UNK        -0.0844 
     10 C10       -52.7531  -28.2543    8.0210 C.ar      14 UNK        -0.0881 
     11 C11       -53.4665  -28.1938    9.2209 C.ar      14 UNK        -0.0643 
     12 C12       -53.7217  -29.3699    9.9244 C.ar      14 UNK        -0.0930 
     13 C13       -53.2580  -30.5988    9.4525 C.ar      14 UNK        -0.0827 
     14 C14       -52.5219  -30.6425    8.2643 C.ar      14 UNK        -0.1249 
     15 C15       -53.5606  -31.8673   10.2363 C.3       14 UNK         0.0141 
     16 S16       -55.3364  -32.2639   10.1541 S.3       14 UNK        -0.2313 
     17 C17       -55.6998  -32.8309   11.8502 C.3       14 UNK        -0.0915 
     18 CA        -56.2975  -31.6938   12.7358 C.3       13 UNK         0.0968 
     19 C         -57.0664  -32.2095   13.9936 C.2       13 UNK         0.5732 
     20 N         -57.1518  -31.4390   15.0738 N.am      13 UNK        -0.7310 
     21 O         -57.6259  -33.3038   13.9855 O.2       13 UNK        -0.5035 
     22 N         -55.3277  -30.6241   13.0319 N.am      13 UNK        -0.4233 
     23 C         -54.2387  -30.7440   13.8060 C.2       13 UNK         0.4989 
     24 O         -53.8500  -31.8099   14.2849 O.2       13 UNK        -0.4996 
     25 CA        -53.4414  -29.4636   14.1200 C.3       12 UNK         0.0216 
     26 CB        -52.1140  -29.4560   13.3463 C.3       12 UNK        -0.1964 
     27 N         -54.1514  -28.1977   13.8882 N.am      12 UNK        -0.4276 
     28 C         -55.2682  -27.8074   14.5199 C.2       12 UNK         0.5020 
     29 O         -55.8775  -28.5130   15.3269 O.2       12 UNK        -0.5489 
     30 CA        -55.7597  -26.3883   14.2021 C.3       11 UNK         0.0294 
     31 CB        -57.0418  -26.0014   14.9648 C.3       11 UNK        -0.2019 
     32 N         -54.6913  -25.4422   14.5121 N.am      11 UNK        -0.4493 
     33 C         -54.4385  -24.2994   13.8680 C.2       11 UNK         0.4932 
     34 O         -55.1339  -23.8765   12.9438 O.2       11 UNK        -0.5029 
     35 CA        -53.2023  -23.4816   14.2983 C.3       10 UNK         0.0280 
     36 CB        -53.6135  -22.3107   15.2119 C.3       10 UNK        -0.1976 
     37 N         -52.0867  -24.2413   14.8891 N.am      10 UNK        -0.4242 
     38 C         -52.0481  -24.9210   16.0463 C.2       10 UNK         0.5072 
     39 O         -53.0267  -25.0975   16.7723 O.2       10 UNK        -0.5224 
     40 CA        -50.6988  -25.5293   16.4638 C.3       9 UNK         0.0343 
     41 CB        -50.5218  -26.9212   15.8391 C.3       9 UNK        -0.2003 
     42 N         -49.5443  -24.6996   16.1181 N.am      9 UNK        -0.4272 
     43 C         -49.2681  -23.4828   16.6044 C.2       9 UNK         0.4988 
     44 O         -49.9619  -22.9133   17.4472 O.2       9 UNK        -0.5108 
     45 CA        -48.0142  -22.7630   16.0630 C.3       8 UNK         0.0248 
     46 CB        -46.7847  -23.0545   16.9461 C.3       8 UNK        -0.2001 
     47 N         -47.7277  -23.0022   14.6378 N.am      8 UNK        -0.4140 
     48 C         -47.3773  -24.1474   14.0351 C.2       8 UNK         0.5028 
     49 O         -47.1779  -25.2105   14.6274 O.2       8 UNK        -0.5428 
     50 CA        -47.3095  -24.1190   12.5004 C.3       7 UNK         0.0264 
     51 CB        -45.8581  -24.2835   12.0226 C.3       7 UNK        -0.1988 
     52 N         -48.1546  -25.1630   11.9074 N.am      7 UNK        -0.4454 
     53 C         -49.4840  -25.2601   12.0897 C.2       7 UNK         0.5027 
     54 O         -50.1286  -24.4586   12.7707 O.2       7 UNK        -0.5083 
     55 CA        -50.2475  -26.4182   11.4127 C.3       6 UNK         0.0844 
     56 C56       -51.4264  -25.8996   10.5380 C.3       14 UNK        -0.0967 
     57 S57       -53.0507  -26.3351   11.2402 S.3       14 UNK        -0.2604 
     58 C58       -53.9732  -26.8644    9.7609 C.3       14 UNK         0.0134 
     59 N         -49.3605  -27.2973   10.6488 N.am      6 UNK        -0.4116 
     60 C         -48.8771  -28.4663   11.0854 C.2       5 UNK         0.5034 
     61 O         -49.0968  -28.9271   12.2051 O.2       5 UNK        -0.5045 
     62 CA        -47.9966  -29.2766   10.1164 C.3       5 UNK         0.0224 
     63 CB        -48.8544  -30.3202    9.3829 C.3       5 UNK        -0.1978 
     64 N         -47.2403  -28.4993    9.1255 N.am      5 UNK        -0.4737 
     65 C         -46.3667  -27.5208    9.3985 C.2       4 UNK         0.5027 
     66 O         -46.2005  -27.0563   10.5252 O.2       4 UNK        -0.5211 
     67 CA        -45.5260  -26.9709    8.2379 C.3       4 UNK         0.0297 
     68 CB        -45.6708  -27.7413    6.9086 C.3       4 UNK        -0.1993 
     69 N         -45.8633  -25.5667    8.0305 N.am      4 UNK        -0.4486 
     70 C         -44.9858  -24.6021    7.7208 C.2       3 UNK         0.4961 
     71 O         -43.7746  -24.7994    7.6101 O.2       3 UNK        -0.5105 
     72 CA        -45.5244  -23.1789    7.4754 C.3       3 UNK         0.0299 
     73 CB        -45.1579  -22.6910    6.0625 C.3       3 UNK        -0.1972 
     74 N         -46.9770  -23.1023    7.6371 N.am      3 UNK        -0.4305 
     75 C         -47.6008  -22.6438    8.7316 C.2       2 UNK         0.5006 
     76 O         -47.0132  -22.1363    9.6865 O.2       2 UNK        -0.5106 
     77 CA        -49.1372  -22.7615    8.7946 C.3       2 UNK         0.0296 
     78 CB        -49.7894  -21.3721    8.7042 C.3       2 UNK        -0.2002 
     79 N         -49.7349  -23.6329    7.7779 N.am      2 UNK        -0.4032 
     80 C         -49.5483  -24.9566    7.6843 C.2       1 UNK         0.5000 
     81 O         -48.8177  -25.5929    8.4467 O.2       1 UNK        -0.5238 
     82 H82       -50.0428  -23.8572    2.9388 H         1 UNK         0.0889 
     83 H83       -48.4531  -24.5316    2.5746 H         1 UNK         0.0889 
     84 H84       -48.5848  -22.9440    3.3356 H         1 UNK         0.0889 
     85 H85       -50.9621  -24.7998    4.7284 H         1 UNK         0.3028 
     86 H86       -51.3347  -25.5758    6.7675 H         1 UNK         0.0864 
     87 H87       -48.9257  -27.3250    6.0511 H         1 UNK         0.0720 
     88 H88       -49.9723  -27.6515    7.4092 H         1 UNK         0.0720 
     89 H89       -50.4900  -30.0830    6.4680 H         1 UNK         0.0814 
     90 H90       -51.9737  -30.2726    5.5727 H         1 UNK         0.0814 
     91 H91       -52.5887  -27.3408    7.4737 H         1 UNK         0.1469 
     92 H92       -54.2878  -29.3266   10.8424 H         1 UNK         0.1381 
     93 H93       -52.1548  -31.5923    7.8993 H         1 UNK         0.1206 
     94 H94       -52.9890  -32.7127    9.8509 H         1 UNK         0.0813 
     95 H95       -53.2428  -31.7299   11.2694 H         1 UNK         0.0813 
     96 H96       -56.4129  -33.6498   11.7440 H         1 UNK         0.0638 
     97 H97       -54.8106  -33.2713   12.3025 H         1 UNK         0.0638 
     98 H98       -57.0791  -31.2132   12.1467 H         1 UNK         0.0568 
     99 H99       -56.7110  -30.5275   15.1007 H         1 UNK         0.3450 
    100 H100      -57.6604  -31.7739   15.8763 H         1 UNK         0.3450 
    101 H101      -55.5859  -29.7028   12.7149 H         1 UNK         0.2987 
    102 H102      -53.2051  -29.5054   15.1854 H         1 UNK         0.0766 
    103 H103      -51.5734  -30.3948   13.4751 H         1 UNK         0.0798 
    104 H104      -51.4564  -28.6663   13.7017 H         1 UNK         0.0798 
    105 H105      -52.2579  -29.3110   12.2766 H         1 UNK         0.0798 
    106 H106      -53.7279  -27.5541   13.2308 H         1 UNK         0.3198 
    107 H107      -55.9721  -26.3599   13.1309 H         1 UNK         0.0843 
    108 H108      -56.8838  -26.0066   16.0439 H         1 UNK         0.0831 
    109 H109      -57.8516  -26.6992   14.7481 H         1 UNK         0.0831 
    110 H110      -57.3870  -25.0070   14.6814 H         1 UNK         0.0831 
    111 H111      -54.1055  -25.6634   15.3138 H         1 UNK         0.3133 
    112 H112      -52.7939  -23.0524   13.3819 H         1 UNK         0.0566 
    113 H113      -52.7597  -21.6773   15.4529 H         1 UNK         0.0814 
    114 H114      -54.3587  -21.6800   14.7254 H         1 UNK         0.0814 
    115 H115      -54.0477  -22.6594   16.1495 H         1 UNK         0.0814 
    116 H116      -51.2433  -24.2445   14.3188 H         1 UNK         0.3091 
    117 H117      -50.7125  -25.6402   17.5500 H         1 UNK         0.0702 
    118 H118      -51.3796  -27.5612   16.0511 H         1 UNK         0.0785 
    119 H119      -49.6380  -27.4227   16.2340 H         1 UNK         0.0785 
    120 H120      -50.4125  -26.8599   14.7563 H         1 UNK         0.0785 
    121 H121      -48.8674  -25.0939   15.4698 H         1 UNK         0.2998 
    122 H122      -48.2208  -21.6943   16.1393 H         1 UNK         0.0697 
    123 H123      -46.5249  -24.1134   16.9508 H         1 UNK         0.0825 
    124 H124      -46.9735  -22.7654   17.9808 H         1 UNK         0.0825 
    125 H125      -45.9118  -22.4962   16.6081 H         1 UNK         0.0825 
    126 H126      -47.9027  -22.2050   14.0410 H         1 UNK         0.3029 
    127 H127      -47.6815  -23.1570   12.1423 H         1 UNK         0.0897 
    128 H128      -45.7927  -24.2767   10.9346 H         1 UNK         0.0792 
    129 H129      -45.4211  -25.2181   12.3769 H         1 UNK         0.0792 
    130 H130      -45.2321  -23.4696   12.3899 H         1 UNK         0.0792 
    131 H131      -47.6713  -25.8847   11.3818 H         1 UNK         0.3086 
    132 H132      -50.6623  -26.9905   12.2427 H         1 UNK         0.0583 
    133 H133      -51.4015  -24.8173   10.3929 H         1 UNK         0.1020 
    134 H134      -51.3672  -26.3173    9.5344 H         1 UNK         0.1020 
    135 H135      -55.0279  -26.9624   10.0221 H         1 UNK         0.0694 
    136 H136      -53.9183  -26.0835    9.0009 H         1 UNK         0.0694 
    137 H137      -49.0674  -26.9473    9.7404 H         1 UNK         0.2989 
    138 H138      -47.2649  -29.8067   10.7298 H         1 UNK         0.1055 
    139 H139      -49.5889  -29.8451    8.7333 H         1 UNK         0.0806 
    140 H140      -49.4052  -30.9428   10.0899 H         1 UNK         0.0806 
    141 H141      -48.2436  -30.9872    8.7744 H         1 UNK         0.0806 
    142 H142      -47.3192  -28.8018    8.1658 H         1 UNK         0.3061 
    143 H143      -44.4873  -27.0551    8.5643 H         1 UNK         0.0734 
    144 H144      -44.9787  -27.3542    6.1605 H         1 UNK         0.0832 
    145 H145      -45.4404  -28.8003    7.0327 H         1 UNK         0.0832 
    146 H146      -46.6745  -27.6565    6.4936 H         1 UNK         0.0832 
    147 H147      -46.8440  -25.3338    8.1546 H         1 UNK         0.3156 
    148 H148      -45.0294  -22.5219    8.1933 H         1 UNK         0.0589 
    149 H149      -45.5685  -23.3420    5.2900 H         1 UNK         0.0808 
    150 H150      -45.5282  -21.6816    5.8827 H         1 UNK         0.0808 
    151 H151      -44.0762  -22.6666    5.9247 H         1 UNK         0.0808 
    152 H152      -47.5206  -23.5275    6.8930 H         1 UNK         0.3098 
    153 H153      -49.3777  -23.1843    9.7720 H         1 UNK         0.0720 
    154 H154      -49.3993  -20.7051    9.4745 H         1 UNK         0.0791 
    155 H155      -50.8687  -21.4290    8.8474 H         1 UNK         0.0791 
    156 H156      -49.6008  -20.9000    7.7391 H         1 UNK         0.0791 
    157 H157      -50.3251  -23.1842    7.0916 H         1 UNK         0.3028 
@<TRIPOS>BOND
     1    1    2 1    
     2    1   82 1    
     3    1   83 1    
     4    1   84 1    
     5    2    3 2    
     6    2    4 am   BACKBONE|DICT|INTERRES
     7    4    5 1    
     8    4   85 1    
     9    5    6 1    
    10    5   80 1    
    11    5   86 1    
    12    6    7 1    
    13    6   87 1    
    14    6   88 1    
    15    7    8 1    
    16    8    9 1    
    17    8   89 1    
    18    8   90 1    
    19    9   10 ar   
    20    9   14 ar   
    21   10   11 ar   
    22   10   91 1    
    23   11   12 ar   
    24   11   58 1    
    25   12   13 ar   
    26   12   92 1    
    27   13   14 ar   
    28   13   15 1    
    29   14   93 1    
    30   15   16 1    
    31   15   94 1    
    32   15   95 1    
    33   16   17 1    
    34   17   18 1    
    35   17   96 1    
    36   17   97 1    
    37   18   19 1    
    38   18   22 1    
    39   18   98 1    
    40   19   20 am   BACKBONE|DICT|INTERRES
    41   19   21 2    
    42   20   99 1    
    43   20  100 1    
    44   22   23 am   BACKBONE|DICT|INTERRES
    45   22  101 1    
    46   23   24 2    
    47   23   25 1    
    48   25   26 1    
    49   25   27 1    
    50   25  102 1    
    51   26  103 1    
    52   26  104 1    
    53   26  105 1    
    54   27   28 am   BACKBONE|DICT|INTERRES
    55   27  106 1    
    56   28   29 2    
    57   28   30 1    
    58   30   31 1    
    59   30   32 1    
    60   30  107 1    
    61   31  108 1    
    62   31  109 1    
    63   31  110 1    
    64   32   33 am   BACKBONE|DICT|INTERRES
    65   32  111 1    
    66   33   34 2    
    67   33   35 1    
    68   35   36 1    
    69   35   37 1    
    70   35  112 1    
    71   36  113 1    
    72   36  114 1    
    73   36  115 1    
    74   37   38 am   BACKBONE|DICT|INTERRES
    75   37  116 1    
    76   38   39 2    
    77   38   40 1    
    78   40   41 1    
    79   40   42 1    
    80   40  117 1    
    81   41  118 1    
    82   41  119 1    
    83   41  120 1    
    84   42   43 am   BACKBONE|DICT|INTERRES
    85   42  121 1    
    86   43   44 2    
    87   43   45 1    
    88   45   46 1    
    89   45   47 1    
    90   45  122 1    
    91   46  123 1    
    92   46  124 1    
    93   46  125 1    
    94   47   48 am   BACKBONE|DICT|INTERRES
    95   47  126 1    
    96   48   49 2    
    97   48   50 1    
    98   50   51 1    
    99   50   52 1    
   100   50  127 1    
   101   51  128 1    
   102   51  129 1    
   103   51  130 1    
   104   52   53 am   BACKBONE|DICT|INTERRES
   105   52  131 1    
   106   53   54 2    
   107   53   55 1    
   108   55   56 1    
   109   55   59 1    
   110   55  132 1    
   111   56   57 1    
   112   56  133 1    
   113   56  134 1    
   114   57   58 1    
   115   58  135 1    
   116   58  136 1    
   117   59   60 am   BACKBONE|DICT|INTERRES
   118   59  137 1    
   119   60   61 2    
   120   60   62 1    
   121   62   63 1    
   122   62   64 1    
   123   62  138 1    
   124   63  139 1    
   125   63  140 1    
   126   63  141 1    
   127   64   65 am   BACKBONE|DICT|INTERRES
   128   64  142 1    
   129   65   66 2    
   130   65   67 1    
   131   67   68 1    
   132   67   69 1    
   133   67  143 1    
   134   68  144 1    
   135   68  145 1    
   136   68  146 1    
   137   69   70 am   BACKBONE|DICT|INTERRES
   138   69  147 1    
   139   70   71 2    
   140   70   72 1    
   141   72   73 1    
   142   72   74 1    
   143   72  148 1    
   144   73  149 1    
   145   73  150 1    
   146   73  151 1    
   147   74   75 am   BACKBONE|DICT|INTERRES
   148   74  152 1    
   149   75   76 2    
   150   75   77 1    
   151   77   78 1    
   152   77   79 1    
   153   77  153 1    
   154   78  154 1    
   155   78  155 1    
   156   78  156 1    
   157   79   80 am   BACKBONE|DICT|INTERRES
   158   79  157 1    
   159   80   81 2    
@<TRIPOS>SUBSTRUCTURE
     1 UNK         1 GROUP             0       ****    0 ROOT    
