@<TRIPOS>MOLECULE
3R207
157   159    1
SMALL
USER_CHARGES


@<TRIPOS>ATOM
      1 CA        -50.0221  -30.2452    8.6960 C.3       0 UNK        -0.1975 
      2 C         -50.9956  -29.0724    8.6116 C.2       0 UNK         0.4852 
      3 O         -51.4614  -28.6121    9.6500 O.2       0 UNK        -0.5216 
      4 N         -51.3323  -28.5589    7.4180 N.am      1 UNK        -0.4461 
      5 CA        -50.8254  -28.9594    6.0945 C.3       1 UNK         0.0864 
      6 C6        -51.7203  -28.4336    4.9416 C.3       14 UNK        -0.0898 
      7 S7        -53.3595  -29.2359    4.9064 S.3       14 UNK        -0.2598 
      8 C8        -54.4902  -27.8369    5.1959 C.3       14 UNK         0.0286 
      9 C9        -54.3334  -27.2801    6.6009 C.ar      14 UNK        -0.0844 
     10 C10       -53.7125  -26.0456    6.8082 C.ar      14 UNK        -0.0881 
     11 C11       -53.5104  -25.5652    8.1045 C.ar      14 UNK        -0.0643 
     12 C12       -53.9427  -26.3247    9.1969 C.ar      14 UNK        -0.0930 
     13 C13       -54.5862  -27.5510    8.9989 C.ar      14 UNK        -0.0827 
     14 C14       -54.7852  -28.0185    7.6976 C.ar      14 UNK        -0.1249 
     15 C15       -55.0255  -28.3967   10.1847 C.3       14 UNK         0.0141 
     16 S16       -56.4093  -27.6322   11.0846 S.3       14 UNK        -0.2313 
     17 C17       -57.3043  -29.0858   11.7318 C.3       14 UNK        -0.0915 
     18 CA        -56.7243  -29.6143   13.0781 C.3       13 UNK         0.0968 
     19 C         -57.7312  -30.4826   13.8969 C.2       13 UNK         0.5732 
     20 N         -57.2774  -31.4384   14.7010 N.am      13 UNK        -0.7310 
     21 O         -58.9401  -30.2695   13.8365 O.2       13 UNK        -0.5035 
     22 N         -55.3919  -30.2244   12.9278 N.am      13 UNK        -0.4233 
     23 C         -55.1082  -31.3619   12.2715 C.2       13 UNK         0.4989 
     24 O         -55.9383  -32.0092   11.6329 O.2       13 UNK        -0.4996 
     25 CA        -53.6593  -31.8882   12.3314 C.3       12 UNK         0.0216 
     26 CB        -52.9528  -31.6769   10.9821 C.3       12 UNK        -0.1964 
     27 N         -52.8492  -31.2875   13.3938 N.am      12 UNK        -0.4276 
     28 C         -53.0458  -31.4553   14.7094 C.2       12 UNK         0.5020 
     29 O         -53.8900  -32.2161   15.1841 O.2       12 UNK        -0.5489 
     30 CA        -52.1969  -30.5789   15.6503 C.3       11 UNK         0.0294 
     31 CB        -50.9385  -31.3354   16.1038 C.3       11 UNK        -0.2019 
     32 N         -51.8039  -29.2904   15.0638 N.am      11 UNK        -0.4493 
     33 C         -52.6446  -28.3456   14.6223 C.2       11 UNK         0.4932 
     34 O         -53.8707  -28.4455   14.6819 O.2       11 UNK        -0.5029 
     35 CA        -52.0005  -27.1041   13.9839 C.3       10 UNK         0.0280 
     36 CB        -53.0351  -26.1582   13.3458 C.3       10 UNK        -0.1976 
     37 N         -51.1832  -26.3463   14.9320 N.am      10 UNK        -0.4242 
     38 C         -49.9459  -26.6687   15.3363 C.2       10 UNK         0.5072 
     39 O         -49.3951  -27.7346   15.0502 O.2       10 UNK        -0.5224 
     40 CA        -49.1962  -25.6014   16.1542 C.3       9 UNK         0.0343 
     41 CB        -47.6676  -25.7930   16.1394 C.3       9 UNK        -0.2003 
     42 N         -49.5283  -24.2621   15.6580 N.am      9 UNK        -0.4272 
     43 C         -49.7273  -23.1836   16.4249 C.2       9 UNK         0.4988 
     44 O         -49.5909  -23.1936   17.6503 O.2       9 UNK        -0.5108 
     45 CA        -50.2034  -21.8930   15.7223 C.3       8 UNK         0.0248 
     46 CB        -50.0755  -20.6434   16.6209 C.3       8 UNK        -0.2001 
     47 N         -49.5994  -21.6373   14.4081 N.am      8 UNK        -0.4140 
     48 C         -48.3047  -21.4512   14.1131 C.2       8 UNK         0.5028 
     49 O         -47.3926  -21.5711   14.9333 O.2       8 UNK        -0.5428 
     50 CA        -47.9855  -21.0274   12.6582 C.3       7 UNK         0.0264 
     51 CB        -46.4750  -20.8459   12.4168 C.3       7 UNK        -0.1988 
     52 N         -48.5102  -21.9632   11.6589 N.am      7 UNK        -0.4454 
     53 C         -49.8003  -22.1286   11.3319 C.2       7 UNK         0.5027 
     54 O         -50.6995  -21.3984   11.7526 O.2       7 UNK        -0.5083 
     55 CA        -50.1725  -23.3582   10.4740 C.3       6 UNK         0.0844 
     56 C56       -50.3806  -22.9833    8.9883 C.3       14 UNK        -0.0967 
     57 S57       -51.0219  -24.3939    8.0250 S.3       14 UNK        -0.2604 
     58 C58       -52.8087  -24.2348    8.3213 C.3       14 UNK         0.0134 
     59 N         -49.2502  -24.4865   10.6531 N.am      6 UNK        -0.4116 
     60 C         -49.0465  -25.1158   11.8185 C.2       5 UNK         0.5034 
     61 O         -49.5944  -24.7831   12.8672 O.2       5 UNK        -0.5045 
     62 CA        -48.0298  -26.2646   11.8289 C.3       5 UNK         0.0224 
     63 CB        -48.6211  -27.5418   11.2120 C.3       5 UNK        -0.1978 
     64 N         -46.8179  -25.8796   11.1073 N.am      5 UNK        -0.4737 
     65 C         -45.8023  -25.1978   11.6547 C.2       4 UNK         0.5027 
     66 O         -45.7334  -24.9165   12.8502 O.2       4 UNK        -0.5211 
     67 CA        -44.6705  -24.7427   10.7146 C.3       4 UNK         0.0297 
     68 CB        -43.5233  -25.7657   10.7236 C.3       4 UNK        -0.1993 
     69 N         -45.1072  -24.5190    9.3337 N.am      4 UNK        -0.4486 
     70 C         -45.9571  -23.5571    8.9478 C.2       3 UNK         0.4961 
     71 O         -46.4513  -22.7300    9.7121 O.2       3 UNK        -0.5105 
     72 CA        -46.3691  -23.5529    7.4653 C.3       3 UNK         0.0299 
     73 CB        -45.3627  -22.7462    6.6299 C.3       3 UNK        -0.1972 
     74 N         -46.5345  -24.8914    6.8830 N.am      3 UNK        -0.4305 
     75 C         -47.3643  -25.8322    7.3532 C.2       2 UNK         0.5006 
     76 O         -48.0260  -25.7137    8.3858 O.2       2 UNK        -0.5106 
     77 CA        -47.4354  -27.1476    6.5807 C.3       2 UNK         0.0296 
     78 CB        -46.4599  -28.1759    7.1850 C.3       2 UNK        -0.2002 
     79 N         -48.8079  -27.6390    6.6601 N.am      2 UNK        -0.4032 
     80 C         -49.3531  -28.5553    5.8507 C.2       1 UNK         0.5000 
     81 O         -48.7345  -29.0971    4.9327 O.2       1 UNK        -0.5238 
     82 H82       -49.0111  -29.9347    8.4360 H         1 UNK         0.0889 
     83 H83       -50.3242  -31.0620    8.0420 H         1 UNK         0.0889 
     84 H84       -49.9934  -30.6367    9.7128 H         1 UNK         0.0889 
     85 H85       -52.0267  -27.8225    7.4073 H         1 UNK         0.3028 
     86 H86       -50.8481  -30.0492    6.0444 H         1 UNK         0.0864 
     87 H87       -51.8263  -27.3491    4.9974 H         1 UNK         0.0720 
     88 H88       -51.2614  -28.6373    3.9718 H         1 UNK         0.0720 
     89 H89       -55.5175  -28.1762    5.0557 H         1 UNK         0.0814 
     90 H90       -54.3171  -27.0657    4.4435 H         1 UNK         0.0814 
     91 H91       -53.3620  -25.4659    5.9648 H         1 UNK         0.1469 
     92 H92       -53.7734  -25.9680   10.2032 H         1 UNK         0.1381 
     93 H93       -55.2624  -28.9754    7.5345 H         1 UNK         0.1206 
     94 H94       -54.1834  -28.5261   10.8656 H         1 UNK         0.0813 
     95 H95       -55.3075  -29.3961    9.8507 H         1 UNK         0.0813 
     96 H96       -58.3358  -28.7559   11.8633 H         1 UNK         0.0638 
     97 H97       -57.3445  -29.8696   10.9749 H         1 UNK         0.0638 
     98 H98       -56.5652  -28.7450   13.7169 H         1 UNK         0.0568 
     99 H99       -57.9343  -31.9848   15.2348 H         1 UNK         0.3450 
    100 H100      -56.2874  -31.6202   14.7791 H         1 UNK         0.3450 
    101 H101      -54.6617  -29.7609   13.4581 H         1 UNK         0.2987 
    102 H102      -53.7163  -32.9618   12.5228 H         1 UNK         0.0766 
    103 H103      -52.8491  -30.6186   10.7443 H         1 UNK         0.0798 
    104 H104      -53.5141  -32.1385   10.1684 H         1 UNK         0.0798 
    105 H105      -51.9576  -32.1216   10.9788 H         1 UNK         0.0798 
    106 H106      -52.1270  -30.6434   13.1055 H         1 UNK         0.3198 
    107 H107      -52.8064  -30.3650   16.5309 H         1 UNK         0.0843 
    108 H108      -50.3748  -30.7628   16.8406 H         1 UNK         0.0831 
    109 H109      -50.2735  -31.5524   15.2669 H         1 UNK         0.0831 
    110 H110      -51.2014  -32.2874   16.5674 H         1 UNK         0.0831 
    111 H111      -50.8096  -29.0793   15.0181 H         1 UNK         0.3133 
    112 H112      -51.3534  -27.4596   13.1801 H         1 UNK         0.0566 
    113 H113      -52.5476  -25.3365   12.8202 H         1 UNK         0.0814 
    114 H114      -53.6499  -26.6868   12.6163 H         1 UNK         0.0814 
    115 H115      -53.7087  -25.7319   14.0902 H         1 UNK         0.0814 
    116 H116      -51.5633  -25.4643   15.2416 H         1 UNK         0.3091 
    117 H117      -49.5460  -25.7129   17.1825 H         1 UNK         0.0702 
    118 H118      -47.1713  -25.0507   16.7646 H         1 UNK         0.0785 
    119 H119      -47.2635  -25.7010   15.1309 H         1 UNK         0.0785 
    120 H120      -47.3877  -26.7761   16.5197 H         1 UNK         0.0785 
    121 H121      -49.6371  -24.1953   14.6464 H         1 UNK         0.2998 
    122 H122      -51.2667  -22.0432   15.5309 H         1 UNK         0.0697 
    123 H123      -50.4610  -19.7540   16.1225 H         1 UNK         0.0825 
    124 H124      -50.6413  -20.7631   17.5457 H         1 UNK         0.0825 
    125 H125      -49.0382  -20.4506   16.8968 H         1 UNK         0.0825 
    126 H126      -50.2518  -21.5399   13.6345 H         1 UNK         0.3029 
    127 H127      -48.4632  -20.0580   12.5008 H         1 UNK         0.0897 
    128 H128      -46.2757  -20.4797   11.4094 H         1 UNK         0.0792 
    129 H129      -46.0482  -20.1225   13.1127 H         1 UNK         0.0792 
    130 H130      -45.9337  -21.7846   12.5441 H         1 UNK         0.0792 
    131 H131      -47.8255  -22.5648   11.2117 H         1 UNK         0.3086 
    132 H132      -51.1360  -23.6985   10.8592 H         1 UNK         0.0583 
    133 H133      -51.0714  -22.1435    8.8885 H         1 UNK         0.1020 
    134 H134      -49.4391  -22.6583    8.5429 H         1 UNK         0.1020 
    135 H135      -52.9881  -23.8785    9.3365 H         1 UNK         0.0694 
    136 H136      -53.2218  -23.4801    7.6506 H         1 UNK         0.0694 
    137 H137      -48.7950  -24.8404    9.8146 H         1 UNK         0.2989 
    138 H138      -47.7802  -26.4824   12.8697 H         1 UNK         0.1055 
    139 H139      -48.9288  -27.3929   10.1774 H         1 UNK         0.0806 
    140 H140      -49.5013  -27.8695   11.7652 H         1 UNK         0.0806 
    141 H141      -47.9035  -28.3618   11.2333 H         1 UNK         0.0806 
    142 H142      -46.8332  -26.0081   10.1030 H         1 UNK         0.3061 
    143 H143      -44.2880  -23.7951   11.1005 H         1 UNK         0.0734 
    144 H144      -42.6763  -25.4197   10.1309 H         1 UNK         0.0832 
    145 H145      -43.1589  -25.9324   11.7384 H         1 UNK         0.0832 
    146 H146      -43.8398  -26.7322   10.3292 H         1 UNK         0.0832 
    147 H147      -44.7574  -25.1559    8.6329 H         1 UNK         0.3156 
    148 H148      -47.3373  -23.0531    7.3998 H         1 UNK         0.0589 
    149 H149      -44.3782  -23.2155    6.6161 H         1 UNK         0.0808 
    150 H150      -45.6985  -22.6376    5.5984 H         1 UNK         0.0808 
    151 H151      -45.2383  -21.7404    7.0342 H         1 UNK         0.0808 
    152 H152      -46.0127  -25.0832    6.0395 H         1 UNK         0.3098 
    153 H153      -47.1805  -26.9623    5.5351 H         1 UNK         0.0720 
    154 H154      -45.4332  -27.8091    7.1537 H         1 UNK         0.0791 
    155 H155      -46.4805  -29.1174    6.6361 H         1 UNK         0.0791 
    156 H156      -46.6989  -28.3923    8.2273 H         1 UNK         0.0791 
    157 H157      -49.3733  -27.1946    7.3743 H         1 UNK         0.3028 
@<TRIPOS>BOND
     1    1    2 1    
     2    1   82 1    
     3    1   83 1    
     4    1   84 1    
     5    2    3 2    
     6    2    4 am   BACKBONE|DICT|INTERRES
     7    4    5 1    
     8    4   85 1    
     9    5    6 1    
    10    5   80 1    
    11    5   86 1    
    12    6    7 1    
    13    6   87 1    
    14    6   88 1    
    15    7    8 1    
    16    8    9 1    
    17    8   89 1    
    18    8   90 1    
    19    9   10 ar   
    20    9   14 ar   
    21   10   11 ar   
    22   10   91 1    
    23   11   12 ar   
    24   11   58 1    
    25   12   13 ar   
    26   12   92 1    
    27   13   14 ar   
    28   13   15 1    
    29   14   93 1    
    30   15   16 1    
    31   15   94 1    
    32   15   95 1    
    33   16   17 1    
    34   17   18 1    
    35   17   96 1    
    36   17   97 1    
    37   18   19 1    
    38   18   22 1    
    39   18   98 1    
    40   19   20 am   BACKBONE|DICT|INTERRES
    41   19   21 2    
    42   20   99 1    
    43   20  100 1    
    44   22   23 am   BACKBONE|DICT|INTERRES
    45   22  101 1    
    46   23   24 2    
    47   23   25 1    
    48   25   26 1    
    49   25   27 1    
    50   25  102 1    
    51   26  103 1    
    52   26  104 1    
    53   26  105 1    
    54   27   28 am   BACKBONE|DICT|INTERRES
    55   27  106 1    
    56   28   29 2    
    57   28   30 1    
    58   30   31 1    
    59   30   32 1    
    60   30  107 1    
    61   31  108 1    
    62   31  109 1    
    63   31  110 1    
    64   32   33 am   BACKBONE|DICT|INTERRES
    65   32  111 1    
    66   33   34 2    
    67   33   35 1    
    68   35   36 1    
    69   35   37 1    
    70   35  112 1    
    71   36  113 1    
    72   36  114 1    
    73   36  115 1    
    74   37   38 am   BACKBONE|DICT|INTERRES
    75   37  116 1    
    76   38   39 2    
    77   38   40 1    
    78   40   41 1    
    79   40   42 1    
    80   40  117 1    
    81   41  118 1    
    82   41  119 1    
    83   41  120 1    
    84   42   43 am   BACKBONE|DICT|INTERRES
    85   42  121 1    
    86   43   44 2    
    87   43   45 1    
    88   45   46 1    
    89   45   47 1    
    90   45  122 1    
    91   46  123 1    
    92   46  124 1    
    93   46  125 1    
    94   47   48 am   BACKBONE|DICT|INTERRES
    95   47  126 1    
    96   48   49 2    
    97   48   50 1    
    98   50   51 1    
    99   50   52 1    
   100   50  127 1    
   101   51  128 1    
   102   51  129 1    
   103   51  130 1    
   104   52   53 am   BACKBONE|DICT|INTERRES
   105   52  131 1    
   106   53   54 2    
   107   53   55 1    
   108   55   56 1    
   109   55   59 1    
   110   55  132 1    
   111   56   57 1    
   112   56  133 1    
   113   56  134 1    
   114   57   58 1    
   115   58  135 1    
   116   58  136 1    
   117   59   60 am   BACKBONE|DICT|INTERRES
   118   59  137 1    
   119   60   61 2    
   120   60   62 1    
   121   62   63 1    
   122   62   64 1    
   123   62  138 1    
   124   63  139 1    
   125   63  140 1    
   126   63  141 1    
   127   64   65 am   BACKBONE|DICT|INTERRES
   128   64  142 1    
   129   65   66 2    
   130   65   67 1    
   131   67   68 1    
   132   67   69 1    
   133   67  143 1    
   134   68  144 1    
   135   68  145 1    
   136   68  146 1    
   137   69   70 am   BACKBONE|DICT|INTERRES
   138   69  147 1    
   139   70   71 2    
   140   70   72 1    
   141   72   73 1    
   142   72   74 1    
   143   72  148 1    
   144   73  149 1    
   145   73  150 1    
   146   73  151 1    
   147   74   75 am   BACKBONE|DICT|INTERRES
   148   74  152 1    
   149   75   76 2    
   150   75   77 1    
   151   77   78 1    
   152   77   79 1    
   153   77  153 1    
   154   78  154 1    
   155   78  155 1    
   156   78  156 1    
   157   79   80 am   BACKBONE|DICT|INTERRES
   158   79  157 1    
   159   80   81 2    
@<TRIPOS>SUBSTRUCTURE
     1 UNK         1 GROUP             0       ****    0 ROOT    
