@<TRIPOS>MOLECULE
3R207
157   159    1
SMALL
USER_CHARGES


@<TRIPOS>ATOM
      1 CA        -53.9366  -27.6611    7.3703 C.3       0 UNK        -0.1975 
      2 C         -53.1360  -28.3932    6.3041 C.2       0 UNK         0.4852 
      3 O         -53.5451  -29.4668    5.8614 O.2       0 UNK        -0.5216 
      4 N         -52.0011  -27.8177    5.8846 N.am      1 UNK        -0.4461 
      5 CA        -51.1167  -28.3482    4.8369 C.3       1 UNK         0.0864 
      6 C6        -50.0658  -27.3107    4.3589 C.3       14 UNK        -0.0898 
      7 S7        -50.7459  -25.6559    3.9958 S.3       14 UNK        -0.2598 
      8 C8        -49.9082  -24.6352    5.2535 C.3       14 UNK         0.0286 
      9 C9        -50.5993  -24.7118    6.6082 C.ar      14 UNK        -0.0844 
     10 C10       -51.5001  -23.7142    6.9871 C.ar      14 UNK        -0.0881 
     11 C11       -52.1046  -23.7392    8.2471 C.ar      14 UNK        -0.0643 
     12 C12       -51.8449  -24.8087    9.1103 C.ar      14 UNK        -0.0930 
     13 C13       -50.9475  -25.8186    8.7447 C.ar      14 UNK        -0.0827 
     14 C14       -50.3134  -25.7489    7.5005 C.ar      14 UNK        -0.1249 
     15 C15       -50.5909  -26.9527    9.7006 C.3       14 UNK         0.0141 
     16 S16       -52.0022  -27.6244   10.6330 S.3       14 UNK        -0.2313 
     17 C17       -51.1410  -28.9219   11.5815 C.3       14 UNK        -0.0915 
     18 CA        -52.0986  -30.0196   12.1074 C.3       13 UNK         0.0968 
     19 C         -51.3109  -31.2288   12.6957 C.2       13 UNK         0.5732 
     20 N         -51.5099  -31.6289   13.9471 N.am      13 UNK        -0.7310 
     21 O         -50.5065  -31.8334   11.9915 O.2       13 UNK        -0.5035 
     22 N         -53.1060  -29.4616   13.0216 N.am      13 UNK        -0.4233 
     23 C         -54.3128  -30.0042   13.2284 C.2       13 UNK         0.4989 
     24 O         -54.7400  -30.9743   12.5991 O.2       13 UNK        -0.4996 
     25 CA        -55.1840  -29.3631   14.3275 C.3       12 UNK         0.0216 
     26 CB        -56.3092  -30.2978   14.8208 C.3       12 UNK        -0.1964 
     27 N         -54.4115  -28.8477   15.4654 N.am      12 UNK        -0.4276 
     28 C         -53.5701  -29.5313   16.2599 C.2       12 UNK         0.5020 
     29 O         -53.3254  -30.7298   16.1137 O.2       12 UNK        -0.5489 
     30 CA        -52.8516  -28.7561   17.3826 C.3       11 UNK         0.0294 
     31 CB        -51.3503  -29.0976   17.4206 C.3       11 UNK        -0.2019 
     32 N         -52.9982  -27.3090   17.2206 N.am      11 UNK        -0.4493 
     33 C         -53.8701  -26.5347   17.8824 C.2       11 UNK         0.4932 
     34 O         -54.5983  -26.9428   18.7868 O.2       11 UNK        -0.5029 
     35 CA        -53.9733  -25.0586   17.4460 C.3       10 UNK         0.0280 
     36 CB        -53.1544  -24.1630   18.3892 C.3       10 UNK        -0.1976 
     37 N         -53.5406  -24.8208   16.0651 N.am      10 UNK        -0.4242 
     38 C         -54.1227  -25.3351   14.9709 C.2       10 UNK         0.5072 
     39 O         -55.1545  -26.0051   14.9992 O.2       10 UNK        -0.5224 
     40 CA        -53.3837  -25.1463   13.6338 C.3       9 UNK         0.0343 
     41 CB        -53.9416  -23.9301   12.8802 C.3       9 UNK        -0.2003 
     42 N         -51.9268  -25.0302   13.7992 N.am      9 UNK        -0.4272 
     43 C         -51.1514  -26.0262   14.2629 C.2       9 UNK         0.4988 
     44 O         -51.6032  -27.1360   14.5528 O.2       9 UNK        -0.5108 
     45 CA        -49.6513  -25.7590   14.4908 C.3       8 UNK         0.0248 
     46 CB        -48.7836  -26.7561   13.7097 C.3       8 UNK        -0.2001 
     47 N         -49.2440  -24.3995   14.1341 N.am      8 UNK        -0.4140 
     48 C         -49.1928  -23.3646   14.9869 C.2       8 UNK         0.5028 
     49 O         -49.4617  -23.4525   16.1853 O.2       8 UNK        -0.5428 
     50 CA        -48.8160  -21.9870   14.4003 C.3       7 UNK         0.0264 
     51 CB        -47.2999  -21.7562   14.5022 C.3       7 UNK        -0.1988 
     52 N         -49.2362  -21.8216   13.0051 N.am      7 UNK        -0.4454 
     53 C         -50.5077  -21.8991   12.5878 C.2       7 UNK         0.5027 
     54 O         -51.4614  -21.9386   13.3642 O.2       7 UNK        -0.5083 
     55 CA        -50.7802  -22.0522   11.0760 C.3       6 UNK         0.0844 
     56 C56       -51.6550  -20.8914   10.5428 C.3       14 UNK        -0.0967 
     57 S57       -52.1118  -21.0134    8.7766 S.3       14 UNK        -0.2604 
     58 C58       -53.0199  -22.5957    8.6668 C.3       14 UNK         0.0134 
     59 N         -49.5981  -22.3166   10.2423 N.am      6 UNK        -0.4116 
     60 C         -48.8121  -23.4003   10.3290 C.2       5 UNK         0.5034 
     61 O         -48.9020  -24.2275   11.2407 O.2       5 UNK        -0.5045 
     62 CA        -47.7901  -23.5923    9.1917 C.3       5 UNK         0.0224 
     63 CB        -46.9336  -22.3321    8.9365 C.3       5 UNK        -0.1978 
     64 N         -46.9556  -24.7874    9.3768 N.am      5 UNK        -0.4737 
     65 C         -45.9877  -25.0008   10.2771 C.2       4 UNK         0.5027 
     66 O         -45.5753  -24.1413   11.0572 O.2       4 UNK        -0.5211 
     67 CA        -45.3408  -26.4042   10.3257 C.3       4 UNK         0.0297 
     68 CB        -45.8834  -27.2036   11.5258 C.3       4 UNK        -0.1993 
     69 N         -45.3984  -27.2211    9.0976 N.am      4 UNK        -0.4486 
     70 C         -46.4740  -27.7263    8.4759 C.2       3 UNK         0.4961 
     71 O         -47.6286  -27.4321    8.7814 O.2       3 UNK        -0.5105 
     72 CA        -46.2253  -28.6752    7.2834 C.3       3 UNK         0.0299 
     73 CB        -44.9963  -29.5917    7.4783 C.3       3 UNK        -0.1972 
     74 N         -47.4218  -29.4621    6.9451 N.am      3 UNK        -0.4305 
     75 C         -48.0539  -30.3655    7.7144 C.2       2 UNK         0.5006 
     76 O         -47.6289  -30.7618    8.8010 O.2       2 UNK        -0.5106 
     77 CA        -49.3994  -30.8980    7.1806 C.3       2 UNK         0.0296 
     78 CB        -50.2554  -31.5562    8.2802 C.3       2 UNK        -0.2002 
     79 N         -50.1736  -29.8146    6.5706 N.am      2 UNK        -0.4032 
     80 C         -50.3843  -29.6410    5.2587 C.2       1 UNK         0.5000 
     81 O         -49.9862  -30.4207    4.3918 O.2       1 UNK        -0.5238 
     82 H82       -53.5192  -26.6792    7.5906 H         1 UNK         0.0889 
     83 H83       -53.9506  -28.2404    8.2931 H         1 UNK         0.0889 
     84 H84       -54.9651  -27.5222    7.0390 H         1 UNK         0.0889 
     85 H85       -51.7345  -26.9154    6.2595 H         1 UNK         0.3028 
     86 H86       -51.7486  -28.6027    3.9831 H         1 UNK         0.0864 
     87 H87       -49.5889  -27.6688    3.4443 H         1 UNK         0.0720 
     88 H88       -49.2570  -27.2122    5.0841 H         1 UNK         0.0720 
     89 H89       -48.8608  -24.9270    5.3444 H         1 UNK         0.0814 
     90 H90       -49.8955  -23.6020    4.9030 H         1 UNK         0.0814 
     91 H91       -51.7100  -22.8944    6.3134 H         1 UNK         0.1469 
     92 H92       -52.3172  -24.8444   10.0810 H         1 UNK         0.1381 
     93 H93       -49.5870  -26.5024    7.2317 H         1 UNK         0.1206 
     94 H94       -50.1427  -27.7767    9.1453 H         1 UNK         0.0813 
     95 H95       -49.8321  -26.5975   10.3976 H         1 UNK         0.0813 
     96 H96       -50.3732  -29.3591   10.9411 H         1 UNK         0.0638 
     97 H97       -50.6124  -28.4552   12.4099 H         1 UNK         0.0638 
     98 H98       -52.6228  -30.4202   11.2376 H         1 UNK         0.0568 
     99 H99       -52.1902  -31.1797   14.5513 H         1 UNK         0.3450 
    100 H100      -50.9882  -32.4183   14.2914 H         1 UNK         0.3450 
    101 H101      -52.8015  -28.6795   13.5890 H         1 UNK         0.2987 
    102 H102      -55.6568  -28.4962   13.8637 H         1 UNK         0.0766 
    103 H103      -56.9246  -29.8119   15.5779 H         1 UNK         0.0798 
    104 H104      -56.9715  -30.5822   14.0022 H         1 UNK         0.0798 
    105 H105      -55.9104  -31.2169   15.2516 H         1 UNK         0.0798 
    106 H106      -54.5381  -27.8568   15.6428 H         1 UNK         0.3198 
    107 H107      -53.2961  -29.0762   18.3272 H         1 UNK         0.0843 
    108 H108      -50.8592  -28.8727   16.4732 H         1 UNK         0.0831 
    109 H109      -51.1942  -30.1581   17.6225 H         1 UNK         0.0831 
    110 H110      -50.8366  -28.5426   18.2055 H         1 UNK         0.0831 
    111 H111      -52.4620  -26.9067   16.4603 H         1 UNK         0.3133 
    112 H112      -55.0231  -24.7676   17.5203 H         1 UNK         0.0566 
    113 H113      -52.0882  -24.3884   18.3369 H         1 UNK         0.0814 
    114 H114      -53.4659  -24.2993   19.4259 H         1 UNK         0.0814 
    115 H115      -53.2868  -23.1076   18.1501 H         1 UNK         0.0814 
    116 H116      -52.6978  -24.2777   15.9422 H         1 UNK         0.3091 
    117 H117      -53.5744  -26.0336   13.0258 H         1 UNK         0.0702 
    118 H118      -53.4402  -23.7865   11.9251 H         1 UNK         0.0785 
    119 H119      -53.8400  -23.0120   13.4593 H         1 UNK         0.0785 
    120 H120      -55.0037  -24.0610   12.6690 H         1 UNK         0.0785 
    121 H121      -51.5159  -24.1234   13.6185 H         1 UNK         0.2998 
    122 H122      -49.4635  -25.9263   15.5533 H         1 UNK         0.0697 
    123 H123      -48.9389  -26.6669   12.6345 H         1 UNK         0.0825 
    124 H124      -49.0086  -27.7839   13.9968 H         1 UNK         0.0825 
    125 H125      -47.7253  -26.5941   13.9111 H         1 UNK         0.0825 
    126 H126      -49.0246  -24.2449   13.1516 H         1 UNK         0.3029 
    127 H127      -49.3241  -21.2257   14.9963 H         1 UNK         0.0897 
    128 H128      -47.0269  -20.7547   14.1688 H         1 UNK         0.0792 
    129 H129      -46.9587  -21.8568   15.5336 H         1 UNK         0.0792 
    130 H130      -46.7405  -22.4754   13.9017 H         1 UNK         0.0792 
    131 H131      -48.5065  -21.8118   12.3074 H         1 UNK         0.3086 
    132 H132      -51.3863  -22.9536   11.0173 H         1 UNK         0.0583 
    133 H133      -52.5804  -20.8178   11.1184 H         1 UNK         0.1020 
    134 H134      -51.1404  -19.9393   10.6857 H         1 UNK         0.1020 
    135 H135      -53.5170  -22.8082    9.6141 H         1 UNK         0.0694 
    136 H136      -53.8116  -22.4923    7.9235 H         1 UNK         0.0694 
    137 H137      -49.4749  -21.6903    9.4602 H         1 UNK         0.2989 
    138 H138      -48.3743  -23.7827    8.2909 H         1 UNK         0.1055 
    139 H139      -46.1629  -22.5236    8.1898 H         1 UNK         0.0806 
    140 H140      -46.4391  -21.9828    9.8434 H         1 UNK         0.0806 
    141 H141      -47.5396  -21.5076    8.5602 H         1 UNK         0.0806 
    142 H142      -47.2850  -25.6241    8.9007 H         1 UNK         0.3061 
    143 H143      -44.2783  -26.2325   10.5062 H         1 UNK         0.0734 
    144 H144      -45.7602  -26.6439   12.4536 H         1 UNK         0.0832 
    145 H145      -46.9454  -27.4241   11.4155 H         1 UNK         0.0832 
    146 H146      -45.3557  -28.1496   11.6457 H         1 UNK         0.0832 
    147 H147      -44.4951  -27.4730    8.7209 H         1 UNK         0.3156 
    148 H148      -46.0326  -28.0371    6.4198 H         1 UNK         0.0589 
    149 H149      -45.0491  -30.1496    8.4141 H         1 UNK         0.0808 
    150 H150      -44.9109  -30.3144    6.6666 H         1 UNK         0.0808 
    151 H151      -44.0679  -29.0203    7.4890 H         1 UNK         0.0808 
    152 H152      -47.8634  -29.2157    6.0719 H         1 UNK         0.3098 
    153 H153      -49.1632  -31.6629    6.4382 H         1 UNK         0.0720 
    154 H154      -51.1940  -31.9357    7.8762 H         1 UNK         0.0791 
    155 H155      -49.7350  -32.4008    8.7338 H         1 UNK         0.0791 
    156 H156      -50.4955  -30.8546    9.0791 H         1 UNK         0.0791 
    157 H157      -50.5274  -29.1095    7.2005 H         1 UNK         0.3028 
@<TRIPOS>BOND
     1    1    2 1    
     2    1   82 1    
     3    1   83 1    
     4    1   84 1    
     5    2    3 2    
     6    2    4 am   BACKBONE|DICT|INTERRES
     7    4    5 1    
     8    4   85 1    
     9    5    6 1    
    10    5   80 1    
    11    5   86 1    
    12    6    7 1    
    13    6   87 1    
    14    6   88 1    
    15    7    8 1    
    16    8    9 1    
    17    8   89 1    
    18    8   90 1    
    19    9   10 ar   
    20    9   14 ar   
    21   10   11 ar   
    22   10   91 1    
    23   11   12 ar   
    24   11   58 1    
    25   12   13 ar   
    26   12   92 1    
    27   13   14 ar   
    28   13   15 1    
    29   14   93 1    
    30   15   16 1    
    31   15   94 1    
    32   15   95 1    
    33   16   17 1    
    34   17   18 1    
    35   17   96 1    
    36   17   97 1    
    37   18   19 1    
    38   18   22 1    
    39   18   98 1    
    40   19   20 am   BACKBONE|DICT|INTERRES
    41   19   21 2    
    42   20   99 1    
    43   20  100 1    
    44   22   23 am   BACKBONE|DICT|INTERRES
    45   22  101 1    
    46   23   24 2    
    47   23   25 1    
    48   25   26 1    
    49   25   27 1    
    50   25  102 1    
    51   26  103 1    
    52   26  104 1    
    53   26  105 1    
    54   27   28 am   BACKBONE|DICT|INTERRES
    55   27  106 1    
    56   28   29 2    
    57   28   30 1    
    58   30   31 1    
    59   30   32 1    
    60   30  107 1    
    61   31  108 1    
    62   31  109 1    
    63   31  110 1    
    64   32   33 am   BACKBONE|DICT|INTERRES
    65   32  111 1    
    66   33   34 2    
    67   33   35 1    
    68   35   36 1    
    69   35   37 1    
    70   35  112 1    
    71   36  113 1    
    72   36  114 1    
    73   36  115 1    
    74   37   38 am   BACKBONE|DICT|INTERRES
    75   37  116 1    
    76   38   39 2    
    77   38   40 1    
    78   40   41 1    
    79   40   42 1    
    80   40  117 1    
    81   41  118 1    
    82   41  119 1    
    83   41  120 1    
    84   42   43 am   BACKBONE|DICT|INTERRES
    85   42  121 1    
    86   43   44 2    
    87   43   45 1    
    88   45   46 1    
    89   45   47 1    
    90   45  122 1    
    91   46  123 1    
    92   46  124 1    
    93   46  125 1    
    94   47   48 am   BACKBONE|DICT|INTERRES
    95   47  126 1    
    96   48   49 2    
    97   48   50 1    
    98   50   51 1    
    99   50   52 1    
   100   50  127 1    
   101   51  128 1    
   102   51  129 1    
   103   51  130 1    
   104   52   53 am   BACKBONE|DICT|INTERRES
   105   52  131 1    
   106   53   54 2    
   107   53   55 1    
   108   55   56 1    
   109   55   59 1    
   110   55  132 1    
   111   56   57 1    
   112   56  133 1    
   113   56  134 1    
   114   57   58 1    
   115   58  135 1    
   116   58  136 1    
   117   59   60 am   BACKBONE|DICT|INTERRES
   118   59  137 1    
   119   60   61 2    
   120   60   62 1    
   121   62   63 1    
   122   62   64 1    
   123   62  138 1    
   124   63  139 1    
   125   63  140 1    
   126   63  141 1    
   127   64   65 am   BACKBONE|DICT|INTERRES
   128   64  142 1    
   129   65   66 2    
   130   65   67 1    
   131   67   68 1    
   132   67   69 1    
   133   67  143 1    
   134   68  144 1    
   135   68  145 1    
   136   68  146 1    
   137   69   70 am   BACKBONE|DICT|INTERRES
   138   69  147 1    
   139   70   71 2    
   140   70   72 1    
   141   72   73 1    
   142   72   74 1    
   143   72  148 1    
   144   73  149 1    
   145   73  150 1    
   146   73  151 1    
   147   74   75 am   BACKBONE|DICT|INTERRES
   148   74  152 1    
   149   75   76 2    
   150   75   77 1    
   151   77   78 1    
   152   77   79 1    
   153   77  153 1    
   154   78  154 1    
   155   78  155 1    
   156   78  156 1    
   157   79   80 am   BACKBONE|DICT|INTERRES
   158   79  157 1    
   159   80   81 2    
@<TRIPOS>SUBSTRUCTURE
     1 UNK         1 GROUP             0       ****    0 ROOT    
