@<TRIPOS>MOLECULE
3R207
157   159    1
SMALL
USER_CHARGES


@<TRIPOS>ATOM
      1 CA        -48.0504  -29.9795    5.8286 C.3       0 UNK        -0.1975 
      2 C         -49.3658  -29.6090    5.1582 C.2       0 UNK         0.4852 
      3 O         -49.4689  -29.6875    3.9337 O.2       0 UNK        -0.5216 
      4 N         -50.3651  -29.2147    5.9578 N.am      1 UNK        -0.4461 
      5 CA        -51.6712  -28.7298    5.5056 C.3       1 UNK         0.0864 
      6 C6        -52.8118  -29.1892    6.4584 C.3       14 UNK        -0.0898 
      7 S7        -53.4077  -30.8768    6.0960 S.3       14 UNK        -0.2598 
      8 C8        -52.1678  -31.9744    6.8628 C.3       14 UNK         0.0286 
      9 C9        -51.9683  -31.6998    8.3459 C.ar      14 UNK        -0.0844 
     10 C10       -50.7541  -31.1839    8.8040 C.ar      14 UNK        -0.0881 
     11 C11       -50.5665  -30.8911   10.1569 C.ar      14 UNK        -0.0643 
     12 C12       -51.6022  -31.1457   11.0619 C.ar      14 UNK        -0.0930 
     13 C13       -52.8132  -31.6929   10.6210 C.ar      14 UNK        -0.0827 
     14 C14       -52.9874  -31.9728    9.2622 C.ar      14 UNK        -0.1249 
     15 C15       -53.9222  -32.0046   11.6171 C.3       14 UNK         0.0141 
     16 S16       -54.6850  -30.4958   12.2919 S.3       14 UNK        -0.2313 
     17 C17       -55.8225  -29.9831   10.9547 C.3       14 UNK        -0.0915 
     18 CA        -55.1579  -29.1464    9.8212 C.3       13 UNK         0.0968 
     19 C         -56.1776  -28.6871    8.7356 C.2       13 UNK         0.5732 
     20 N         -56.0376  -27.5033    8.1507 N.am      13 UNK        -0.7310 
     21 O         -57.0926  -29.4302    8.3885 O.2       13 UNK        -0.5035 
     22 N         -54.2415  -28.1073   10.3200 N.am      13 UNK        -0.4233 
     23 C         -54.5655  -27.0238   11.0353 C.2       13 UNK         0.4989 
     24 O         -55.7170  -26.6863   11.3193 O.2       13 UNK        -0.4996 
     25 CA        -53.3717  -26.1495   11.4458 C.3       12 UNK         0.0216 
     26 CB        -52.8419  -25.3542   10.2397 C.3       12 UNK        -0.1964 
     27 N         -53.6887  -25.2177   12.5264 N.am      12 UNK        -0.4276 
     28 C         -53.7610  -25.5503   13.8215 C.2       12 UNK         0.5020 
     29 O         -53.6865  -26.7070   14.2395 O.2       12 UNK        -0.5489 
     30 CA        -53.9347  -24.3684   14.7912 C.3       11 UNK         0.0294 
     31 CB        -55.4217  -24.0789   15.0829 C.3       11 UNK        -0.2019 
     32 N         -53.1276  -24.5064   16.0126 N.am      11 UNK        -0.4493 
     33 C         -53.3584  -25.2645   17.0958 C.2       11 UNK         0.4932 
     34 O         -54.3489  -25.9811   17.2540 O.2       11 UNK        -0.5029 
     35 CA        -52.3117  -25.1505   18.2234 C.3       10 UNK         0.0280 
     36 CB        -52.6834  -25.9646   19.4822 C.3       10 UNK        -0.1976 
     37 N         -50.9475  -25.4679   17.7874 N.am      10 UNK        -0.4242 
     38 C         -50.4821  -26.6247   17.2923 C.2       10 UNK         0.5072 
     39 O         -51.1767  -27.6280   17.1218 O.2       10 UNK        -0.5224 
     40 CA        -48.9694  -26.6767   16.9738 C.3       9 UNK         0.0343 
     41 CB        -48.5624  -27.9551   16.2165 C.3       9 UNK        -0.2003 
     42 N         -48.5050  -25.5106   16.2166 N.am      9 UNK        -0.4272 
     43 C         -48.2595  -24.2952   16.7250 C.2       9 UNK         0.4988 
     44 O         -48.3707  -24.0265   17.9216 O.2       9 UNK        -0.5108 
     45 CA        -47.8853  -23.1772   15.7369 C.3       8 UNK         0.0248 
     46 CB        -46.3643  -23.1371   15.5213 C.3       8 UNK        -0.2001 
     47 N         -48.5628  -23.2945   14.4430 N.am      8 UNK        -0.4140 
     48 C         -49.8917  -23.2527   14.2633 C.2       8 UNK         0.5028 
     49 O         -50.7083  -23.0578   15.1667 O.2       8 UNK        -0.5428 
     50 CA        -50.3991  -23.5291   12.8388 C.3       7 UNK         0.0264 
     51 CB        -50.2592  -22.2873   11.9457 C.3       7 UNK        -0.1988 
     52 N         -49.7401  -24.6775   12.2095 N.am      7 UNK        -0.4454 
     53 C         -49.7819  -25.9347   12.6799 C.2       7 UNK         0.5027 
     54 O         -50.4133  -26.2705   13.6782 O.2       7 UNK        -0.5083 
     55 CA        -48.9456  -26.9902   11.9351 C.3       6 UNK         0.0844 
     56 C56       -49.7207  -27.5624   10.7215 C.3       14 UNK        -0.0967 
     57 S57       -48.7546  -28.7991    9.7953 S.3       14 UNK        -0.2604 
     58 C58       -49.2270  -30.3465   10.6367 C.3       14 UNK         0.0134 
     59 N         -47.6307  -26.4494   11.5854 N.am      6 UNK        -0.4116 
     60 C         -46.6597  -26.1872   12.4715 C.2       5 UNK         0.5034 
     61 O         -46.7480  -26.4153   13.6779 O.2       5 UNK        -0.5045 
     62 CA        -45.3889  -25.5195   11.9206 C.3       5 UNK         0.0224 
     63 CB        -44.4261  -26.5743   11.3526 C.3       5 UNK        -0.1978 
     64 N         -45.6783  -24.5146   10.8933 N.am      5 UNK        -0.4737 
     65 C         -46.3493  -23.3762   11.1191 C.2       4 UNK         0.5027 
     66 O         -46.7521  -23.0295   12.2283 O.2       4 UNK        -0.5211 
     67 CA        -46.6700  -22.5045    9.8932 C.3       4 UNK         0.0297 
     68 CB        -45.5088  -21.5416    9.6007 C.3       4 UNK        -0.1993 
     69 N         -46.9881  -23.2772    8.6865 N.am      4 UNK        -0.4486 
     70 C         -48.0014  -24.1470    8.5791 C.2       3 UNK         0.4961 
     71 O         -48.7618  -24.4375    9.5068 O.2       3 UNK        -0.5105 
     72 CA        -48.1467  -24.8563    7.2250 C.3       3 UNK         0.0299 
     73 CB        -47.2667  -26.1165    7.1831 C.3       3 UNK        -0.1972 
     74 N         -49.5371  -25.2409    6.9892 N.am      3 UNK        -0.4305 
     75 C         -50.5009  -24.4106    6.5672 C.2       2 UNK         0.5006 
     76 O         -50.2967  -23.2349    6.2586 O.2       2 UNK        -0.5106 
     77 CA        -51.9350  -24.9807    6.4960 C.3       2 UNK         0.0296 
     78 CB        -52.7960  -24.2990    5.4100 C.3       2 UNK        -0.2002 
     79 N         -51.9940  -26.4479    6.3805 N.am      2 UNK        -0.4032 
     80 C         -51.5591  -27.1984    5.3539 C.2       1 UNK         0.5000 
     81 O         -51.0530  -26.7325    4.3316 O.2       1 UNK        -0.5238 
     82 H82       -48.0514  -29.7471    6.8932 H         1 UNK         0.0889 
     83 H83       -47.2283  -29.4321    5.3681 H         1 UNK         0.0889 
     84 H84       -47.8572  -31.0456    5.7123 H         1 UNK         0.0889 
     85 H85       -50.2011  -29.1587    6.9519 H         1 UNK         0.3028 
     86 H86       -51.8879  -29.1184    4.5077 H         1 UNK         0.0864 
     87 H87       -52.5238  -29.1129    7.5078 H         1 UNK         0.0720 
     88 H88       -53.6909  -28.5524    6.3397 H         1 UNK         0.0720 
     89 H89       -51.2276  -31.8863    6.3172 H         1 UNK         0.0814 
     90 H90       -52.4914  -33.0082    6.7349 H         1 UNK         0.0814 
     91 H91       -49.9453  -31.0106    8.1095 H         1 UNK         0.1469 
     92 H92       -51.4651  -30.9337   12.1136 H         1 UNK         0.1381 
     93 H93       -53.9221  -32.3890    8.9112 H         1 UNK         0.1206 
     94 H94       -54.6903  -32.6367   11.1689 H         1 UNK         0.0813 
     95 H95       -53.5015  -32.5802   12.4427 H         1 UNK         0.0813 
     96 H96       -56.2969  -30.8753   10.5427 H         1 UNK         0.0638 
     97 H97       -56.6233  -29.4047   11.4182 H         1 UNK         0.0638 
     98 H98       -54.5111  -29.8225    9.2683 H         1 UNK         0.0568 
     99 H99       -55.3201  -26.8653    8.4490 H         1 UNK         0.3450 
    100 H100      -56.6999  -27.2259    7.4439 H         1 UNK         0.3450 
    101 H101      -53.2665  -28.2944   10.1457 H         1 UNK         0.2987 
    102 H102      -52.5809  -26.8121   11.8022 H         1 UNK         0.0766 
    103 H103      -52.4984  -26.0245    9.4528 H         1 UNK         0.0798 
    104 H104      -51.9939  -24.7261   10.5104 H         1 UNK         0.0798 
    105 H105      -53.6107  -24.7090    9.8119 H         1 UNK         0.0798 
    106 H106      -53.8577  -24.2599   12.2564 H         1 UNK         0.3198 
    107 H107      -53.5292  -23.4807   14.3029 H         1 UNK         0.0843 
    108 H108      -55.9475  -23.8004   14.1690 H         1 UNK         0.0831 
    109 H109      -55.5383  -23.2565   15.7885 H         1 UNK         0.0831 
    110 H110      -55.9355  -24.9501   15.4900 H         1 UNK         0.0831 
    111 H111      -52.2430  -24.0041   15.9740 H         1 UNK         0.3133 
    112 H112      -52.2954  -24.0992   18.5149 H         1 UNK         0.0566 
    113 H113      -51.9538  -25.8195   20.2789 H         1 UNK         0.0814 
    114 H114      -52.7431  -27.0330   19.2723 H         1 UNK         0.0814 
    115 H115      -53.6540  -25.6565   19.8729 H         1 UNK         0.0814 
    116 H116      -50.2671  -24.7221   17.8939 H         1 UNK         0.3091 
    117 H117      -48.4494  -26.6895   17.9339 H         1 UNK         0.0702 
    118 H118      -47.4890  -27.9799   16.0271 H         1 UNK         0.0785 
    119 H119      -49.0728  -28.0326   15.2562 H         1 UNK         0.0785 
    120 H120      -48.8097  -28.8482   16.7916 H         1 UNK         0.0785 
    121 H121      -48.4081  -25.6411   15.2177 H         1 UNK         0.2998 
    122 H122      -48.1927  -22.2288   16.1820 H         1 UNK         0.0697 
    123 H123      -46.0008  -24.0485   15.0451 H         1 UNK         0.0825 
    124 H124      -45.8367  -23.0301   16.4701 H         1 UNK         0.0825 
    125 H125      -46.0751  -22.2944   14.8930 H         1 UNK         0.0825 
    126 H126      -47.9646  -23.3929   13.6248 H         1 UNK         0.3029 
    127 H127      -51.4587  -23.7653   12.9146 H         1 UNK         0.0897 
    128 H128      -49.2216  -21.9670   11.8573 H         1 UNK         0.0792 
    129 H129      -50.8228  -21.4487   12.3565 H         1 UNK         0.0792 
    130 H130      -50.6387  -22.4735   10.9407 H         1 UNK         0.0792 
    131 H131      -49.2333  -24.5003   11.3447 H         1 UNK         0.3086 
    132 H132      -48.7798  -27.8153   12.6316 H         1 UNK         0.0583 
    133 H133      -50.6555  -28.0214   11.0471 H         1 UNK         0.1020 
    134 H134      -49.9961  -26.7657   10.0287 H         1 UNK         0.1020 
    135 H135      -48.4592  -31.0957   10.4393 H         1 UNK         0.0694 
    136 H136      -49.2281  -30.1879   11.7162 H         1 UNK         0.0694 
    137 H137      -47.4937  -26.1931   10.6192 H         1 UNK         0.2989 
    138 H138      -44.8956  -25.0158   12.7552 H         1 UNK         0.1055 
    139 H139      -44.8560  -27.0999   10.4988 H         1 UNK         0.0806 
    140 H140      -43.4870  -26.1230   11.0320 H         1 UNK         0.0806 
    141 H141      -44.1817  -27.3240   12.1068 H         1 UNK         0.0806 
    142 H142      -45.3783  -24.7158    9.9505 H         1 UNK         0.3061 
    143 H143      -47.5505  -21.9076   10.1379 H         1 UNK         0.0734 
    144 H144      -44.6015  -22.0745    9.3135 H         1 UNK         0.0832 
    145 H145      -45.7600  -20.8471    8.7987 H         1 UNK         0.0832 
    146 H146      -45.2693  -20.9425   10.4806 H         1 UNK         0.0832 
    147 H147      -46.4062  -23.1111    7.8774 H         1 UNK         0.3156 
    148 H148      -47.8266  -24.1786    6.4306 H         1 UNK         0.0589 
    149 H149      -47.3670  -26.6381    6.2309 H         1 UNK         0.0808 
    150 H150      -46.2122  -25.8639    7.3010 H         1 UNK         0.0808 
    151 H151      -47.5228  -26.8181    7.9767 H         1 UNK         0.0808 
    152 H152      -49.7961  -26.1752    7.2618 H         1 UNK         0.3098 
    153 H153      -52.3895  -24.7335    7.4548 H         1 UNK         0.0720 
    154 H154      -53.8056  -24.7089    5.3882 H         1 UNK         0.0791 
    155 H155      -52.3642  -24.4153    4.4157 H         1 UNK         0.0791 
    156 H156      -52.8880  -23.2285    5.5979 H         1 UNK         0.0791 
    157 H157      -52.3971  -26.9277    7.1709 H         1 UNK         0.3028 
@<TRIPOS>BOND
     1    1    2 1    
     2    1   82 1    
     3    1   83 1    
     4    1   84 1    
     5    2    3 2    
     6    2    4 am   BACKBONE|DICT|INTERRES
     7    4    5 1    
     8    4   85 1    
     9    5    6 1    
    10    5   80 1    
    11    5   86 1    
    12    6    7 1    
    13    6   87 1    
    14    6   88 1    
    15    7    8 1    
    16    8    9 1    
    17    8   89 1    
    18    8   90 1    
    19    9   10 ar   
    20    9   14 ar   
    21   10   11 ar   
    22   10   91 1    
    23   11   12 ar   
    24   11   58 1    
    25   12   13 ar   
    26   12   92 1    
    27   13   14 ar   
    28   13   15 1    
    29   14   93 1    
    30   15   16 1    
    31   15   94 1    
    32   15   95 1    
    33   16   17 1    
    34   17   18 1    
    35   17   96 1    
    36   17   97 1    
    37   18   19 1    
    38   18   22 1    
    39   18   98 1    
    40   19   20 am   BACKBONE|DICT|INTERRES
    41   19   21 2    
    42   20   99 1    
    43   20  100 1    
    44   22   23 am   BACKBONE|DICT|INTERRES
    45   22  101 1    
    46   23   24 2    
    47   23   25 1    
    48   25   26 1    
    49   25   27 1    
    50   25  102 1    
    51   26  103 1    
    52   26  104 1    
    53   26  105 1    
    54   27   28 am   BACKBONE|DICT|INTERRES
    55   27  106 1    
    56   28   29 2    
    57   28   30 1    
    58   30   31 1    
    59   30   32 1    
    60   30  107 1    
    61   31  108 1    
    62   31  109 1    
    63   31  110 1    
    64   32   33 am   BACKBONE|DICT|INTERRES
    65   32  111 1    
    66   33   34 2    
    67   33   35 1    
    68   35   36 1    
    69   35   37 1    
    70   35  112 1    
    71   36  113 1    
    72   36  114 1    
    73   36  115 1    
    74   37   38 am   BACKBONE|DICT|INTERRES
    75   37  116 1    
    76   38   39 2    
    77   38   40 1    
    78   40   41 1    
    79   40   42 1    
    80   40  117 1    
    81   41  118 1    
    82   41  119 1    
    83   41  120 1    
    84   42   43 am   BACKBONE|DICT|INTERRES
    85   42  121 1    
    86   43   44 2    
    87   43   45 1    
    88   45   46 1    
    89   45   47 1    
    90   45  122 1    
    91   46  123 1    
    92   46  124 1    
    93   46  125 1    
    94   47   48 am   BACKBONE|DICT|INTERRES
    95   47  126 1    
    96   48   49 2    
    97   48   50 1    
    98   50   51 1    
    99   50   52 1    
   100   50  127 1    
   101   51  128 1    
   102   51  129 1    
   103   51  130 1    
   104   52   53 am   BACKBONE|DICT|INTERRES
   105   52  131 1    
   106   53   54 2    
   107   53   55 1    
   108   55   56 1    
   109   55   59 1    
   110   55  132 1    
   111   56   57 1    
   112   56  133 1    
   113   56  134 1    
   114   57   58 1    
   115   58  135 1    
   116   58  136 1    
   117   59   60 am   BACKBONE|DICT|INTERRES
   118   59  137 1    
   119   60   61 2    
   120   60   62 1    
   121   62   63 1    
   122   62   64 1    
   123   62  138 1    
   124   63  139 1    
   125   63  140 1    
   126   63  141 1    
   127   64   65 am   BACKBONE|DICT|INTERRES
   128   64  142 1    
   129   65   66 2    
   130   65   67 1    
   131   67   68 1    
   132   67   69 1    
   133   67  143 1    
   134   68  144 1    
   135   68  145 1    
   136   68  146 1    
   137   69   70 am   BACKBONE|DICT|INTERRES
   138   69  147 1    
   139   70   71 2    
   140   70   72 1    
   141   72   73 1    
   142   72   74 1    
   143   72  148 1    
   144   73  149 1    
   145   73  150 1    
   146   73  151 1    
   147   74   75 am   BACKBONE|DICT|INTERRES
   148   74  152 1    
   149   75   76 2    
   150   75   77 1    
   151   77   78 1    
   152   77   79 1    
   153   77  153 1    
   154   78  154 1    
   155   78  155 1    
   156   78  156 1    
   157   79   80 am   BACKBONE|DICT|INTERRES
   158   79  157 1    
   159   80   81 2    
@<TRIPOS>SUBSTRUCTURE
     1 UNK         1 GROUP             0       ****    0 ROOT    
