@<TRIPOS>MOLECULE
3R207
157   159    1
SMALL
USER_CHARGES


@<TRIPOS>ATOM
      1 CA        -45.1778  -29.7335    5.1124 C.3       0 UNK        -0.1975 
      2 C         -45.9519  -29.9066    6.4172 C.2       0 UNK         0.4852 
      3 O         -45.3340  -30.1624    7.4486 O.2       0 UNK        -0.5216 
      4 N         -47.2890  -29.7922    6.4357 N.am      1 UNK        -0.4461 
      5 CA        -48.1879  -29.4686    5.3173 C.3       1 UNK         0.0864 
      6 C6        -49.6737  -29.5993    5.7308 C.3       14 UNK        -0.0898 
      7 S7        -50.1236  -31.2700    6.3106 S.3       14 UNK        -0.2598 
      8 C8        -51.9410  -31.2268    6.1575 C.3       14 UNK         0.0286 
      9 C9        -52.5852  -30.3443    7.2193 C.ar      14 UNK        -0.0844 
     10 C10       -52.6718  -28.9625    7.0252 C.ar      14 UNK        -0.0881 
     11 C11       -53.2280  -28.1368    8.0050 C.ar      14 UNK        -0.0643 
     12 C12       -53.7478  -28.7088    9.1678 C.ar      14 UNK        -0.0930 
     13 C13       -53.6959  -30.0930    9.3642 C.ar      14 UNK        -0.0827 
     14 C14       -53.1025  -30.9055    8.3921 C.ar      14 UNK        -0.1249 
     15 C15       -54.2836  -30.6986   10.6297 C.3       14 UNK         0.0141 
     16 S16       -53.1320  -30.5017   12.0215 S.3       14 UNK        -0.2313 
     17 C17       -54.2040  -30.6978   13.4918 C.3       14 UNK        -0.0915 
     18 CA        -55.3449  -29.6466   13.6337 C.3       13 UNK         0.0968 
     19 C         -56.0364  -29.7242   15.0220 C.2       13 UNK         0.5732 
     20 N         -56.6446  -30.8574   15.3466 N.am      13 UNK        -0.7310 
     21 O         -56.0335  -28.7803   15.8108 O.2       13 UNK        -0.5035 
     22 N         -54.8811  -28.2845   13.3380 N.am      13 UNK        -0.4233 
     23 C         -55.4397  -27.4719   12.4342 C.2       13 UNK         0.4989 
     24 O         -56.4299  -27.7650   11.7609 O.2       13 UNK        -0.4996 
     25 CA        -54.7461  -26.1153   12.2223 C.3       12 UNK         0.0216 
     26 CB        -55.4792  -25.1987   11.2179 C.3       12 UNK        -0.1964 
     27 N         -54.4792  -25.4148   13.4822 N.am      12 UNK        -0.4276 
     28 C         -55.3871  -24.9799   14.3680 C.2       12 UNK         0.5020 
     29 O         -56.6056  -25.1002   14.2267 O.2       12 UNK        -0.5489 
     30 CA        -54.8284  -24.3399   15.6440 C.3       11 UNK         0.0294 
     31 CB        -55.9263  -23.7201   16.5364 C.3       11 UNK        -0.2019 
     32 N         -54.0896  -25.3645   16.3725 N.am      11 UNK        -0.4493 
     33 C         -53.2146  -25.1563   17.3586 C.2       11 UNK         0.4932 
     34 O         -52.9193  -24.0448   17.7979 O.2       11 UNK        -0.5029 
     35 CA        -52.5637  -26.4071   17.9697 C.3       10 UNK         0.0280 
     36 CB        -53.6051  -27.4488   18.4299 C.3       10 UNK        -0.1976 
     37 N         -51.5503  -27.0083   17.0991 N.am      10 UNK        -0.4242 
     38 C         -51.6929  -27.5674   15.8895 C.2       10 UNK         0.5072 
     39 O         -52.7658  -27.6635   15.2854 O.2       10 UNK        -0.5224 
     40 CA        -50.3957  -28.1175   15.2661 C.3       9 UNK         0.0343 
     41 CB        -50.6550  -28.9375   13.9938 C.3       9 UNK        -0.2003 
     42 N         -49.4379  -27.0549   14.9570 N.am      9 UNK        -0.4272 
     43 C         -48.6745  -26.4078   15.8479 C.2       9 UNK         0.4988 
     44 O         -48.6871  -26.6485   17.0567 O.2       9 UNK        -0.5108 
     45 CA        -47.7534  -25.3001   15.3093 C.3       8 UNK         0.0248 
     46 CB        -46.4464  -25.9004   14.7679 C.3       8 UNK        -0.2001 
     47 N         -48.3913  -24.4797   14.2758 N.am      8 UNK        -0.4140 
     48 C         -49.4224  -23.6514   14.5008 C.2       8 UNK         0.5028 
     49 O         -49.9011  -23.4414   15.6155 O.2       8 UNK        -0.5428 
     50 CA        -50.0324  -22.9389   13.2812 C.3       7 UNK         0.0264 
     51 CB        -49.2227  -21.6826   12.9228 C.3       7 UNK        -0.1988 
     52 N         -50.1476  -23.8020   12.1035 N.am      7 UNK        -0.4454 
     53 C         -50.9264  -24.8925   12.0306 C.2       7 UNK         0.5027 
     54 O         -51.6653  -25.2633   12.9430 O.2       7 UNK        -0.5083 
     55 CA        -50.8402  -25.7213   10.7288 C.3       6 UNK         0.0844 
     56 C56       -51.6996  -25.0599    9.6192 C.3       14 UNK        -0.0967 
     57 S57       -51.6101  -25.8959    7.9976 S.3       14 UNK        -0.2604 
     58 C58       -53.2647  -26.6317    7.7916 C.3       14 UNK         0.0134 
     59 N         -49.4431  -25.9433   10.3322 N.am      6 UNK        -0.4116 
     60 C         -48.5256  -26.5696   11.0865 C.2       5 UNK         0.5034 
     61 O         -48.7674  -27.0907   12.1728 O.2       5 UNK        -0.5045 
     62 CA        -47.0758  -26.5577   10.5845 C.3       5 UNK         0.0224 
     63 CB        -46.8294  -27.6893    9.5736 C.3       5 UNK        -0.1978 
     64 N         -46.7235  -25.2612   10.0035 N.am      5 UNK        -0.4737 
     65 C         -46.5294  -24.1467   10.7232 C.2       4 UNK         0.5027 
     66 O         -46.5738  -24.1146   11.9523 O.2       4 UNK        -0.5211 
     67 CA        -46.2831  -22.8427    9.9441 C.3       4 UNK         0.0297 
     68 CB        -44.7913  -22.6895    9.6097 C.3       4 UNK        -0.1993 
     69 N         -47.0735  -22.7537    8.7138 N.am      4 UNK        -0.4486 
     70 C         -48.4114  -22.6805    8.6772 C.2       3 UNK         0.4961 
     71 O         -49.1204  -22.6198    9.6815 O.2       3 UNK        -0.5105 
     72 CA        -49.0753  -22.7390    7.2887 C.3       3 UNK         0.0299 
     73 CB        -49.2092  -21.3261    6.6997 C.3       3 UNK        -0.1972 
     74 N         -48.4019  -23.6159    6.3187 N.am      3 UNK        -0.4305 
     75 C         -48.1223  -24.9113    6.5181 C.2       2 UNK         0.5006 
     76 O         -48.3135  -25.4965    7.5867 O.2       2 UNK        -0.5106 
     77 CA        -47.4889  -25.6779    5.3521 C.3       2 UNK         0.0296 
     78 CB        -45.9912  -25.3501    5.2225 C.3       2 UNK        -0.2002 
     79 N         -47.6488  -27.1011    5.6279 N.am      2 UNK        -0.4032 
     80 C         -47.9443  -28.0568    4.7418 C.2       1 UNK         0.5000 
     81 O         -48.0214  -27.8714    3.5265 O.2       1 UNK        -0.5238 
     82 H82       -45.0141  -28.6766    4.9037 H         1 UNK         0.0889 
     83 H83       -45.6947  -30.1839    4.2664 H         1 UNK         0.0889 
     84 H84       -44.2017  -30.2124    5.1873 H         1 UNK         0.0889 
     85 H85       -47.7618  -29.9673    7.3107 H         1 UNK         0.3028 
     86 H86       -48.0008  -30.1869    4.5169 H         1 UNK         0.0864 
     87 H87       -50.3202  -29.3483    4.8872 H         1 UNK         0.0720 
     88 H88       -49.9079  -28.8893    6.5268 H         1 UNK         0.0720 
     89 H89       -52.2211  -30.8837    5.1603 H         1 UNK         0.0814 
     90 H90       -52.3212  -32.2461    6.2413 H         1 UNK         0.0814 
     91 H91       -52.2840  -28.5190    6.1191 H         1 UNK         0.1469 
     92 H92       -54.1920  -28.0775    9.9223 H         1 UNK         0.1381 
     93 H93       -53.0451  -31.9743    8.5475 H         1 UNK         0.1206 
     94 H94       -55.2332  -30.2097   10.8443 H         1 UNK         0.0813 
     95 H95       -54.5053  -31.7577   10.4903 H         1 UNK         0.0813 
     96 H96       -53.5508  -30.6546   14.3650 H         1 UNK         0.0638 
     97 H97       -54.6174  -31.7074   13.4759 H         1 UNK         0.0638 
     98 H98       -56.1246  -29.9200   12.9222 H         1 UNK         0.0568 
     99 H99       -57.0983  -30.9256   16.2440 H         1 UNK         0.3450 
    100 H100      -56.6639  -31.6425   14.7151 H         1 UNK         0.3450 
    101 H101      -54.1019  -27.9615   13.9057 H         1 UNK         0.2987 
    102 H102      -53.7737  -26.3539   11.7920 H         1 UNK         0.0766 
    103 H103      -54.9350  -24.2679   11.0592 H         1 UNK         0.0798 
    104 H104      -56.4837  -24.9451   11.5574 H         1 UNK         0.0798 
    105 H105      -55.5827  -25.6851   10.2477 H         1 UNK         0.0798 
    106 H106      -53.4893  -25.2981   13.6903 H         1 UNK         0.3198 
    107 H107      -54.1357  -23.5516   15.3410 H         1 UNK         0.0843 
    108 H108      -56.6159  -24.4785   16.9090 H         1 UNK         0.0831 
    109 H109      -56.5134  -22.9882   15.9802 H         1 UNK         0.0831 
    110 H110      -55.5023  -23.2022   17.3964 H         1 UNK         0.0831 
    111 H111      -54.1863  -26.3164   16.0306 H         1 UNK         0.3133 
    112 H112      -52.0280  -26.0752   18.8604 H         1 UNK         0.0566 
    113 H113      -53.1316  -28.2571   18.9870 H         1 UNK         0.0814 
    114 H114      -54.3463  -26.9936   19.0881 H         1 UNK         0.0814 
    115 H115      -54.1448  -27.8965   17.5954 H         1 UNK         0.0814 
    116 H116      -50.5929  -26.9235   17.4308 H         1 UNK         0.3091 
    117 H117      -49.9417  -28.7883   15.9984 H         1 UNK         0.0702 
    118 H118      -51.2982  -29.7888   14.2129 H         1 UNK         0.0785 
    119 H119      -51.1414  -28.3409   13.2204 H         1 UNK         0.0785 
    120 H120      -49.7287  -29.3332   13.5775 H         1 UNK         0.0785 
    121 H121      -49.3364  -26.8244   13.9718 H         1 UNK         0.2998 
    122 H122      -47.5016  -24.6446   16.1455 H         1 UNK         0.0697 
    123 H123      -46.6259  -26.5571   13.9165 H         1 UNK         0.0825 
    124 H124      -45.9408  -26.4899   15.5340 H         1 UNK         0.0825 
    125 H125      -45.7539  -25.1211   14.4492 H         1 UNK         0.0825 
    126 H126      -48.0009  -24.5353   13.3401 H         1 UNK         0.3029 
    127 H127      -51.0414  -22.6250   13.5575 H         1 UNK         0.0897 
    128 H128      -49.6931  -21.1259   12.1120 H         1 UNK         0.0792 
    129 H129      -48.2078  -21.9315   12.6114 H         1 UNK         0.0792 
    130 H130      -49.1470  -21.0095   13.7779 H         1 UNK         0.0792 
    131 H131      -49.6172  -23.5227   11.2808 H         1 UNK         0.3086 
    132 H132      -51.2674  -26.7043   10.9392 H         1 UNK         0.0583 
    133 H133      -52.7397  -24.9957    9.9393 H         1 UNK         0.1020 
    134 H134      -51.3838  -24.0277    9.4593 H         1 UNK         0.1020 
    135 H135      -53.9894  -26.1587    8.4540 H         1 UNK         0.0694 
    136 H136      -53.6098  -26.4258    6.7773 H         1 UNK         0.0694 
    137 H137      -49.1638  -25.5888    9.4228 H         1 UNK         0.2989 
    138 H138      -46.4235  -26.7299   11.4436 H         1 UNK         0.1055 
    139 H139      -46.9557  -28.6627   10.0493 H         1 UNK         0.0806 
    140 H140      -45.8160  -27.6562    9.1731 H         1 UNK         0.0806 
    141 H141      -47.5251  -27.6526    8.7368 H         1 UNK         0.0806 
    142 H142      -46.7865  -25.1866    8.9960 H         1 UNK         0.3061 
    143 H143      -46.5753  -22.0122   10.5905 H         1 UNK         0.0734 
    144 H144      -44.5874  -21.7317    9.1308 H         1 UNK         0.0832 
    145 H145      -44.1840  -22.7324   10.5152 H         1 UNK         0.0832 
    146 H146      -44.4407  -23.4805    8.9454 H         1 UNK         0.0832 
    147 H147      -46.5728  -22.8002    7.8385 H         1 UNK         0.3156 
    148 H148      -50.0806  -23.1398    7.4325 H         1 UNK         0.0589 
    149 H149      -48.2360  -20.8826    6.4857 H         1 UNK         0.0808 
    150 H150      -49.7870  -21.3335    5.7752 H         1 UNK         0.0808 
    151 H151      -49.7246  -20.6611    7.3946 H         1 UNK         0.0808 
    152 H152      -48.1950  -23.2117    5.4163 H         1 UNK         0.3098 
    153 H153      -48.0139  -25.4094    4.4328 H         1 UNK         0.0720 
    154 H154      -45.4455  -25.5873    6.1369 H         1 UNK         0.0791 
    155 H155      -45.8342  -24.2919    5.0108 H         1 UNK         0.0791 
    156 H156      -45.5347  -25.9125    4.4077 H         1 UNK         0.0791 
    157 H157      -47.6858  -27.3215    6.6147 H         1 UNK         0.3028 
@<TRIPOS>BOND
     1    1    2 1    
     2    1   82 1    
     3    1   83 1    
     4    1   84 1    
     5    2    3 2    
     6    2    4 am   BACKBONE|DICT|INTERRES
     7    4    5 1    
     8    4   85 1    
     9    5    6 1    
    10    5   80 1    
    11    5   86 1    
    12    6    7 1    
    13    6   87 1    
    14    6   88 1    
    15    7    8 1    
    16    8    9 1    
    17    8   89 1    
    18    8   90 1    
    19    9   10 ar   
    20    9   14 ar   
    21   10   11 ar   
    22   10   91 1    
    23   11   12 ar   
    24   11   58 1    
    25   12   13 ar   
    26   12   92 1    
    27   13   14 ar   
    28   13   15 1    
    29   14   93 1    
    30   15   16 1    
    31   15   94 1    
    32   15   95 1    
    33   16   17 1    
    34   17   18 1    
    35   17   96 1    
    36   17   97 1    
    37   18   19 1    
    38   18   22 1    
    39   18   98 1    
    40   19   20 am   BACKBONE|DICT|INTERRES
    41   19   21 2    
    42   20   99 1    
    43   20  100 1    
    44   22   23 am   BACKBONE|DICT|INTERRES
    45   22  101 1    
    46   23   24 2    
    47   23   25 1    
    48   25   26 1    
    49   25   27 1    
    50   25  102 1    
    51   26  103 1    
    52   26  104 1    
    53   26  105 1    
    54   27   28 am   BACKBONE|DICT|INTERRES
    55   27  106 1    
    56   28   29 2    
    57   28   30 1    
    58   30   31 1    
    59   30   32 1    
    60   30  107 1    
    61   31  108 1    
    62   31  109 1    
    63   31  110 1    
    64   32   33 am   BACKBONE|DICT|INTERRES
    65   32  111 1    
    66   33   34 2    
    67   33   35 1    
    68   35   36 1    
    69   35   37 1    
    70   35  112 1    
    71   36  113 1    
    72   36  114 1    
    73   36  115 1    
    74   37   38 am   BACKBONE|DICT|INTERRES
    75   37  116 1    
    76   38   39 2    
    77   38   40 1    
    78   40   41 1    
    79   40   42 1    
    80   40  117 1    
    81   41  118 1    
    82   41  119 1    
    83   41  120 1    
    84   42   43 am   BACKBONE|DICT|INTERRES
    85   42  121 1    
    86   43   44 2    
    87   43   45 1    
    88   45   46 1    
    89   45   47 1    
    90   45  122 1    
    91   46  123 1    
    92   46  124 1    
    93   46  125 1    
    94   47   48 am   BACKBONE|DICT|INTERRES
    95   47  126 1    
    96   48   49 2    
    97   48   50 1    
    98   50   51 1    
    99   50   52 1    
   100   50  127 1    
   101   51  128 1    
   102   51  129 1    
   103   51  130 1    
   104   52   53 am   BACKBONE|DICT|INTERRES
   105   52  131 1    
   106   53   54 2    
   107   53   55 1    
   108   55   56 1    
   109   55   59 1    
   110   55  132 1    
   111   56   57 1    
   112   56  133 1    
   113   56  134 1    
   114   57   58 1    
   115   58  135 1    
   116   58  136 1    
   117   59   60 am   BACKBONE|DICT|INTERRES
   118   59  137 1    
   119   60   61 2    
   120   60   62 1    
   121   62   63 1    
   122   62   64 1    
   123   62  138 1    
   124   63  139 1    
   125   63  140 1    
   126   63  141 1    
   127   64   65 am   BACKBONE|DICT|INTERRES
   128   64  142 1    
   129   65   66 2    
   130   65   67 1    
   131   67   68 1    
   132   67   69 1    
   133   67  143 1    
   134   68  144 1    
   135   68  145 1    
   136   68  146 1    
   137   69   70 am   BACKBONE|DICT|INTERRES
   138   69  147 1    
   139   70   71 2    
   140   70   72 1    
   141   72   73 1    
   142   72   74 1    
   143   72  148 1    
   144   73  149 1    
   145   73  150 1    
   146   73  151 1    
   147   74   75 am   BACKBONE|DICT|INTERRES
   148   74  152 1    
   149   75   76 2    
   150   75   77 1    
   151   77   78 1    
   152   77   79 1    
   153   77  153 1    
   154   78  154 1    
   155   78  155 1    
   156   78  156 1    
   157   79   80 am   BACKBONE|DICT|INTERRES
   158   79  157 1    
   159   80   81 2    
@<TRIPOS>SUBSTRUCTURE
     1 UNK         1 GROUP             0       ****    0 ROOT    
