@<TRIPOS>MOLECULE
3R207
157   159    1
SMALL
USER_CHARGES


@<TRIPOS>ATOM
      1 CA        -47.4663  -30.6585    7.0656 C.3       0 UNK        -0.1975 
      2 C         -47.9229  -29.6147    6.0571 C.2       0 UNK         0.4852 
      3 O         -47.4045  -28.4995    6.0569 O.2       0 UNK        -0.5216 
      4 N         -48.8896  -29.9697    5.1976 N.am      1 UNK        -0.4461 
      5 CA        -49.3902  -29.1570    4.0793 C.3       1 UNK         0.0864 
      6 C6        -50.3323  -29.9831    3.1570 C.3       14 UNK        -0.0898 
      7 S7        -52.1226  -29.9855    3.5395 S.3       14 UNK        -0.2598 
      8 C8        -52.2663  -31.1329    4.9489 C.3       14 UNK         0.0286 
      9 C9        -52.4297  -30.3814    6.2642 C.ar      14 UNK        -0.0844 
     10 C10       -51.4508  -30.4526    7.2610 C.ar      14 UNK        -0.0881 
     11 C11       -51.5989  -29.7413    8.4562 C.ar      14 UNK        -0.0643 
     12 C12       -52.7534  -28.9834    8.6635 C.ar      14 UNK        -0.0930 
     13 C13       -53.7502  -28.9218    7.6874 C.ar      14 UNK        -0.0827 
     14 C14       -53.5803  -29.6183    6.4887 C.ar      14 UNK        -0.1249 
     15 C15       -55.0043  -28.0931    7.9259 C.3       14 UNK         0.0141 
     16 S16       -56.4654  -29.1280    8.2671 S.3       14 UNK        -0.2313 
     17 C17       -56.0266  -29.8883    9.8664 C.3       14 UNK        -0.0915 
     18 CA        -56.4882  -29.0405   11.0857 C.3       13 UNK         0.0968 
     19 C         -57.9243  -29.3928   11.5566 C.2       13 UNK         0.5732 
     20 N         -58.9300  -29.1209   10.7374 N.am      13 UNK        -0.7310 
     21 O         -58.1371  -29.9191   12.6487 O.2       13 UNK        -0.5035 
     22 N         -55.5325  -29.1386   12.1938 N.am      13 UNK        -0.4233 
     23 C         -54.4678  -28.3522   12.3691 C.2       13 UNK         0.4989 
     24 O         -54.1363  -27.4478   11.5994 O.2       13 UNK        -0.4996 
     25 CA        -53.6051  -28.6427   13.6046 C.3       12 UNK         0.0216 
     26 CB        -52.3131  -29.3780   13.2151 C.3       12 UNK        -0.1964 
     27 N         -53.2643  -27.3959   14.2854 N.am      12 UNK        -0.4276 
     28 C         -54.0805  -26.7652   15.1341 C.2       12 UNK         0.5020 
     29 O         -55.1924  -27.1880   15.4669 O.2       12 UNK        -0.5489 
     30 CA        -53.5743  -25.4473   15.7259 C.3       11 UNK         0.0294 
     31 CB        -54.0238  -24.2455   14.8777 C.3       11 UNK        -0.2019 
     32 N         -54.1269  -25.3604   17.0769 N.am      11 UNK        -0.4493 
     33 C         -53.6776  -24.7267   18.1692 C.2       11 UNK         0.4932 
     34 O         -54.2866  -24.8133   19.2354 O.2       11 UNK        -0.5029 
     35 CA        -52.3870  -23.8755   18.1082 C.3       10 UNK         0.0280 
     36 CB        -52.0782  -23.1581   19.4395 C.3       10 UNK        -0.1976 
     37 N         -51.2057  -24.6173   17.6606 N.am      10 UNK        -0.4242 
     38 C         -50.7008  -25.7616   18.1507 C.2       10 UNK         0.5072 
     39 O         -51.1473  -26.3466   19.1381 O.2       10 UNK        -0.5224 
     40 CA        -49.4983  -26.3808   17.4049 C.3       9 UNK         0.0343 
     41 CB        -49.9393  -27.6234   16.6125 C.3       9 UNK        -0.2003 
     42 N         -48.8303  -25.4511   16.4902 N.am      9 UNK        -0.4272 
     43 C         -48.1135  -24.3848   16.8736 C.2       9 UNK         0.4988 
     44 O         -47.8321  -24.1396   18.0471 O.2       9 UNK        -0.5108 
     45 CA        -47.6586  -23.4037   15.7772 C.3       8 UNK         0.0248 
     46 CB        -46.1772  -23.6377   15.4407 C.3       8 UNK        -0.2001 
     47 N         -48.4521  -23.4403   14.5408 N.am      8 UNK        -0.4140 
     48 C         -49.7709  -23.2105   14.4431 C.2       8 UNK         0.5028 
     49 O         -50.4961  -22.9692   15.4075 O.2       8 UNK        -0.5428 
     50 CA        -50.3975  -23.3157   13.0432 C.3       7 UNK         0.0264 
     51 CB        -50.1849  -22.0194   12.2458 C.3       7 UNK        -0.1988 
     52 N         -49.8810  -24.4559   12.2840 N.am      7 UNK        -0.4454 
     53 C         -50.1401  -25.7403   12.5732 C.2       7 UNK         0.5027 
     54 O         -50.8911  -26.0989   13.4820 O.2       7 UNK        -0.5083 
     55 CA        -49.4133  -26.8009   11.7245 C.3       6 UNK         0.0844 
     56 C56       -50.2081  -27.1106   10.4303 C.3       14 UNK        -0.0967 
     57 S57       -49.3860  -28.3740    9.3974 S.3       14 UNK        -0.2604 
     58 C58       -50.5157  -29.7959    9.5229 C.3       14 UNK         0.0134 
     59 N         -48.0341  -26.3858   11.4553 N.am      6 UNK        -0.4116 
     60 C         -47.0427  -26.3954   12.3579 C.2       5 UNK         0.5034 
     61 O         -47.1721  -26.8009   13.5132 O.2       5 UNK        -0.5045 
     62 CA        -45.6789  -25.8363   11.9078 C.3       5 UNK         0.0224 
     63 CB        -44.8082  -26.9602   11.3238 C.3       5 UNK        -0.1978 
     64 N         -45.7820  -24.7483   10.9298 N.am      5 UNK        -0.4737 
     65 C         -46.3674  -23.5647   11.1610 C.2       4 UNK         0.5027 
     66 O         -46.8280  -23.2380   12.2522 O.2       4 UNK        -0.5211 
     67 CA        -46.5292  -22.6089    9.9643 C.3       4 UNK         0.0297 
     68 CB        -45.3469  -21.6299    9.9004 C.3       4 UNK        -0.1993 
     69 N         -46.6821  -23.2806    8.6666 N.am      4 UNK        -0.4486 
     70 C         -47.6124  -24.2015    8.3765 C.2       3 UNK         0.4961 
     71 O         -48.4451  -24.6021    9.1931 O.2       3 UNK        -0.5105 
     72 CA        -47.5484  -24.8060    6.9617 C.3       3 UNK         0.0299 
     73 CB        -46.2353  -25.5838    6.7640 C.3       3 UNK        -0.1972 
     74 N         -48.6696  -25.7083    6.6896 N.am      3 UNK        -0.4305 
     75 C         -49.9417  -25.3246    6.5039 C.2       2 UNK         0.5006 
     76 O         -50.2953  -24.1442    6.4558 O.2       2 UNK        -0.5106 
     77 CA        -50.9936  -26.4445    6.3519 C.3       2 UNK         0.0296 
     78 CB        -52.2873  -25.9704    5.6562 C.3       2 UNK        -0.2002 
     79 N         -50.4716  -27.6558    5.7101 N.am      2 UNK        -0.4032 
     80 C         -49.9558  -27.7713    4.4755 C.2       1 UNK         0.5000 
     81 O         -49.8837  -26.8441    3.6662 O.2       1 UNK        -0.5238 
     82 H82       -48.0928  -31.5497    7.0477 H         1 UNK         0.0889 
     83 H83       -47.4903  -30.2470    8.0737 H         1 UNK         0.0889 
     84 H84       -46.4417  -30.9595    6.8495 H         1 UNK         0.0889 
     85 H85       -49.2520  -30.9102    5.2376 H         1 UNK         0.3028 
     86 H86       -48.5002  -28.9354    3.4856 H         1 UNK         0.0864 
     87 H87       -49.9858  -31.0144    3.0720 H         1 UNK         0.0720 
     88 H88       -50.2500  -29.5816    2.1455 H         1 UNK         0.0720 
     89 H89       -51.4113  -31.8092    4.9774 H         1 UNK         0.0814 
     90 H90       -53.1441  -31.7624    4.7960 H         1 UNK         0.0814 
     91 H91       -50.5716  -31.0616    7.1117 H         1 UNK         0.1469 
     92 H92       -52.8841  -28.4441    9.5891 H         1 UNK         0.1381 
     93 H93       -54.3465  -29.5660    5.7270 H         1 UNK         0.1206 
     94 H94       -55.2030  -27.4818    7.0446 H         1 UNK         0.0813 
     95 H95       -54.8572  -27.3962    8.7529 H         1 UNK         0.0813 
     96 H96       -54.9487  -30.0430    9.8893 H         1 UNK         0.0638 
     97 H97       -56.4504  -30.8936    9.9009 H         1 UNK         0.0638 
     98 H98       -56.5287  -27.9881   10.7973 H         1 UNK         0.0568 
     99 H99       -58.7583  -28.7174    9.8292 H         1 UNK         0.3450 
    100 H100      -59.8709  -29.3453   11.0205 H         1 UNK         0.3450 
    101 H101      -55.7793  -29.8201   12.8990 H         1 UNK         0.2987 
    102 H102      -54.1641  -29.2826   14.2912 H         1 UNK         0.0766 
    103 H103      -51.7268  -29.6395   14.0962 H         1 UNK         0.0798 
    104 H104      -51.6843  -28.7689   12.5682 H         1 UNK         0.0798 
    105 H105      -52.5332  -30.3047   12.6834 H         1 UNK         0.0798 
    106 H106      -52.3952  -26.9430   14.0021 H         1 UNK         0.3198 
    107 H107      -52.4882  -25.4938   15.7339 H         1 UNK         0.0843 
    108 H108      -55.1097  -24.1444   14.8672 H         1 UNK         0.0831 
    109 H109      -53.6979  -24.3584   13.8428 H         1 UNK         0.0831 
    110 H110      -53.6019  -23.3113   15.2465 H         1 UNK         0.0831 
    111 H111      -54.9500  -25.9439   17.1733 H         1 UNK         0.3133 
    112 H112      -52.5634  -23.1019   17.3608 H         1 UNK         0.0566 
    113 H113      -51.2035  -22.5140   19.3475 H         1 UNK         0.0814 
    114 H114      -52.9129  -22.5274   19.7479 H         1 UNK         0.0814 
    115 H115      -51.8881  -23.8666   20.2465 H         1 UNK         0.0814 
    116 H116      -50.7598  -24.2121   16.8407 H         1 UNK         0.3091 
    117 H117      -48.7729  -26.6943   18.1585 H         1 UNK         0.0702 
    118 H118      -49.0937  -28.0984   16.1144 H         1 UNK         0.0785 
    119 H119      -50.6797  -27.3767   15.8518 H         1 UNK         0.0785 
    120 H120      -50.3872  -28.3684   17.2714 H         1 UNK         0.0785 
    121 H121      -48.9905  -25.5892   15.5019 H         1 UNK         0.2998 
    122 H122      -47.7587  -22.3979   16.1899 H         1 UNK         0.0697 
    123 H123      -46.0197  -24.6170   14.9884 H         1 UNK         0.0825 
    124 H124      -45.5581  -23.5890   16.3377 H         1 UNK         0.0825 
    125 H125      -45.8013  -22.8826   14.7501 H         1 UNK         0.0825 
    126 H126      -47.9231  -23.5552   13.6775 H         1 UNK         0.3029 
    127 H127      -51.4721  -23.4584   13.1736 H         1 UNK         0.0897 
    128 H128      -50.6696  -22.0693   11.2705 H         1 UNK         0.0792 
    129 H129      -50.6092  -21.1650   12.7748 H         1 UNK         0.0792 
    130 H130      -49.1276  -21.8083   12.0844 H         1 UNK         0.0792 
    131 H131      -49.2524  -24.2528   11.5176 H         1 UNK         0.3086 
    132 H132      -49.3750  -27.7175   12.3172 H         1 UNK         0.0583 
    133 H133      -51.2174  -27.4353   10.6810 H         1 UNK         0.1020 
    134 H134      -50.3355  -26.2121    9.8250 H         1 UNK         0.1020 
    135 H135      -49.9319  -30.7109    9.4125 H         1 UNK         0.0694 
    136 H136      -50.9592  -29.8428   10.5176 H         1 UNK         0.0694 
    137 H137      -47.8686  -25.9848   10.5387 H         1 UNK         0.2989 
    138 H138      -45.1804  -25.4398   12.7948 H         1 UNK         0.1055 
    139 H139      -44.6924  -27.7754   12.0397 H         1 UNK         0.0806 
    140 H140      -43.8078  -26.6023   11.0797 H         1 UNK         0.0806 
    141 H141      -45.2459  -27.3823   10.4180 H         1 UNK         0.0806 
    142 H142      -45.4326  -24.9317   10.0007 H         1 UNK         0.3061 
    143 H143      -47.4402  -22.0321   10.1362 H         1 UNK         0.0734 
    144 H144      -45.4962  -20.8742    9.1291 H         1 UNK         0.0832 
    145 H145      -45.2270  -21.1019   10.8478 H         1 UNK         0.0832 
    146 H146      -44.4070  -22.1431    9.6932 H         1 UNK         0.0832 
    147 H147      -46.0319  -23.0100    7.9424 H         1 UNK         0.3156 
    148 H148      -47.5842  -23.9867    6.2409 H         1 UNK         0.0589 
    149 H149      -46.1411  -26.4019    7.4798 H         1 UNK         0.0808 
    150 H150      -46.1789  -26.0124    5.7630 H         1 UNK         0.0808 
    151 H151      -45.3618  -24.9420    6.8822 H         1 UNK         0.0808 
    152 H152      -48.4562  -26.6993    6.6976 H         1 UNK         0.3098 
    153 H153      -51.2609  -26.7388    7.3673 H         1 UNK         0.0720 
    154 H154      -52.0900  -25.5837    4.6561 H         1 UNK         0.0791 
    155 H155      -52.7686  -25.1744    6.2253 H         1 UNK         0.0791 
    156 H156      -53.0074  -26.7833    5.5645 H         1 UNK         0.0791 
    157 H157      -50.4957  -28.4899    6.2809 H         1 UNK         0.3028 
@<TRIPOS>BOND
     1    1    2 1    
     2    1   82 1    
     3    1   83 1    
     4    1   84 1    
     5    2    3 2    
     6    2    4 am   BACKBONE|DICT|INTERRES
     7    4    5 1    
     8    4   85 1    
     9    5    6 1    
    10    5   80 1    
    11    5   86 1    
    12    6    7 1    
    13    6   87 1    
    14    6   88 1    
    15    7    8 1    
    16    8    9 1    
    17    8   89 1    
    18    8   90 1    
    19    9   10 ar   
    20    9   14 ar   
    21   10   11 ar   
    22   10   91 1    
    23   11   12 ar   
    24   11   58 1    
    25   12   13 ar   
    26   12   92 1    
    27   13   14 ar   
    28   13   15 1    
    29   14   93 1    
    30   15   16 1    
    31   15   94 1    
    32   15   95 1    
    33   16   17 1    
    34   17   18 1    
    35   17   96 1    
    36   17   97 1    
    37   18   19 1    
    38   18   22 1    
    39   18   98 1    
    40   19   20 am   BACKBONE|DICT|INTERRES
    41   19   21 2    
    42   20   99 1    
    43   20  100 1    
    44   22   23 am   BACKBONE|DICT|INTERRES
    45   22  101 1    
    46   23   24 2    
    47   23   25 1    
    48   25   26 1    
    49   25   27 1    
    50   25  102 1    
    51   26  103 1    
    52   26  104 1    
    53   26  105 1    
    54   27   28 am   BACKBONE|DICT|INTERRES
    55   27  106 1    
    56   28   29 2    
    57   28   30 1    
    58   30   31 1    
    59   30   32 1    
    60   30  107 1    
    61   31  108 1    
    62   31  109 1    
    63   31  110 1    
    64   32   33 am   BACKBONE|DICT|INTERRES
    65   32  111 1    
    66   33   34 2    
    67   33   35 1    
    68   35   36 1    
    69   35   37 1    
    70   35  112 1    
    71   36  113 1    
    72   36  114 1    
    73   36  115 1    
    74   37   38 am   BACKBONE|DICT|INTERRES
    75   37  116 1    
    76   38   39 2    
    77   38   40 1    
    78   40   41 1    
    79   40   42 1    
    80   40  117 1    
    81   41  118 1    
    82   41  119 1    
    83   41  120 1    
    84   42   43 am   BACKBONE|DICT|INTERRES
    85   42  121 1    
    86   43   44 2    
    87   43   45 1    
    88   45   46 1    
    89   45   47 1    
    90   45  122 1    
    91   46  123 1    
    92   46  124 1    
    93   46  125 1    
    94   47   48 am   BACKBONE|DICT|INTERRES
    95   47  126 1    
    96   48   49 2    
    97   48   50 1    
    98   50   51 1    
    99   50   52 1    
   100   50  127 1    
   101   51  128 1    
   102   51  129 1    
   103   51  130 1    
   104   52   53 am   BACKBONE|DICT|INTERRES
   105   52  131 1    
   106   53   54 2    
   107   53   55 1    
   108   55   56 1    
   109   55   59 1    
   110   55  132 1    
   111   56   57 1    
   112   56  133 1    
   113   56  134 1    
   114   57   58 1    
   115   58  135 1    
   116   58  136 1    
   117   59   60 am   BACKBONE|DICT|INTERRES
   118   59  137 1    
   119   60   61 2    
   120   60   62 1    
   121   62   63 1    
   122   62   64 1    
   123   62  138 1    
   124   63  139 1    
   125   63  140 1    
   126   63  141 1    
   127   64   65 am   BACKBONE|DICT|INTERRES
   128   64  142 1    
   129   65   66 2    
   130   65   67 1    
   131   67   68 1    
   132   67   69 1    
   133   67  143 1    
   134   68  144 1    
   135   68  145 1    
   136   68  146 1    
   137   69   70 am   BACKBONE|DICT|INTERRES
   138   69  147 1    
   139   70   71 2    
   140   70   72 1    
   141   72   73 1    
   142   72   74 1    
   143   72  148 1    
   144   73  149 1    
   145   73  150 1    
   146   73  151 1    
   147   74   75 am   BACKBONE|DICT|INTERRES
   148   74  152 1    
   149   75   76 2    
   150   75   77 1    
   151   77   78 1    
   152   77   79 1    
   153   77  153 1    
   154   78  154 1    
   155   78  155 1    
   156   78  156 1    
   157   79   80 am   BACKBONE|DICT|INTERRES
   158   79  157 1    
   159   80   81 2    
@<TRIPOS>SUBSTRUCTURE
     1 UNK         1 GROUP             0       ****    0 ROOT    
