@<TRIPOS>MOLECULE
3R207
157   159    1
SMALL
USER_CHARGES


@<TRIPOS>ATOM
      1 CA        -49.5635  -31.6346    7.4674 C.3       0 UNK        -0.1975 
      2 C         -49.0920  -30.7652    6.3116 C.2       0 UNK         0.4852 
      3 O         -48.0365  -31.0317    5.7362 O.2       0 UNK        -0.5216 
      4 N         -49.8687  -29.7316    5.9625 N.am      1 UNK        -0.4461 
      5 CA        -49.6113  -28.8330    4.8289 C.3       1 UNK         0.0864 
      6 C6        -50.8746  -28.0418    4.3988 C.3       14 UNK        -0.0898 
      7 S7        -52.3593  -29.0704    4.1439 S.3       14 UNK        -0.2598 
      8 C8        -53.4737  -28.4085    5.4247 C.3       14 UNK         0.0286 
      9 C9        -53.1423  -28.9619    6.8026 C.ar      14 UNK        -0.0844 
     10 C10       -52.2504  -28.2925    7.6467 C.ar      14 UNK        -0.0881 
     11 C11       -51.9489  -28.8126    8.9074 C.ar      14 UNK        -0.0643 
     12 C12       -52.5706  -29.9871    9.3393 C.ar      14 UNK        -0.0930 
     13 C13       -53.4836  -30.6484    8.5162 C.ar      14 UNK        -0.0827 
     14 C14       -53.7501  -30.1416    7.2410 C.ar      14 UNK        -0.1249 
     15 C15       -54.1852  -31.9060    9.0098 C.3       14 UNK         0.0141 
     16 S16       -55.4636  -31.5391   10.2596 S.3       14 UNK        -0.2313 
     17 C17       -56.6647  -30.5519    9.2996 C.3       14 UNK        -0.0915 
     18 CA        -57.0964  -29.1927    9.9326 C.3       13 UNK         0.0968 
     19 C         -58.2500  -29.2905   10.9808 C.2       13 UNK         0.5732 
     20 N         -58.5517  -28.2212   11.7080 N.am      13 UNK        -0.7310 
     21 O         -58.9065  -30.3209   11.1159 O.2       13 UNK        -0.5035 
     22 N         -55.9685  -28.2923   10.2603 N.am      13 UNK        -0.4233 
     23 C         -55.3115  -28.1893   11.4266 C.2       13 UNK         0.4989 
     24 O         -55.5508  -28.8685   12.4293 O.2       13 UNK        -0.4996 
     25 CA        -54.2120  -27.1164   11.4974 C.3       12 UNK         0.0216 
     26 CB        -54.7550  -25.7065   11.1910 C.3       12 UNK        -0.1964 
     27 N         -53.6282  -27.1339   12.8368 N.am      12 UNK        -0.4276 
     28 C         -52.4087  -26.7161   13.1866 C.2       12 UNK         0.5020 
     29 O         -51.5494  -26.3151   12.3979 O.2       12 UNK        -0.5489 
     30 CA        -52.0712  -26.7902   14.6835 C.3       11 UNK         0.0294 
     31 CB        -51.2074  -28.0265   14.9792 C.3       11 UNK        -0.2019 
     32 N         -51.3671  -25.5850   15.1246 N.am      11 UNK        -0.4493 
     33 C         -51.9123  -24.3609   15.1806 C.2       11 UNK         0.4932 
     34 O         -53.1020  -24.1246   14.9626 O.2       11 UNK        -0.5029 
     35 CA        -50.9502  -23.2288   15.5772 C.3       10 UNK         0.0280 
     36 CB        -51.6214  -21.8417   15.6693 C.3       10 UNK        -0.1976 
     37 N         -50.2103  -23.5692   16.7966 N.am      10 UNK        -0.4242 
     38 C         -50.6870  -23.6965   18.0465 C.2       10 UNK         0.5072 
     39 O         -51.8509  -23.4491   18.3648 O.2       10 UNK        -0.5224 
     40 CA        -49.7210  -24.2112   19.1382 C.3       9 UNK         0.0343 
     41 CB        -50.2473  -25.5207   19.7522 C.3       9 UNK        -0.2003 
     42 N         -48.3539  -24.4412   18.6646 N.am      9 UNK        -0.4272 
     43 C         -47.4592  -23.4889   18.3674 C.2       9 UNK         0.4988 
     44 O         -47.6434  -22.2899   18.5772 O.2       9 UNK        -0.5108 
     45 CA        -46.1545  -23.9423   17.6821 C.3       8 UNK         0.0248 
     46 CB        -44.9943  -23.9442   18.6912 C.3       8 UNK        -0.2001 
     47 N         -46.2191  -25.2547   17.0199 N.am      8 UNK        -0.4140 
     48 C         -47.0547  -25.5944   16.0282 C.2       8 UNK         0.5028 
     49 O         -47.9411  -24.8573   15.5821 O.2       8 UNK        -0.5428 
     50 CA        -46.9185  -27.0172   15.4791 C.3       7 UNK         0.0264 
     51 CB        -47.6015  -28.0369   16.4077 C.3       7 UNK        -0.1988 
     52 N         -47.5514  -27.0390   14.1669 N.am      7 UNK        -0.4454 
     53 C         -47.1995  -27.8067   13.1303 C.2       7 UNK         0.5027 
     54 O         -46.3404  -28.6867   13.2046 O.2       7 UNK        -0.5083 
     55 CA        -47.9062  -27.5558   11.7773 C.3       6 UNK         0.0844 
     56 C56       -48.7070  -28.8045   11.3332 C.3       14 UNK        -0.0967 
     57 S57       -49.2836  -28.7007    9.6029 S.3       14 UNK        -0.2604 
     58 C58       -50.9780  -28.0967    9.8254 C.3       14 UNK         0.0134 
     59 N         -48.7222  -26.3306   11.7691 N.am      6 UNK        -0.4116 
     60 C         -48.2206  -25.0893   11.7183 C.2       5 UNK         0.5034 
     61 O         -47.0160  -24.8387   11.6512 O.2       5 UNK        -0.5045 
     62 CA        -49.2442  -23.9489   11.7432 C.3       5 UNK         0.0224 
     63 CB        -48.6037  -22.5579   11.9231 C.3       5 UNK        -0.1978 
     64 N         -50.0294  -23.9899   10.5134 N.am      5 UNK        -0.4737 
     65 C         -51.2953  -23.5635   10.4076 C.2       4 UNK         0.5027 
     66 O         -51.9152  -23.0330   11.3301 O.2       4 UNK        -0.5211 
     67 CA        -51.9565  -23.7146    9.0278 C.3       4 UNK         0.0297 
     68 CB        -53.2267  -22.8590    8.8583 C.3       4 UNK        -0.1993 
     69 N         -50.9836  -23.3641    7.9976 N.am      4 UNK        -0.4486 
     70 C         -50.7933  -24.0218    6.8516 C.2       3 UNK         0.4961 
     71 O         -51.5183  -24.9320    6.4494 O.2       3 UNK        -0.5105 
     72 CA        -49.5493  -23.6349    6.0278 C.3       3 UNK         0.0299 
     73 CB        -48.8747  -22.3141    6.4671 C.3       3 UNK        -0.1972 
     74 N         -48.5741  -24.7301    6.0194 N.am      3 UNK        -0.4305 
     75 C         -48.0233  -25.3360    7.0835 C.2       2 UNK         0.5006 
     76 O         -48.2250  -25.0030    8.2543 O.2       2 UNK        -0.5106 
     77 CA        -47.1565  -26.5660    6.7650 C.3       2 UNK         0.0296 
     78 CB        -46.2990  -27.0230    7.9570 C.3       2 UNK        -0.2002 
     79 N         -48.0341  -27.6583    6.3396 N.am      2 UNK        -0.4032 
     80 C         -48.4620  -27.8322    5.0802 C.2       1 UNK         0.5000 
     81 O         -48.0260  -27.1776    4.1302 O.2       1 UNK        -0.5238 
     82 H82       -48.8686  -31.5584    8.3032 H         1 UNK         0.0889 
     83 H83       -49.6136  -32.6779    7.1577 H         1 UNK         0.0889 
     84 H84       -50.5514  -31.3400    7.8189 H         1 UNK         0.0889 
     85 H85       -50.7399  -29.5745    6.4536 H         1 UNK         0.3028 
     86 H86       -49.3062  -29.4533    3.9832 H         1 UNK         0.0864 
     87 H87       -51.0989  -27.2553    5.1200 H         1 UNK         0.0720 
     88 H88       -50.6841  -27.5227    3.4573 H         1 UNK         0.0720 
     89 H89       -54.4997  -28.6705    5.1618 H         1 UNK         0.0814 
     90 H90       -53.4371  -27.3176    5.4295 H         1 UNK         0.0814 
     91 H91       -51.7868  -27.3700    7.3259 H         1 UNK         0.1469 
     92 H92       -52.3549  -30.3810   10.3232 H         1 UNK         0.1381 
     93 H93       -54.4471  -30.6560    6.5933 H         1 UNK         0.1206 
     94 H94       -53.4483  -32.5816    9.4464 H         1 UNK         0.0813 
     95 H95       -54.6405  -32.4478    8.1793 H         1 UNK         0.0813 
     96 H96       -57.5326  -31.1817    9.0982 H         1 UNK         0.0638 
     97 H97       -56.2472  -30.3505    8.3146 H         1 UNK         0.0638 
     98 H98       -57.5960  -28.6678    9.1174 H         1 UNK         0.0568 
     99 H99       -59.3021  -28.2783   12.3780 H         1 UNK         0.3450 
    100 H100      -58.0287  -27.3669   11.6067 H         1 UNK         0.3450 
    101 H101      -55.6864  -27.6835    9.5069 H         1 UNK         0.2987 
    102 H102      -53.4486  -27.3707   10.7656 H         1 UNK         0.0766 
    103 H103      -53.9817  -24.9500   11.3237 H         1 UNK         0.0798 
    104 H104      -55.5861  -25.4445   11.8468 H         1 UNK         0.0798 
    105 H105      -55.1060  -25.6256   10.1620 H         1 UNK         0.0798 
    106 H106      -54.2343  -27.5545   13.5313 H         1 UNK         0.3198 
    107 H107      -52.9981  -26.8668   15.2562 H         1 UNK         0.0843 
    108 H108      -51.7154  -28.9399   14.6668 H         1 UNK         0.0831 
    109 H109      -51.0041  -28.1219   16.0457 H         1 UNK         0.0831 
    110 H110      -50.2538  -27.9914   14.4524 H         1 UNK         0.0831 
    111 H111      -50.3813  -25.6750   15.3206 H         1 UNK         0.3133 
    112 H112      -50.2039  -23.1687   14.7842 H         1 UNK         0.0566 
    113 H113      -50.9035  -21.0714   15.9502 H         1 UNK         0.0814 
    114 H114      -52.0446  -21.5558   14.7054 H         1 UNK         0.0814 
    115 H115      -52.4349  -21.8253   16.3948 H         1 UNK         0.0814 
    116 H116      -49.2481  -23.8510   16.6304 H         1 UNK         0.3091 
    117 H117      -49.6894  -23.4527   19.9232 H         1 UNK         0.0702 
    118 H118      -49.6028  -25.8686   20.5597 H         1 UNK         0.0785 
    119 H119      -50.3158  -26.3159   19.0086 H         1 UNK         0.0785 
    120 H120      -51.2438  -25.3840   20.1748 H         1 UNK         0.0785 
    121 H121      -48.1027  -25.3985   18.4676 H         1 UNK         0.2998 
    122 H122      -45.9321  -23.2038   16.9091 H         1 UNK         0.0697 
    123 H123      -45.1420  -24.6883   19.4751 H         1 UNK         0.0825 
    124 H124      -44.8981  -22.9730   19.1790 H         1 UNK         0.0825 
    125 H125      -44.0420  -24.1526   18.2033 H         1 UNK         0.0825 
    126 H126      -45.5434  -25.9389   17.3300 H         1 UNK         0.3029 
    127 H127      -45.8567  -27.2538   15.3784 H         1 UNK         0.0897 
    128 H128      -47.5713  -29.0412   15.9848 H         1 UNK         0.0792 
    129 H129      -47.1033  -28.0814   17.3768 H         1 UNK         0.0792 
    130 H130      -48.6456  -27.7824   16.5897 H         1 UNK         0.0792 
    131 H131      -48.1959  -26.2742   14.0154 H         1 UNK         0.3086 
    132 H132      -47.0986  -27.4141   11.0581 H         1 UNK         0.0583 
    133 H133      -48.0781  -29.6953   11.3915 H         1 UNK         0.1020 
    134 H134      -49.5411  -28.9945   12.0105 H         1 UNK         0.1020 
    135 H135      -51.2934  -28.2685   10.8521 H         1 UNK         0.0694 
    136 H136      -51.0069  -27.0180    9.6629 H         1 UNK         0.0694 
    137 H137      -49.7324  -26.4410   11.8416 H         1 UNK         0.2989 
    138 H138      -49.9024  -24.1362   12.5941 H         1 UNK         0.1055 
    139 H139      -47.9971  -22.5235   12.8292 H         1 UNK         0.0806 
    140 H140      -49.3618  -21.7799   12.0131 H         1 UNK         0.0806 
    141 H141      -47.9568  -22.3018   11.0831 H         1 UNK         0.0806 
    142 H142      -49.5681  -24.4149    9.7114 H         1 UNK         0.3061 
    143 H143      -52.2336  -24.7673    8.9357 H         1 UNK         0.0734 
    144 H144      -53.9785  -23.1176    9.6044 H         1 UNK         0.0832 
    145 H145      -53.0109  -21.7955    8.9662 H         1 UNK         0.0832 
    146 H146      -53.6785  -23.0127    7.8783 H         1 UNK         0.0832 
    147 H147      -50.3125  -22.6530    8.2547 H         1 UNK         0.3156 
    148 H148      -49.8892  -23.5084    4.9989 H         1 UNK         0.0589 
    149 H149      -48.4528  -22.3731    7.4712 H         1 UNK         0.0808 
    150 H150      -48.0617  -22.0518    5.7900 H         1 UNK         0.0808 
    151 H151      -49.5817  -21.4834    6.4478 H         1 UNK         0.0808 
    152 H152      -48.3828  -25.1361    5.1112 H         1 UNK         0.3098 
    153 H153      -46.4727  -26.2967    5.9571 H         1 UNK         0.0720 
    154 H154      -45.6323  -26.2247    8.2853 H         1 UNK         0.0791 
    155 H155      -45.6793  -27.8805    7.6950 H         1 UNK         0.0791 
    156 H156      -46.9124  -27.3017    8.8100 H         1 UNK         0.0791 
    157 H157      -48.4632  -28.2060    7.0732 H         1 UNK         0.3028 
@<TRIPOS>BOND
     1    1    2 1    
     2    1   82 1    
     3    1   83 1    
     4    1   84 1    
     5    2    3 2    
     6    2    4 am   BACKBONE|DICT|INTERRES
     7    4    5 1    
     8    4   85 1    
     9    5    6 1    
    10    5   80 1    
    11    5   86 1    
    12    6    7 1    
    13    6   87 1    
    14    6   88 1    
    15    7    8 1    
    16    8    9 1    
    17    8   89 1    
    18    8   90 1    
    19    9   10 ar   
    20    9   14 ar   
    21   10   11 ar   
    22   10   91 1    
    23   11   12 ar   
    24   11   58 1    
    25   12   13 ar   
    26   12   92 1    
    27   13   14 ar   
    28   13   15 1    
    29   14   93 1    
    30   15   16 1    
    31   15   94 1    
    32   15   95 1    
    33   16   17 1    
    34   17   18 1    
    35   17   96 1    
    36   17   97 1    
    37   18   19 1    
    38   18   22 1    
    39   18   98 1    
    40   19   20 am   BACKBONE|DICT|INTERRES
    41   19   21 2    
    42   20   99 1    
    43   20  100 1    
    44   22   23 am   BACKBONE|DICT|INTERRES
    45   22  101 1    
    46   23   24 2    
    47   23   25 1    
    48   25   26 1    
    49   25   27 1    
    50   25  102 1    
    51   26  103 1    
    52   26  104 1    
    53   26  105 1    
    54   27   28 am   BACKBONE|DICT|INTERRES
    55   27  106 1    
    56   28   29 2    
    57   28   30 1    
    58   30   31 1    
    59   30   32 1    
    60   30  107 1    
    61   31  108 1    
    62   31  109 1    
    63   31  110 1    
    64   32   33 am   BACKBONE|DICT|INTERRES
    65   32  111 1    
    66   33   34 2    
    67   33   35 1    
    68   35   36 1    
    69   35   37 1    
    70   35  112 1    
    71   36  113 1    
    72   36  114 1    
    73   36  115 1    
    74   37   38 am   BACKBONE|DICT|INTERRES
    75   37  116 1    
    76   38   39 2    
    77   38   40 1    
    78   40   41 1    
    79   40   42 1    
    80   40  117 1    
    81   41  118 1    
    82   41  119 1    
    83   41  120 1    
    84   42   43 am   BACKBONE|DICT|INTERRES
    85   42  121 1    
    86   43   44 2    
    87   43   45 1    
    88   45   46 1    
    89   45   47 1    
    90   45  122 1    
    91   46  123 1    
    92   46  124 1    
    93   46  125 1    
    94   47   48 am   BACKBONE|DICT|INTERRES
    95   47  126 1    
    96   48   49 2    
    97   48   50 1    
    98   50   51 1    
    99   50   52 1    
   100   50  127 1    
   101   51  128 1    
   102   51  129 1    
   103   51  130 1    
   104   52   53 am   BACKBONE|DICT|INTERRES
   105   52  131 1    
   106   53   54 2    
   107   53   55 1    
   108   55   56 1    
   109   55   59 1    
   110   55  132 1    
   111   56   57 1    
   112   56  133 1    
   113   56  134 1    
   114   57   58 1    
   115   58  135 1    
   116   58  136 1    
   117   59   60 am   BACKBONE|DICT|INTERRES
   118   59  137 1    
   119   60   61 2    
   120   60   62 1    
   121   62   63 1    
   122   62   64 1    
   123   62  138 1    
   124   63  139 1    
   125   63  140 1    
   126   63  141 1    
   127   64   65 am   BACKBONE|DICT|INTERRES
   128   64  142 1    
   129   65   66 2    
   130   65   67 1    
   131   67   68 1    
   132   67   69 1    
   133   67  143 1    
   134   68  144 1    
   135   68  145 1    
   136   68  146 1    
   137   69   70 am   BACKBONE|DICT|INTERRES
   138   69  147 1    
   139   70   71 2    
   140   70   72 1    
   141   72   73 1    
   142   72   74 1    
   143   72  148 1    
   144   73  149 1    
   145   73  150 1    
   146   73  151 1    
   147   74   75 am   BACKBONE|DICT|INTERRES
   148   74  152 1    
   149   75   76 2    
   150   75   77 1    
   151   77   78 1    
   152   77   79 1    
   153   77  153 1    
   154   78  154 1    
   155   78  155 1    
   156   78  156 1    
   157   79   80 am   BACKBONE|DICT|INTERRES
   158   79  157 1    
   159   80   81 2    
@<TRIPOS>SUBSTRUCTURE
     1 UNK         1 GROUP             0       ****    0 ROOT    
