@<TRIPOS>MOLECULE
3R207
157   159    1
SMALL
USER_CHARGES


@<TRIPOS>ATOM
      1 CA        -51.0808  -24.2797    3.0551 C.3       0 UNK        -0.1975 
      2 C         -51.1794  -24.6029    4.5383 C.2       0 UNK         0.4852 
      3 O         -51.7761  -23.8354    5.2957 O.2       0 UNK        -0.5216 
      4 N         -50.5903  -25.7276    4.9657 N.am      1 UNK        -0.4461 
      5 CA        -50.5810  -26.2194    6.3490 C.3       1 UNK         0.0864 
      6 C6        -50.3093  -27.7446    6.4061 C.3       14 UNK        -0.0898 
      7 S7        -51.7299  -28.6901    5.7604 S.3       14 UNK        -0.2598 
      8 C8        -51.4331  -30.3562    6.4404 C.3       14 UNK         0.0286 
      9 C9        -51.3993  -30.3789    7.9639 C.ar      14 UNK        -0.0844 
     10 C10       -50.2088  -30.6777    8.6316 C.ar      14 UNK        -0.0881 
     11 C11       -50.1618  -30.6998   10.0276 C.ar      14 UNK        -0.0643 
     12 C12       -51.3160  -30.4048   10.7605 C.ar      14 UNK        -0.0930 
     13 C13       -52.5226  -30.1263   10.1056 C.ar      14 UNK        -0.0827 
     14 C14       -52.5549  -30.1166    8.7063 C.ar      14 UNK        -0.1249 
     15 C15       -53.7909  -29.8158   10.8944 C.3       14 UNK         0.0141 
     16 S16       -54.1601  -31.0824   12.1525 S.3       14 UNK        -0.2313 
     17 C17       -55.9662  -30.8966   12.3525 C.3       14 UNK        -0.0915 
     18 CA        -56.4121  -29.8495   13.4159 C.3       13 UNK         0.0968 
     19 C         -56.0114  -30.1465   14.8887 C.2       13 UNK         0.5732 
     20 N         -55.7969  -31.4029   15.2561 N.am      13 UNK        -0.7310 
     21 O         -55.9521  -29.2510   15.7284 O.2       13 UNK        -0.5035 
     22 N         -56.0791  -28.4760   13.0208 N.am      13 UNK        -0.4233 
     23 C         -56.7892  -27.7347   12.1620 C.2       13 UNK         0.4989 
     24 O         -57.7992  -28.1490   11.5891 O.2       13 UNK        -0.4996 
     25 CA        -56.2911  -26.3035   11.8627 C.3       12 UNK         0.0216 
     26 CB        -57.4352  -25.3471   11.4632 C.3       12 UNK        -0.1964 
     27 N         -55.4730  -25.7118   12.9262 N.am      12 UNK        -0.4276 
     28 C         -55.8202  -25.4749   14.1984 C.2       12 UNK         0.5020 
     29 O         -56.9371  -25.6938   14.6728 O.2       12 UNK        -0.5489 
     30 CA        -54.7036  -24.9079   15.0938 C.3       11 UNK         0.0294 
     31 CB        -55.2546  -23.8835   16.1016 C.3       11 UNK        -0.2019 
     32 N         -53.9350  -25.9209   15.8263 N.am      11 UNK        -0.4493 
     33 C         -53.4311  -27.0800   15.3745 C.2       11 UNK         0.4932 
     34 O         -53.6213  -27.5507   14.2522 O.2       11 UNK        -0.5029 
     35 CA        -52.4584  -27.7781   16.3334 C.3       10 UNK         0.0280 
     36 CB        -52.2161  -29.2549   15.9676 C.3       10 UNK        -0.1976 
     37 N         -51.1978  -27.0468   16.2503 N.am      10 UNK        -0.4242 
     38 C         -50.8309  -26.0469   17.0614 C.2       10 UNK         0.5072 
     39 O         -51.4363  -25.7407   18.0897 O.2       10 UNK        -0.5224 
     40 CA        -49.6203  -25.2091   16.6138 C.3       9 UNK         0.0343 
     41 CB        -48.3168  -26.0211   16.6917 C.3       9 UNK        -0.2003 
     42 N         -49.7897  -24.6749   15.2593 N.am      9 UNK        -0.4272 
     43 C         -50.7263  -23.7844   14.8923 C.2       9 UNK         0.4988 
     44 O         -51.5143  -23.2525   15.6739 O.2       9 UNK        -0.5108 
     45 CA        -50.8152  -23.4420   13.3970 C.3       8 UNK         0.0248 
     46 CB        -49.7888  -22.3641   13.0093 C.3       8 UNK        -0.2001 
     47 N         -50.6116  -24.6420   12.5860 N.am      8 UNK        -0.4140 
     48 C         -51.6008  -25.4512   12.1821 C.2       8 UNK         0.5028 
     49 O         -52.7957  -25.1794   12.3020 O.2       8 UNK        -0.5428 
     50 CA        -51.2139  -26.7789   11.5083 C.3       7 UNK         0.0264 
     51 CB        -51.5314  -26.7126   10.0093 C.3       7 UNK        -0.1988 
     52 N         -49.8092  -27.1569   11.6930 N.am      7 UNK        -0.4454 
     53 C         -49.3050  -27.6338   12.8403 C.2       7 UNK         0.5027 
     54 O         -49.9697  -27.7906   13.8621 O.2       7 UNK        -0.5083 
     55 CA        -47.7897  -27.9151   12.8922 C.3       6 UNK         0.0844 
     56 C56       -47.4463  -29.3703   12.4988 C.3       14 UNK        -0.0967 
     57 S57       -47.6540  -29.7327   10.7178 S.3       14 UNK        -0.2604 
     58 C58       -48.8705  -31.0887   10.7300 C.3       14 UNK         0.0134 
     59 N         -46.9802  -26.9345   12.1655 N.am      6 UNK        -0.4116 
     60 C         -46.9754  -25.6131   12.3712 C.2       5 UNK         0.5034 
     61 O         -47.7178  -25.0554   13.1807 O.2       5 UNK        -0.5045 
     62 CA        -46.0130  -24.7562   11.5296 C.3       5 UNK         0.0224 
     63 CB        -44.6818  -24.5393   12.2732 C.3       5 UNK        -0.1978 
     64 N         -45.7899  -25.2244   10.1512 N.am      5 UNK        -0.4737 
     65 C         -45.1877  -26.3427    9.7140 C.2       4 UNK         0.5027 
     66 O         -44.7165  -27.1946   10.4672 O.2       4 UNK        -0.5211 
     67 CA        -45.1305  -26.5846    8.1932 C.3       4 UNK         0.0297 
     68 CB        -45.8366  -27.9029    7.8288 C.3       4 UNK        -0.1993 
     69 N         -45.7411  -25.4936    7.4293 N.am      4 UNK        -0.4486 
     70 C         -45.0836  -24.4179    6.9704 C.2       3 UNK         0.4961 
     71 O         -43.8657  -24.2687    7.0720 O.2       3 UNK        -0.5105 
     72 CA        -45.9171  -23.3038    6.3032 C.3       3 UNK         0.0299 
     73 CB        -45.8907  -23.4589    4.7741 C.3       3 UNK        -0.1972 
     74 N         -47.3106  -23.2517    6.7550 N.am      3 UNK        -0.4305 
     75 C         -47.7081  -23.0117    8.0131 C.2       2 UNK         0.5006 
     76 O         -46.9382  -22.7165    8.9262 O.2       2 UNK        -0.5106 
     77 CA        -49.2030  -23.1969    8.3303 C.3       2 UNK         0.0296 
     78 CB        -49.9275  -21.8422    8.3345 C.3       2 UNK        -0.2002 
     79 N         -49.9127  -24.1254    7.4410 N.am      2 UNK        -0.4032 
     80 C         -49.6007  -25.4119    7.2267 C.2       1 UNK         0.5000 
     81 O         -48.5919  -25.9476    7.6888 O.2       1 UNK        -0.5238 
     82 H82       -52.0776  -24.2099    2.6205 H         1 UNK         0.0889 
     83 H83       -50.5247  -25.0406    2.5077 H         1 UNK         0.0889 
     84 H84       -50.5787  -23.3233    2.9122 H         1 UNK         0.0889 
     85 H85       -50.1125  -26.3160    4.2979 H         1 UNK         0.3028 
     86 H86       -51.5718  -26.0502    6.7779 H         1 UNK         0.0864 
     87 H87       -50.1275  -28.0597    7.4339 H         1 UNK         0.0720 
     88 H88       -49.4110  -28.0081    5.8449 H         1 UNK         0.0720 
     89 H89       -50.5024  -30.7452    6.0244 H         1 UNK         0.0814 
     90 H90       -52.2231  -31.0233    6.0930 H         1 UNK         0.0814 
     91 H91       -49.3128  -30.8970    8.0670 H         1 UNK         0.1469 
     92 H92       -51.2827  -30.4104   11.8415 H         1 UNK         0.1381 
     93 H93       -53.4769  -29.8917    8.1877 H         1 UNK         0.1206 
     94 H94       -53.6867  -28.8483   11.3851 H         1 UNK         0.0813 
     95 H95       -54.6393  -29.7254   10.2150 H         1 UNK         0.0813 
     96 H96       -56.3738  -31.8769   12.6026 H         1 UNK         0.0638 
     97 H97       -56.4086  -30.6547   11.3854 H         1 UNK         0.0638 
     98 H98       -57.5014  -29.9036   13.4569 H         1 UNK         0.0568 
     99 H99       -55.5646  -31.5993   16.2165 H         1 UNK         0.3450 
    100 H100      -55.8350  -32.1522   14.5839 H         1 UNK         0.3450 
    101 H101      -55.2677  -28.0741   13.4881 H         1 UNK         0.2987 
    102 H102      -55.6273  -26.3985   11.0023 H         1 UNK         0.0766 
    103 H103      -57.0573  -24.3510   11.2332 H         1 UNK         0.0798 
    104 H104      -58.1756  -25.2502   12.2579 H         1 UNK         0.0798 
    105 H105      -57.9566  -25.7057   10.5749 H         1 UNK         0.0798 
    106 H106      -54.4950  -25.5408   12.6777 H         1 UNK         0.3198 
    107 H107      -53.9975  -24.3757   14.4548 H         1 UNK         0.0843 
    108 H108      -55.9045  -24.3534   16.8409 H         1 UNK         0.0831 
    109 H109      -55.8392  -23.1140   15.5956 H         1 UNK         0.0831 
    110 H110      -54.4484  -23.3774   16.6334 H         1 UNK         0.0831 
    111 H111      -53.6634  -25.6530   16.7623 H         1 UNK         0.3133 
    112 H112      -52.8674  -27.7398   17.3452 H         1 UNK         0.0566 
    113 H113      -51.8360  -29.3700   14.9517 H         1 UNK         0.0814 
    114 H114      -51.4996  -29.7179   16.6458 H         1 UNK         0.0814 
    115 H115      -53.1423  -29.8260   16.0325 H         1 UNK         0.0814 
    116 H116      -50.6633  -27.2134   15.3973 H         1 UNK         0.3091 
    117 H117      -49.5312  -24.3607   17.2956 H         1 UNK         0.0702 
    118 H118      -47.4539  -25.4117   16.4223 H         1 UNK         0.0785 
    119 H119      -48.3348  -26.8853   16.0278 H         1 UNK         0.0785 
    120 H120      -48.1497  -26.3915   17.7040 H         1 UNK         0.0785 
    121 H121      -49.1361  -25.0031   14.5561 H         1 UNK         0.2998 
    122 H122      -51.8101  -23.0339   13.2052 H         1 UNK         0.0697 
    123 H123      -48.7655  -22.6707   13.2249 H         1 UNK         0.0825 
    124 H124      -49.9717  -21.4416   13.5618 H         1 UNK         0.0825 
    125 H125      -49.8495  -22.1230   11.9478 H         1 UNK         0.0825 
    126 H126      -49.6529  -24.9441   12.4641 H         1 UNK         0.3029 
    127 H127      -51.8303  -27.5587   11.9597 H         1 UNK         0.0897 
    128 H128      -52.6062  -26.6295    9.8433 H         1 UNK         0.0792 
    129 H129      -51.1904  -27.6051    9.4867 H         1 UNK         0.0792 
    130 H130      -51.0644  -25.8440    9.5498 H         1 UNK         0.0792 
    131 H131      -49.1963  -27.0753   10.8938 H         1 UNK         0.3086 
    132 H132      -47.5038  -27.8039   13.9399 H         1 UNK         0.0583 
    133 H133      -46.4031  -29.5702   12.7490 H         1 UNK         0.1020 
    134 H134      -48.0198  -30.0675   13.1115 H         1 UNK         0.1020 
    135 H135      -48.4314  -31.9473   10.2197 H         1 UNK         0.0694 
    136 H136      -49.0806  -31.4281   11.7444 H         1 UNK         0.0694 
    137 H137      -46.3066  -27.3030   11.4995 H         1 UNK         0.2989 
    138 H138      -46.4912  -23.7800   11.4313 H         1 UNK         0.1055 
    139 H139      -44.8532  -24.0944   13.2545 H         1 UNK         0.0806 
    140 H140      -44.0265  -23.8646   11.7223 H         1 UNK         0.0806 
    141 H141      -44.1439  -25.4743   12.4325 H         1 UNK         0.0806 
    142 H142      -46.1416  -24.5885    9.4439 H         1 UNK         0.3061 
    143 H143      -44.0778  -26.6801    7.9194 H         1 UNK         0.0734 
    144 H144      -45.8072  -28.0875    6.7550 H         1 UNK         0.0832 
    145 H145      -45.3555  -28.7520    8.3160 H         1 UNK         0.0832 
    146 H146      -46.8814  -27.9042    8.1414 H         1 UNK         0.0832 
    147 H147      -46.7539  -25.5385    7.3378 H         1 UNK         0.3156 
    148 H148      -45.4514  -22.3498    6.5593 H         1 UNK         0.0589 
    149 H149      -46.3648  -24.3876    4.4536 H         1 UNK         0.0808 
    150 H150      -46.4014  -22.6315    4.2809 H         1 UNK         0.0808 
    151 H151      -44.8654  -23.4716    4.4012 H         1 UNK         0.0808 
    152 H152      -48.0169  -23.4844    6.0728 H         1 UNK         0.3098 
    153 H153      -49.2617  -23.6146    9.3377 H         1 UNK         0.0720 
    154 H154      -50.9581  -21.9447    8.6751 H         1 UNK         0.0791 
    155 H155      -49.9447  -21.3913    7.3414 H         1 UNK         0.0791 
    156 H156      -49.4356  -21.1369    9.0061 H         1 UNK         0.0791 
    157 H157      -50.7247  -23.7630    6.9478 H         1 UNK         0.3028 
@<TRIPOS>BOND
     1    1    2 1    
     2    1   82 1    
     3    1   83 1    
     4    1   84 1    
     5    2    3 2    
     6    2    4 am   BACKBONE|DICT|INTERRES
     7    4    5 1    
     8    4   85 1    
     9    5    6 1    
    10    5   80 1    
    11    5   86 1    
    12    6    7 1    
    13    6   87 1    
    14    6   88 1    
    15    7    8 1    
    16    8    9 1    
    17    8   89 1    
    18    8   90 1    
    19    9   10 ar   
    20    9   14 ar   
    21   10   11 ar   
    22   10   91 1    
    23   11   12 ar   
    24   11   58 1    
    25   12   13 ar   
    26   12   92 1    
    27   13   14 ar   
    28   13   15 1    
    29   14   93 1    
    30   15   16 1    
    31   15   94 1    
    32   15   95 1    
    33   16   17 1    
    34   17   18 1    
    35   17   96 1    
    36   17   97 1    
    37   18   19 1    
    38   18   22 1    
    39   18   98 1    
    40   19   20 am   BACKBONE|DICT|INTERRES
    41   19   21 2    
    42   20   99 1    
    43   20  100 1    
    44   22   23 am   BACKBONE|DICT|INTERRES
    45   22  101 1    
    46   23   24 2    
    47   23   25 1    
    48   25   26 1    
    49   25   27 1    
    50   25  102 1    
    51   26  103 1    
    52   26  104 1    
    53   26  105 1    
    54   27   28 am   BACKBONE|DICT|INTERRES
    55   27  106 1    
    56   28   29 2    
    57   28   30 1    
    58   30   31 1    
    59   30   32 1    
    60   30  107 1    
    61   31  108 1    
    62   31  109 1    
    63   31  110 1    
    64   32   33 am   BACKBONE|DICT|INTERRES
    65   32  111 1    
    66   33   34 2    
    67   33   35 1    
    68   35   36 1    
    69   35   37 1    
    70   35  112 1    
    71   36  113 1    
    72   36  114 1    
    73   36  115 1    
    74   37   38 am   BACKBONE|DICT|INTERRES
    75   37  116 1    
    76   38   39 2    
    77   38   40 1    
    78   40   41 1    
    79   40   42 1    
    80   40  117 1    
    81   41  118 1    
    82   41  119 1    
    83   41  120 1    
    84   42   43 am   BACKBONE|DICT|INTERRES
    85   42  121 1    
    86   43   44 2    
    87   43   45 1    
    88   45   46 1    
    89   45   47 1    
    90   45  122 1    
    91   46  123 1    
    92   46  124 1    
    93   46  125 1    
    94   47   48 am   BACKBONE|DICT|INTERRES
    95   47  126 1    
    96   48   49 2    
    97   48   50 1    
    98   50   51 1    
    99   50   52 1    
   100   50  127 1    
   101   51  128 1    
   102   51  129 1    
   103   51  130 1    
   104   52   53 am   BACKBONE|DICT|INTERRES
   105   52  131 1    
   106   53   54 2    
   107   53   55 1    
   108   55   56 1    
   109   55   59 1    
   110   55  132 1    
   111   56   57 1    
   112   56  133 1    
   113   56  134 1    
   114   57   58 1    
   115   58  135 1    
   116   58  136 1    
   117   59   60 am   BACKBONE|DICT|INTERRES
   118   59  137 1    
   119   60   61 2    
   120   60   62 1    
   121   62   63 1    
   122   62   64 1    
   123   62  138 1    
   124   63  139 1    
   125   63  140 1    
   126   63  141 1    
   127   64   65 am   BACKBONE|DICT|INTERRES
   128   64  142 1    
   129   65   66 2    
   130   65   67 1    
   131   67   68 1    
   132   67   69 1    
   133   67  143 1    
   134   68  144 1    
   135   68  145 1    
   136   68  146 1    
   137   69   70 am   BACKBONE|DICT|INTERRES
   138   69  147 1    
   139   70   71 2    
   140   70   72 1    
   141   72   73 1    
   142   72   74 1    
   143   72  148 1    
   144   73  149 1    
   145   73  150 1    
   146   73  151 1    
   147   74   75 am   BACKBONE|DICT|INTERRES
   148   74  152 1    
   149   75   76 2    
   150   75   77 1    
   151   77   78 1    
   152   77   79 1    
   153   77  153 1    
   154   78  154 1    
   155   78  155 1    
   156   78  156 1    
   157   79   80 am   BACKBONE|DICT|INTERRES
   158   79  157 1    
   159   80   81 2    
@<TRIPOS>SUBSTRUCTURE
     1 UNK         1 GROUP             0       ****    0 ROOT    
