@<TRIPOS>MOLECULE
3R207
157   159    1
SMALL
USER_CHARGES


@<TRIPOS>ATOM
      1 CA        -50.4723  -28.1465    8.6538 C.3       0 UNK        -0.1975 
      2 C         -50.2961  -28.1718    7.1479 C.2       0 UNK         0.4852 
      3 O         -49.2350  -28.5683    6.6624 O.2       0 UNK        -0.5216 
      4 N         -51.3183  -27.7438    6.3985 N.am      1 UNK        -0.4461 
      5 CA        -51.3377  -27.6788    4.9326 C.3       1 UNK         0.0864 
      6 C6        -52.7803  -27.6216    4.3549 C.3       14 UNK        -0.0898 
      7 S7        -53.9226  -28.8393    5.1026 S.3       14 UNK        -0.2598 
      8 C8        -55.1078  -27.7649    5.9832 C.3       14 UNK         0.0286 
      9 C9        -54.5105  -27.1288    7.2334 C.ar      14 UNK        -0.0844 
     10 C10       -53.8261  -25.9116    7.1459 C.ar      14 UNK        -0.0881 
     11 C11       -53.2654  -25.3286    8.2833 C.ar      14 UNK        -0.0643 
     12 C12       -53.4504  -25.9339    9.5271 C.ar      14 UNK        -0.0930 
     13 C13       -54.1430  -27.1415    9.6353 C.ar      14 UNK        -0.0827 
     14 C14       -54.6603  -27.7436    8.4828 C.ar      14 UNK        -0.1249 
     15 C15       -54.3397  -27.7666   11.0079 C.3       14 UNK         0.0141 
     16 S16       -52.7572  -28.2681   11.7609 S.3       14 UNK        -0.2313 
     17 C17       -52.5392  -29.9519   11.0782 C.3       14 UNK        -0.0915 
     18 CA        -52.7719  -31.0715   12.1274 C.3       13 UNK         0.0968 
     19 C         -51.5881  -31.1615   13.1376 C.2       13 UNK         0.5732 
     20 N         -51.7435  -30.7316   14.3851 N.am      13 UNK        -0.7310 
     21 O         -50.5157  -31.6430   12.7807 O.2       13 UNK        -0.5035 
     22 N         -54.0941  -30.9379   12.7491 N.am      13 UNK        -0.4233 
     23 C         -54.6867  -31.8417   13.5362 C.2       13 UNK         0.4989 
     24 O         -54.2943  -33.0041   13.6511 O.2       13 UNK        -0.4996 
     25 CA        -55.9203  -31.3680   14.3390 C.3       12 UNK         0.0216 
     26 CB        -55.9154  -31.9395   15.7728 C.3       12 UNK        -0.1964 
     27 N         -56.1236  -29.9068   14.3791 N.am      12 UNK        -0.4276 
     28 C         -55.2737  -28.9746   14.8372 C.2       12 UNK         0.5020 
     29 O         -54.1379  -29.2154   15.2580 O.2       12 UNK        -0.5489 
     30 CA        -55.7672  -27.5259   14.7939 C.3       11 UNK         0.0294 
     31 CB        -56.5342  -27.1718   16.0811 C.3       11 UNK        -0.2019 
     32 N         -54.6033  -26.6607   14.6427 N.am      11 UNK        -0.4493 
     33 C         -54.6070  -25.3899   14.2251 C.2       11 UNK         0.4932 
     34 O         -55.6339  -24.7930   13.8987 O.2       11 UNK        -0.5029 
     35 CA        -53.2487  -24.6617   14.1209 C.3       10 UNK         0.0280 
     36 CB        -53.3353  -23.2027   14.6157 C.3       10 UNK        -0.1976 
     37 N         -52.1224  -25.3596   14.7557 N.am      10 UNK        -0.4242 
     38 C         -51.9527  -25.6431   16.0561 C.2       10 UNK         0.5072 
     39 O         -52.7492  -25.3382   16.9440 O.2       10 UNK        -0.5224 
     40 CA        -50.6735  -26.4010   16.4266 C.3       9 UNK         0.0343 
     41 CB        -50.6785  -27.8268   15.8470 C.3       9 UNK        -0.2003 
     42 N         -49.4888  -25.6760   15.9621 N.am      9 UNK        -0.4272 
     43 C         -48.4651  -25.3180   16.7491 C.2       9 UNK         0.4988 
     44 O         -48.4030  -25.5767   17.9521 O.2       9 UNK        -0.5108 
     45 CA        -47.2934  -24.5546   16.1070 C.3       8 UNK         0.0248 
     46 CB        -46.1414  -25.5146   15.7666 C.3       8 UNK        -0.2001 
     47 N         -47.6465  -23.7800   14.9153 N.am      8 UNK        -0.4140 
     48 C         -48.3489  -22.6377   14.9333 C.2       8 UNK         0.5028 
     49 O         -48.8633  -22.1650   15.9472 O.2       8 UNK        -0.5428 
     50 CA        -48.4833  -21.8831   13.6031 C.3       7 UNK         0.0264 
     51 CB        -47.1891  -21.1141   13.2877 C.3       7 UNK        -0.1988 
     52 N         -48.7788  -22.8010   12.5036 N.am      7 UNK        -0.4454 
     53 C         -49.9827  -22.9339   11.9295 C.2       7 UNK         0.5027 
     54 O         -50.9563  -22.2382   12.2189 O.2       7 UNK        -0.5083 
     55 CA        -50.1477  -24.0218   10.8448 C.3       6 UNK         0.0844 
     56 C56       -50.0250  -23.3835    9.4385 C.3       14 UNK        -0.0967 
     57 S57       -50.6634  -24.4671    8.1224 S.3       14 UNK        -0.2604 
     58 C58       -52.4391  -24.0602    8.1687 C.3       14 UNK         0.0134 
     59 N         -49.2454  -25.1673   11.0257 N.am      6 UNK        -0.4116 
     60 C         -49.2288  -25.9585   12.1118 C.2       5 UNK         0.5034 
     61 O         -50.0431  -25.8703   13.0290 O.2       5 UNK        -0.5045 
     62 CA        -48.0672  -26.9577   12.2696 C.3       5 UNK         0.0224 
     63 CB        -48.5010  -28.3757   11.8697 C.3       5 UNK        -0.1978 
     64 N         -46.8487  -26.5901   11.5415 N.am      5 UNK        -0.4737 
     65 C         -46.1836  -25.4311   11.6580 C.2       4 UNK         0.5027 
     66 O         -46.4698  -24.5667   12.4869 O.2       4 UNK        -0.5211 
     67 CA        -45.0598  -25.1529   10.6427 C.3       4 UNK         0.0297 
     68 CB        -43.6882  -25.3649   11.3018 C.3       4 UNK        -0.1993 
     69 N         -45.1359  -25.9466    9.4074 N.am      4 UNK        -0.4486 
     70 C         -46.1694  -25.9777    8.5525 C.2       3 UNK         0.4961 
     71 O         -47.2149  -25.3431    8.7152 O.2       3 UNK        -0.5105 
     72 CA        -46.0222  -26.9527    7.3733 C.3       3 UNK         0.0299 
     73 CB        -46.1495  -28.4051    7.8671 C.3       3 UNK        -0.1972 
     74 N         -47.0314  -26.7228    6.3388 N.am      3 UNK        -0.4305 
     75 C         -46.9631  -25.7640    5.4012 C.2       2 UNK         0.5006 
     76 O         -46.0176  -24.9785    5.3121 O.2       2 UNK        -0.5106 
     77 CA        -48.1065  -25.6611    4.3700 C.3       2 UNK         0.0296 
     78 CB        -47.5771  -25.7522    2.9263 C.3       2 UNK        -0.2002 
     79 N         -49.1350  -26.6816    4.5733 N.am      2 UNK        -0.4032 
     80 C         -50.4546  -26.5057    4.4456 C.2       1 UNK         0.5000 
     81 O         -50.9697  -25.4697    4.0188 O.2       1 UNK        -0.5238 
     82 H82       -49.9017  -27.3237    9.0823 H         1 UNK         0.0889 
     83 H83       -50.1131  -29.0810    9.0809 H         1 UNK         0.0889 
     84 H84       -51.5167  -28.0216    8.9337 H         1 UNK         0.0889 
     85 H85       -52.1619  -27.4175    6.8529 H         1 UNK         0.3028 
     86 H86       -50.8863  -28.6003    4.5577 H         1 UNK         0.0864 
     87 H87       -53.2128  -26.6265    4.4450 H         1 UNK         0.0720 
     88 H88       -52.7468  -27.8185    3.2820 H         1 UNK         0.0720 
     89 H89       -55.9784  -28.3627    6.2570 H         1 UNK         0.0814 
     90 H90       -55.4785  -26.9939    5.3058 H         1 UNK         0.0814 
     91 H91       -53.7083  -25.4190    6.1915 H         1 UNK         0.1469 
     92 H92       -53.0394  -25.4785   10.4158 H         1 UNK         0.1381 
     93 H93       -55.1941  -28.6811    8.5587 H         1 UNK         0.1206 
     94 H94       -54.8182  -27.0322   11.6563 H         1 UNK         0.0813 
     95 H95       -55.0208  -28.6172   10.9600 H         1 UNK         0.0813 
     96 H96       -51.5356  -30.0291   10.6598 H         1 UNK         0.0638 
     97 H97       -53.2165  -30.0895   10.2341 H         1 UNK         0.0638 
     98 H98       -52.7731  -32.0216   11.5902 H         1 UNK         0.0568 
     99 H99       -50.9744  -30.8071   15.0293 H         1 UNK         0.3450 
    100 H100      -52.6112  -30.2923   14.6783 H         1 UNK         0.3450 
    101 H101      -54.4675  -30.0024   12.7515 H         1 UNK         0.2987 
    102 H102      -56.7871  -31.7812   13.8211 H         1 UNK         0.0766 
    103 H103      -56.8029  -31.6321   16.3260 H         1 UNK         0.0798 
    104 H104      -55.0401  -31.6108   16.3344 H         1 UNK         0.0798 
    105 H105      -55.9050  -33.0302   15.7642 H         1 UNK         0.0798 
    106 H106      -57.0240  -29.5948   14.0395 H         1 UNK         0.3198 
    107 H107      -56.4191  -27.3975   13.9271 H         1 UNK         0.0843 
    108 H108      -57.3904  -27.8323   16.2238 H         1 UNK         0.0831 
    109 H109      -56.9162  -26.1514   16.0508 H         1 UNK         0.0831 
    110 H110      -55.8986  -27.2639   16.9630 H         1 UNK         0.0831 
    111 H111      -53.7250  -27.1135   14.8655 H         1 UNK         0.3133 
    112 H112      -53.0074  -24.6326   13.0573 H         1 UNK         0.0566 
    113 H113      -52.3704  -22.7009   14.5433 H         1 UNK         0.0814 
    114 H114      -54.0425  -22.6276   14.0170 H         1 UNK         0.0814 
    115 H115      -53.6660  -23.1456   15.6530 H         1 UNK         0.0814 
    116 H116      -51.3965  -25.6650   14.1060 H         1 UNK         0.3091 
    117 H117      -50.6655  -26.4886   17.5151 H         1 UNK         0.0702 
    118 H118      -49.8026  -28.3868   16.1739 H         1 UNK         0.0785 
    119 H119      -50.6878  -27.8330   14.7565 H         1 UNK         0.0785 
    120 H120      -51.5585  -28.3772   16.1827 H         1 UNK         0.0785 
    121 H121      -49.4757  -25.4138   14.9837 H         1 UNK         0.2998 
    122 H122      -46.9244  -23.8512   16.8568 H         1 UNK         0.0697 
    123 H123      -46.4314  -26.2508   15.0183 H         1 UNK         0.0825 
    124 H124      -45.8159  -26.0627   16.6519 H         1 UNK         0.0825 
    125 H125      -45.2747  -24.9747   15.3845 H         1 UNK         0.0825 
    126 H126      -47.2223  -24.0792   14.0388 H         1 UNK         0.3029 
    127 H127      -49.2865  -21.1518   13.7189 H         1 UNK         0.0897 
    128 H128      -47.2942  -20.5227   12.3780 H         1 UNK         0.0792 
    129 H129      -46.9384  -20.4244   14.0949 H         1 UNK         0.0792 
    130 H130      -46.3386  -21.7840   13.1538 H         1 UNK         0.0792 
    131 H131      -48.0286  -23.4284   12.2297 H         1 UNK         0.3086 
    132 H132      -51.1629  -24.4012   10.9611 H         1 UNK         0.0583 
    133 H133      -50.5567  -22.4310    9.3813 H         1 UNK         0.1020 
    134 H134      -48.9815  -23.1515    9.2164 H         1 UNK         0.1020 
    135 H135      -52.6684  -23.4032    9.0089 H         1 UNK         0.0694 
    136 H136      -52.7015  -23.5066    7.2659 H         1 UNK         0.0694 
    137 H137      -48.5443  -25.3013   10.3035 H         1 UNK         0.2989 
    138 H138      -47.8219  -26.9750   13.3321 H         1 UNK         0.1055 
    139 H139      -49.4595  -28.6405   12.3205 H         1 UNK         0.0806 
    140 H140      -47.7756  -29.1181   12.2028 H         1 UNK         0.0806 
    141 H141      -48.6055  -28.4767   10.7912 H         1 UNK         0.0806 
    142 H142      -46.5351  -27.2349   10.8315 H         1 UNK         0.3061 
    143 H143      -45.1446  -24.1022   10.3580 H         1 UNK         0.0734 
    144 H144      -43.5945  -24.7658   12.2091 H         1 UNK         0.0832 
    145 H145      -43.5314  -26.4070   11.5832 H         1 UNK         0.0832 
    146 H146      -42.8764  -25.0685   10.6373 H         1 UNK         0.0832 
    147 H147      -44.3274  -26.5145    9.1957 H         1 UNK         0.3156 
    148 H148      -45.0311  -26.8191    6.9343 H         1 UNK         0.0589 
    149 H149      -47.0986  -28.5774    8.3767 H         1 UNK         0.0808 
    150 H150      -46.0851  -29.1119    7.0395 H         1 UNK         0.0808 
    151 H151      -45.3531  -28.6603    8.5670 H         1 UNK         0.0808 
    152 H152      -47.8636  -27.2984    6.4182 H         1 UNK         0.3098 
    153 H153      -48.5503  -24.6739    4.5152 H         1 UNK         0.0720 
    154 H154      -48.3790  -25.6117    2.2013 H         1 UNK         0.0791 
    155 H155      -47.1125  -26.7191    2.7301 H         1 UNK         0.0791 
    156 H156      -46.8289  -24.9829    2.7308 H         1 UNK         0.0791 
    157 H157      -48.8304  -27.5613    4.9760 H         1 UNK         0.3028 
@<TRIPOS>BOND
     1    1    2 1    
     2    1   82 1    
     3    1   83 1    
     4    1   84 1    
     5    2    3 2    
     6    2    4 am   BACKBONE|DICT|INTERRES
     7    4    5 1    
     8    4   85 1    
     9    5    6 1    
    10    5   80 1    
    11    5   86 1    
    12    6    7 1    
    13    6   87 1    
    14    6   88 1    
    15    7    8 1    
    16    8    9 1    
    17    8   89 1    
    18    8   90 1    
    19    9   10 ar   
    20    9   14 ar   
    21   10   11 ar   
    22   10   91 1    
    23   11   12 ar   
    24   11   58 1    
    25   12   13 ar   
    26   12   92 1    
    27   13   14 ar   
    28   13   15 1    
    29   14   93 1    
    30   15   16 1    
    31   15   94 1    
    32   15   95 1    
    33   16   17 1    
    34   17   18 1    
    35   17   96 1    
    36   17   97 1    
    37   18   19 1    
    38   18   22 1    
    39   18   98 1    
    40   19   20 am   BACKBONE|DICT|INTERRES
    41   19   21 2    
    42   20   99 1    
    43   20  100 1    
    44   22   23 am   BACKBONE|DICT|INTERRES
    45   22  101 1    
    46   23   24 2    
    47   23   25 1    
    48   25   26 1    
    49   25   27 1    
    50   25  102 1    
    51   26  103 1    
    52   26  104 1    
    53   26  105 1    
    54   27   28 am   BACKBONE|DICT|INTERRES
    55   27  106 1    
    56   28   29 2    
    57   28   30 1    
    58   30   31 1    
    59   30   32 1    
    60   30  107 1    
    61   31  108 1    
    62   31  109 1    
    63   31  110 1    
    64   32   33 am   BACKBONE|DICT|INTERRES
    65   32  111 1    
    66   33   34 2    
    67   33   35 1    
    68   35   36 1    
    69   35   37 1    
    70   35  112 1    
    71   36  113 1    
    72   36  114 1    
    73   36  115 1    
    74   37   38 am   BACKBONE|DICT|INTERRES
    75   37  116 1    
    76   38   39 2    
    77   38   40 1    
    78   40   41 1    
    79   40   42 1    
    80   40  117 1    
    81   41  118 1    
    82   41  119 1    
    83   41  120 1    
    84   42   43 am   BACKBONE|DICT|INTERRES
    85   42  121 1    
    86   43   44 2    
    87   43   45 1    
    88   45   46 1    
    89   45   47 1    
    90   45  122 1    
    91   46  123 1    
    92   46  124 1    
    93   46  125 1    
    94   47   48 am   BACKBONE|DICT|INTERRES
    95   47  126 1    
    96   48   49 2    
    97   48   50 1    
    98   50   51 1    
    99   50   52 1    
   100   50  127 1    
   101   51  128 1    
   102   51  129 1    
   103   51  130 1    
   104   52   53 am   BACKBONE|DICT|INTERRES
   105   52  131 1    
   106   53   54 2    
   107   53   55 1    
   108   55   56 1    
   109   55   59 1    
   110   55  132 1    
   111   56   57 1    
   112   56  133 1    
   113   56  134 1    
   114   57   58 1    
   115   58  135 1    
   116   58  136 1    
   117   59   60 am   BACKBONE|DICT|INTERRES
   118   59  137 1    
   119   60   61 2    
   120   60   62 1    
   121   62   63 1    
   122   62   64 1    
   123   62  138 1    
   124   63  139 1    
   125   63  140 1    
   126   63  141 1    
   127   64   65 am   BACKBONE|DICT|INTERRES
   128   64  142 1    
   129   65   66 2    
   130   65   67 1    
   131   67   68 1    
   132   67   69 1    
   133   67  143 1    
   134   68  144 1    
   135   68  145 1    
   136   68  146 1    
   137   69   70 am   BACKBONE|DICT|INTERRES
   138   69  147 1    
   139   70   71 2    
   140   70   72 1    
   141   72   73 1    
   142   72   74 1    
   143   72  148 1    
   144   73  149 1    
   145   73  150 1    
   146   73  151 1    
   147   74   75 am   BACKBONE|DICT|INTERRES
   148   74  152 1    
   149   75   76 2    
   150   75   77 1    
   151   77   78 1    
   152   77   79 1    
   153   77  153 1    
   154   78  154 1    
   155   78  155 1    
   156   78  156 1    
   157   79   80 am   BACKBONE|DICT|INTERRES
   158   79  157 1    
   159   80   81 2    
@<TRIPOS>SUBSTRUCTURE
     1 UNK         1 GROUP             0       ****    0 ROOT    
