@<TRIPOS>MOLECULE
3R207
157   159    1
SMALL
USER_CHARGES


@<TRIPOS>ATOM
      1 CA        -49.9687  -29.4697    4.4278 C.3       0 UNK        -0.1975 
      2 C         -50.9421  -28.3702    4.8244 C.2       0 UNK         0.4852 
      3 O         -51.4144  -27.6256    3.9635 O.2       0 UNK        -0.5216 
      4 N         -51.2396  -28.2519    6.1245 N.am      1 UNK        -0.4461 
      5 CA        -52.1320  -27.2435    6.7036 C.3       1 UNK         0.0864 
      6 C6        -52.7219  -27.7120    8.0576 C.3       14 UNK        -0.0898 
      7 S7        -53.9565  -29.0527    7.8951 S.3       14 UNK        -0.2598 
      8 C8        -52.9808  -30.5891    8.0344 C.3       14 UNK         0.0286 
      9 C9        -52.2025  -30.6722    9.3391 C.ar      14 UNK        -0.0844 
     10 C10       -50.8374  -30.3873    9.3515 C.ar      14 UNK        -0.0881 
     11 C11       -50.1179  -30.3953   10.5476 C.ar      14 UNK        -0.0643 
     12 C12       -50.7718  -30.7429   11.7342 C.ar      14 UNK        -0.0930 
     13 C13       -52.1306  -31.0817   11.7384 C.ar      14 UNK        -0.0827 
     14 C14       -52.8387  -31.0360   10.5287 C.ar      14 UNK        -0.1249 
     15 C15       -52.7627  -31.4944   13.0736 C.3       14 UNK         0.0141 
     16 S16       -54.5098  -32.0442   13.0317 S.3       14 UNK        -0.2313 
     17 C17       -55.3911  -30.4568   12.8709 C.3       14 UNK        -0.0915 
     18 CA        -56.3532  -30.4193   11.6405 C.3       13 UNK         0.0968 
     19 C         -57.8332  -30.7851   11.9642 C.2       13 UNK         0.5732 
     20 N         -58.0669  -31.7128   12.8829 N.am      13 UNK        -0.7310 
     21 O         -58.7729  -30.2807   11.3513 O.2       13 UNK        -0.5035 
     22 N         -56.1854  -29.1780   10.8728 N.am      13 UNK        -0.4233 
     23 C         -56.4836  -27.9462   11.3004 C.2       13 UNK         0.4989 
     24 O         -57.0526  -27.6853   12.3620 O.2       13 UNK        -0.4996 
     25 CA        -56.0255  -26.8076   10.3802 C.3       12 UNK         0.0216 
     26 CB        -57.1544  -26.4331    9.4062 C.3       12 UNK        -0.1964 
     27 N         -55.5807  -25.5953   11.0777 N.am      12 UNK        -0.4276 
     28 C         -54.6263  -25.4061   12.0059 C.2       12 UNK         0.5020 
     29 O         -54.3517  -24.2580   12.3605 O.2       12 UNK        -0.5489 
     30 CA        -53.8323  -26.5883   12.6287 C.3       11 UNK         0.0294 
     31 CB        -52.8501  -27.2232   11.6283 C.3       11 UNK        -0.2019 
     32 N         -53.0736  -26.1461   13.8050 N.am      11 UNK        -0.4493 
     33 C         -53.6253  -25.8494   14.9912 C.2       11 UNK         0.4932 
     34 O         -54.8014  -26.0900   15.2723 O.2       11 UNK        -0.5029 
     35 CA        -52.7304  -25.1262   16.0162 C.3       10 UNK         0.0280 
     36 CB        -53.3278  -25.0962   17.4404 C.3       10 UNK        -0.1976 
     37 N         -51.3441  -25.6009   16.0285 N.am      10 UNK        -0.4242 
     38 C         -50.8895  -26.8027   16.4167 C.2       10 UNK         0.5072 
     39 O         -51.6179  -27.7076   16.8273 O.2       10 UNK        -0.5224 
     40 CA        -49.3669  -27.0564   16.3487 C.3       9 UNK         0.0343 
     41 CB        -49.0565  -28.2803   15.4686 C.3       9 UNK        -0.2003 
     42 N         -48.5932  -25.9072   15.8654 N.am      9 UNK        -0.4272 
     43 C         -48.2778  -24.8243   16.5907 C.2       9 UNK         0.4988 
     44 O         -48.5283  -24.7097   17.7906 O.2       9 UNK        -0.5108 
     45 CA        -47.6149  -23.6491   15.8450 C.3       8 UNK         0.0248 
     46 CB        -46.0848  -23.7907   15.8544 C.3       8 UNK        -0.2001 
     47 N         -48.0913  -23.4912   14.4652 N.am      8 UNK        -0.4140 
     48 C         -49.3585  -23.2063   14.1259 C.2       8 UNK         0.5028 
     49 O         -50.2492  -22.9836   14.9456 O.2       8 UNK        -0.5428 
     50 CA        -49.7145  -23.2570   12.6296 C.3       7 UNK         0.0264 
     51 CB        -49.2789  -21.9719   11.9090 C.3       7 UNK        -0.1988 
     52 N         -49.1365  -24.4263   11.9628 N.am      7 UNK        -0.4454 
     53 C         -49.4273  -25.6966   12.2793 C.2       7 UNK         0.5027 
     54 O         -50.2877  -26.0062   13.1019 O.2       7 UNK        -0.5083 
     55 CA        -48.5784  -26.8041   11.6294 C.3       6 UNK         0.0844 
     56 C56       -49.1737  -27.2716   10.2840 C.3       14 UNK        -0.0967 
     57 S57       -48.1998  -28.6129    9.5176 S.3       14 UNK        -0.2604 
     58 C58       -48.6321  -30.0509   10.5606 C.3       14 UNK         0.0134 
     59 N         -47.1785  -26.3975   11.5165 N.am      6 UNK        -0.4116 
     60 C         -46.3211  -26.3449   12.5424 C.2       5 UNK         0.5034 
     61 O         -46.6137  -26.6490   13.6978 O.2       5 UNK        -0.5045 
     62 CA        -44.9067  -25.8322   12.2272 C.3       5 UNK         0.0224 
     63 CB        -44.0152  -26.9808   11.7292 C.3       5 UNK        -0.1978 
     64 N         -44.9082  -24.7477   11.2407 N.am      5 UNK        -0.4737 
     65 C         -45.4446  -23.5388   11.4565 C.2       4 UNK         0.5027 
     66 O         -45.9553  -23.1991   12.5233 O.2       4 UNK        -0.5211 
     67 CA        -45.4568  -22.5651   10.2670 C.3       4 UNK         0.0297 
     68 CB        -44.1226  -21.8079   10.1777 C.3       4 UNK        -0.1993 
     69 N         -45.7503  -23.2062    8.9787 N.am      4 UNK        -0.4486 
     70 C         -46.8872  -23.8529    8.6891 C.2       3 UNK         0.4961 
     71 O         -47.7915  -24.0549    9.5023 O.2       3 UNK        -0.5105 
     72 CA        -47.0329  -24.3865    7.2623 C.3       3 UNK         0.0299 
     73 CB        -46.5159  -25.8306    7.1551 C.3       3 UNK        -0.1972 
     74 N         -48.4454  -24.3332    6.8974 N.am      3 UNK        -0.4305 
     75 C         -48.9220  -24.1322    5.6656 C.2       2 UNK         0.5006 
     76 O         -48.2126  -24.0732    4.6590 O.2       2 UNK        -0.5106 
     77 CA        -50.4485  -23.9752    5.5417 C.3       2 UNK         0.0296 
     78 CB        -50.8671  -23.3272    4.2083 C.3       2 UNK        -0.2002 
     79 N         -51.1272  -25.2632    5.6713 N.am      2 UNK        -0.4032 
     80 C         -51.3932  -25.8917    6.8226 C.2       1 UNK         0.5000 
     81 O         -51.0671  -25.4513    7.9274 O.2       1 UNK        -0.5238 
     82 H82       -49.0936  -29.0379    3.9427 H         1 UNK         0.0889 
     83 H83       -49.6296  -30.0456    5.2888 H         1 UNK         0.0889 
     84 H84       -50.4438  -30.1553    3.7268 H         1 UNK         0.0889 
     85 H85       -50.7856  -28.8581    6.7893 H         1 UNK         0.3028 
     86 H86       -52.9702  -27.0832    6.0214 H         1 UNK         0.0864 
     87 H87       -51.9329  -27.9940    8.7527 H         1 UNK         0.0720 
     88 H88       -53.2422  -26.8797    8.5340 H         1 UNK         0.0720 
     89 H89       -52.3123  -30.6726    7.1769 H         1 UNK         0.0814 
     90 H90       -53.6595  -31.4403    7.9655 H         1 UNK         0.0814 
     91 H91       -50.3334  -30.1351    8.4304 H         1 UNK         0.1469 
     92 H92       -50.2157  -30.7648   12.6616 H         1 UNK         0.1381 
     93 H93       -53.8859  -31.2849   10.4930 H         1 UNK         0.1206 
     94 H94       -52.1752  -32.3162   13.4854 H         1 UNK         0.0813 
     95 H95       -52.6682  -30.6709   13.7834 H         1 UNK         0.0813 
     96 H96       -55.9130  -30.2337   13.8031 H         1 UNK         0.0638 
     97 H97       -54.6325  -29.6787   12.7830 H         1 UNK         0.0638 
     98 H98       -56.0542  -31.1947   10.9361 H         1 UNK         0.0568 
     99 H99       -57.3027  -32.1563   13.3692 H         1 UNK         0.3450 
    100 H100      -59.0179  -31.9761   13.0879 H         1 UNK         0.3450 
    101 H101      -55.7647  -29.2884    9.9610 H         1 UNK         0.2987 
    102 H102      -55.1846  -27.1567    9.7849 H         1 UNK         0.0766 
    103 H103      -57.4901  -27.3036    8.8403 H         1 UNK         0.0798 
    104 H104      -56.8254  -25.6887    8.6807 H         1 UNK         0.0798 
    105 H105      -58.0228  -26.0323    9.9310 H         1 UNK         0.0798 
    106 H106      -56.0583  -24.7588   10.7778 H         1 UNK         0.3198 
    107 H107      -54.5201  -27.3505   12.9872 H         1 UNK         0.0843 
    108 H108      -52.1318  -27.8719   12.1307 H         1 UNK         0.0831 
    109 H109      -52.2912  -26.4657   11.0775 H         1 UNK         0.0831 
    110 H110      -53.3653  -27.8504   10.9040 H         1 UNK         0.0831 
    111 H111      -52.0895  -25.9368   13.6518 H         1 UNK         0.3133 
    112 H112      -52.6786  -24.0921   15.6732 H         1 UNK         0.0566 
    113 H113      -54.2944  -24.5912   17.4470 H         1 UNK         0.0814 
    114 H114      -53.4854  -26.0995   17.8368 H         1 UNK         0.0814 
    115 H115      -52.6787  -24.5589   18.1318 H         1 UNK         0.0814 
    116 H116      -50.6696  -24.9311   15.6758 H         1 UNK         0.3091 
    117 H117      -49.0368  -27.2841   17.3642 H         1 UNK         0.0702 
    118 H118      -49.4455  -28.1590   14.4584 H         1 UNK         0.0785 
    119 H119      -49.5101  -29.1823   15.8812 H         1 UNK         0.0785 
    120 H120      -47.9838  -28.4612   15.3985 H         1 UNK         0.0785 
    121 H121      -48.2908  -25.9447   14.8994 H         1 UNK         0.2998 
    122 H122      -47.8720  -22.7349   16.3839 H         1 UNK         0.0697 
    123 H123      -45.6038  -22.9292   15.3908 H         1 UNK         0.0825 
    124 H124      -45.7060  -23.8639   16.8747 H         1 UNK         0.0825 
    125 H125      -45.7573  -24.6828   15.3208 H         1 UNK         0.0825 
    126 H126      -47.3989  -23.5931   13.7264 H         1 UNK         0.3029 
    127 H127      -50.8011  -23.3389   12.5504 H         1 UNK         0.0897 
    128 H128      -49.5567  -21.9950   10.8550 H         1 UNK         0.0792 
    129 H129      -49.7565  -21.0973   12.3527 H         1 UNK         0.0792 
    130 H130      -48.2017  -21.8186   11.9672 H         1 UNK         0.0792 
    131 H131      -48.4740  -24.2494   11.2100 H         1 UNK         0.3086 
    132 H132      -48.6157  -27.6564   12.3092 H         1 UNK         0.0583 
    133 H133      -50.2013  -27.6111   10.4154 H         1 UNK         0.1020 
    134 H134      -49.2187  -26.4415    9.5769 H         1 UNK         0.1020 
    135 H135      -48.0750  -30.9171   10.2020 H         1 UNK         0.0694 
    136 H136      -48.2863  -29.8662   11.5784 H         1 UNK         0.0694 
    137 H137      -46.8699  -26.0955   10.6048 H         1 UNK         0.2989 
    138 H138      -44.4833  -25.4446   13.1567 H         1 UNK         0.1055 
    139 H139      -43.9839  -27.7925   12.4576 H         1 UNK         0.0806 
    140 H140      -44.3789  -27.4003   10.7902 H         1 UNK         0.0806 
    141 H141      -42.9887  -26.6480   11.5741 H         1 UNK         0.0806 
    142 H142      -44.5048  -24.9413   10.3354 H         1 UNK         0.3061 
    143 H143      -46.2468  -21.8349   10.4538 H         1 UNK         0.0734 
    144 H144      -44.1530  -21.0378    9.4068 H         1 UNK         0.0832 
    145 H145      -43.8946  -21.3088   11.1209 H         1 UNK         0.0832 
    146 H146      -43.2901  -22.4762    9.9541 H         1 UNK         0.0832 
    147 H147      -45.0562  -23.0989    8.2522 H         1 UNK         0.3156 
    148 H148      -46.4582  -23.7432    6.5924 H         1 UNK         0.0589 
    149 H149      -46.5925  -26.2031    6.1335 H         1 UNK         0.0808 
    150 H150      -45.4673  -25.8981    7.4469 H         1 UNK         0.0808 
    151 H151      -47.0804  -26.5059    7.7973 H         1 UNK         0.0808 
    152 H152      -49.0931  -24.3882    7.6781 H         1 UNK         0.3098 
    153 H153      -50.7805  -23.3161    6.3472 H         1 UNK         0.0720 
    154 H154      -50.3786  -22.3612    4.0733 H         1 UNK         0.0791 
    155 H155      -50.6017  -23.9504    3.3532 H         1 UNK         0.0791 
    156 H156      -51.9427  -23.1527    4.1736 H         1 UNK         0.0791 
    157 H157      -51.3426  -25.7583    4.8116 H         1 UNK         0.3028 
@<TRIPOS>BOND
     1    1    2 1    
     2    1   82 1    
     3    1   83 1    
     4    1   84 1    
     5    2    3 2    
     6    2    4 am   BACKBONE|DICT|INTERRES
     7    4    5 1    
     8    4   85 1    
     9    5    6 1    
    10    5   80 1    
    11    5   86 1    
    12    6    7 1    
    13    6   87 1    
    14    6   88 1    
    15    7    8 1    
    16    8    9 1    
    17    8   89 1    
    18    8   90 1    
    19    9   10 ar   
    20    9   14 ar   
    21   10   11 ar   
    22   10   91 1    
    23   11   12 ar   
    24   11   58 1    
    25   12   13 ar   
    26   12   92 1    
    27   13   14 ar   
    28   13   15 1    
    29   14   93 1    
    30   15   16 1    
    31   15   94 1    
    32   15   95 1    
    33   16   17 1    
    34   17   18 1    
    35   17   96 1    
    36   17   97 1    
    37   18   19 1    
    38   18   22 1    
    39   18   98 1    
    40   19   20 am   BACKBONE|DICT|INTERRES
    41   19   21 2    
    42   20   99 1    
    43   20  100 1    
    44   22   23 am   BACKBONE|DICT|INTERRES
    45   22  101 1    
    46   23   24 2    
    47   23   25 1    
    48   25   26 1    
    49   25   27 1    
    50   25  102 1    
    51   26  103 1    
    52   26  104 1    
    53   26  105 1    
    54   27   28 am   BACKBONE|DICT|INTERRES
    55   27  106 1    
    56   28   29 2    
    57   28   30 1    
    58   30   31 1    
    59   30   32 1    
    60   30  107 1    
    61   31  108 1    
    62   31  109 1    
    63   31  110 1    
    64   32   33 am   BACKBONE|DICT|INTERRES
    65   32  111 1    
    66   33   34 2    
    67   33   35 1    
    68   35   36 1    
    69   35   37 1    
    70   35  112 1    
    71   36  113 1    
    72   36  114 1    
    73   36  115 1    
    74   37   38 am   BACKBONE|DICT|INTERRES
    75   37  116 1    
    76   38   39 2    
    77   38   40 1    
    78   40   41 1    
    79   40   42 1    
    80   40  117 1    
    81   41  118 1    
    82   41  119 1    
    83   41  120 1    
    84   42   43 am   BACKBONE|DICT|INTERRES
    85   42  121 1    
    86   43   44 2    
    87   43   45 1    
    88   45   46 1    
    89   45   47 1    
    90   45  122 1    
    91   46  123 1    
    92   46  124 1    
    93   46  125 1    
    94   47   48 am   BACKBONE|DICT|INTERRES
    95   47  126 1    
    96   48   49 2    
    97   48   50 1    
    98   50   51 1    
    99   50   52 1    
   100   50  127 1    
   101   51  128 1    
   102   51  129 1    
   103   51  130 1    
   104   52   53 am   BACKBONE|DICT|INTERRES
   105   52  131 1    
   106   53   54 2    
   107   53   55 1    
   108   55   56 1    
   109   55   59 1    
   110   55  132 1    
   111   56   57 1    
   112   56  133 1    
   113   56  134 1    
   114   57   58 1    
   115   58  135 1    
   116   58  136 1    
   117   59   60 am   BACKBONE|DICT|INTERRES
   118   59  137 1    
   119   60   61 2    
   120   60   62 1    
   121   62   63 1    
   122   62   64 1    
   123   62  138 1    
   124   63  139 1    
   125   63  140 1    
   126   63  141 1    
   127   64   65 am   BACKBONE|DICT|INTERRES
   128   64  142 1    
   129   65   66 2    
   130   65   67 1    
   131   67   68 1    
   132   67   69 1    
   133   67  143 1    
   134   68  144 1    
   135   68  145 1    
   136   68  146 1    
   137   69   70 am   BACKBONE|DICT|INTERRES
   138   69  147 1    
   139   70   71 2    
   140   70   72 1    
   141   72   73 1    
   142   72   74 1    
   143   72  148 1    
   144   73  149 1    
   145   73  150 1    
   146   73  151 1    
   147   74   75 am   BACKBONE|DICT|INTERRES
   148   74  152 1    
   149   75   76 2    
   150   75   77 1    
   151   77   78 1    
   152   77   79 1    
   153   77  153 1    
   154   78  154 1    
   155   78  155 1    
   156   78  156 1    
   157   79   80 am   BACKBONE|DICT|INTERRES
   158   79  157 1    
   159   80   81 2    
@<TRIPOS>SUBSTRUCTURE
     1 UNK         1 GROUP             0       ****    0 ROOT    
