@<TRIPOS>MOLECULE
3R207
157   159    1
SMALL
USER_CHARGES


@<TRIPOS>ATOM
      1 CA        -45.3274  -30.3515    7.4057 C.3       0 UNK        -0.1975 
      2 C         -46.0912  -29.5722    6.3451 C.2       0 UNK         0.4852 
      3 O         -45.4905  -29.1130    5.3723 O.2       0 UNK        -0.5216 
      4 N         -47.4113  -29.4325    6.5218 N.am      1 UNK        -0.4461 
      5 CA        -48.3082  -28.6701    5.6473 C.3       1 UNK         0.0864 
      6 C6        -49.8023  -28.9005    5.9937 C.3       14 UNK        -0.0898 
      7 S7        -50.2716  -30.6593    6.1058 S.3       14 UNK        -0.2598 
      8 C8        -52.0124  -30.5311    6.6341 C.3       14 UNK         0.0286 
      9 C9        -52.1617  -29.8369    7.9821 C.ar      14 UNK        -0.0844 
     10 C10       -52.6943  -28.5451    8.0561 C.ar      14 UNK        -0.0881 
     11 C11       -52.8242  -27.8990    9.2890 C.ar      14 UNK        -0.0643 
     12 C12       -52.4113  -28.5534   10.4515 C.ar      14 UNK        -0.0930 
     13 C13       -51.8931  -29.8497   10.3943 C.ar      14 UNK        -0.0827 
     14 C14       -51.7717  -30.4876    9.1566 C.ar      14 UNK        -0.1249 
     15 C15       -51.4530  -30.5550   11.6682 C.3       14 UNK         0.0141 
     16 S16       -52.8139  -31.4968   12.4309 S.3       14 UNK        -0.2313 
     17 C17       -53.8760  -30.1654   13.0840 C.3       14 UNK        -0.0915 
     18 CA        -55.1120  -29.8931   12.1813 C.3       13 UNK         0.0968 
     19 C         -56.3010  -30.8213   12.5573 C.2       13 UNK         0.5732 
     20 N         -56.4280  -31.9674   11.9028 N.am      13 UNK        -0.7310 
     21 O         -57.0801  -30.5289   13.4631 O.2       13 UNK        -0.5035 
     22 N         -55.4528  -28.4644   12.2006 N.am      13 UNK        -0.4233 
     23 C         -56.4296  -27.8612   11.5134 C.2       13 UNK         0.4989 
     24 O         -57.1566  -28.4461   10.7087 O.2       13 UNK        -0.4996 
     25 CA        -56.6241  -26.3444   11.7578 C.3       12 UNK         0.0216 
     26 CB        -58.0152  -25.8549   11.3114 C.3       12 UNK        -0.1964 
     27 N         -56.4012  -25.9241   13.1485 N.am      12 UNK        -0.4276 
     28 C         -55.2153  -25.8243   13.7613 C.2       12 UNK         0.5020 
     29 O         -54.1425  -26.1171   13.2259 O.2       12 UNK        -0.5489 
     30 CA        -55.2405  -25.4001   15.2324 C.3       11 UNK         0.0294 
     31 CB        -55.6884  -26.5794   16.1199 C.3       11 UNK        -0.2019 
     32 N         -53.8987  -24.9705   15.6104 N.am      11 UNK        -0.4493 
     33 C         -53.5608  -24.3076   16.7231 C.2       11 UNK         0.4932 
     34 O         -54.3782  -23.9011   17.5510 O.2       11 UNK        -0.5029 
     35 CA        -52.0525  -24.0764   16.9459 C.3       10 UNK         0.0280 
     36 CB        -51.6973  -23.6885   18.3968 C.3       10 UNK        -0.1976 
     37 N         -51.2511  -25.2151   16.4844 N.am      10 UNK        -0.4242 
     38 C         -51.2736  -26.4762   16.9427 C.2       10 UNK         0.5072 
     39 O         -51.9040  -26.8459   17.9342 O.2       10 UNK        -0.5224 
     40 CA        -50.4806  -27.5173   16.1340 C.3       9 UNK         0.0343 
     41 CB        -51.3994  -28.1921   15.1034 C.3       9 UNK        -0.2003 
     42 N         -49.3147  -26.9542   15.4473 N.am      9 UNK        -0.4272 
     43 C         -48.1942  -26.5578   16.0686 C.2       9 UNK         0.4988 
     44 O         -47.9996  -26.6835   17.2784 O.2       9 UNK        -0.5108 
     45 CA        -47.1113  -25.8958   15.1995 C.3       8 UNK         0.0248 
     46 CB        -46.3056  -26.9559   14.4319 C.3       8 UNK        -0.2001 
     47 N         -47.6551  -24.9054   14.2657 N.am      8 UNK        -0.4140 
     48 C         -48.2540  -23.7626   14.6354 C.2       8 UNK         0.5028 
     49 O         -48.3705  -23.3945   15.8044 O.2       8 UNK        -0.5428 
     50 CA        -48.8482  -22.8885   13.5187 C.3       7 UNK         0.0264 
     51 CB        -47.7641  -22.0039   12.8827 C.3       7 UNK        -0.1988 
     52 N         -49.5166  -23.6697   12.4773 N.am      7 UNK        -0.4454 
     53 C         -50.6135  -24.4187   12.6653 C.2       7 UNK         0.5027 
     54 O         -51.2147  -24.4954   13.7362 O.2       7 UNK        -0.5083 
     55 CA        -51.0862  -25.2605   11.4668 C.3       6 UNK         0.0844 
     56 C56       -51.8843  -24.3959   10.4584 C.3       14 UNK        -0.0967 
     57 S57       -52.2462  -25.2238    8.8707 S.3       14 UNK        -0.2604 
     58 C58       -53.4352  -26.5077    9.3636 C.3       14 UNK         0.0134 
     59 N         -49.9665  -25.9754   10.8548 N.am      6 UNK        -0.4116 
     60 C         -49.2559  -26.9451   11.4450 C.2       5 UNK         0.5034 
     61 O         -49.4773  -27.3729   12.5773 O.2       5 UNK        -0.5045 
     62 CA        -48.0616  -27.4973   10.6517 C.3       5 UNK         0.0224 
     63 CB        -48.4884  -28.6826    9.7794 C.3       5 UNK        -0.1978 
     64 N         -47.4109  -26.4719    9.8284 N.am      5 UNK        -0.4737 
     65 C         -46.7469  -25.4323   10.3534 C.2       4 UNK         0.5027 
     66 O         -46.5982  -25.2551   11.5625 O.2       4 UNK        -0.5211 
     67 CA        -46.1999  -24.3930    9.3696 C.3       4 UNK         0.0297 
     68 CB        -44.9574  -24.9296    8.6402 C.3       4 UNK        -0.1993 
     69 N         -47.1964  -23.9567    8.3909 N.am      4 UNK        -0.4486 
     70 C         -48.3204  -23.2783    8.6714 C.2       3 UNK         0.4961 
     71 O         -48.6937  -23.0314    9.8175 O.2       3 UNK        -0.5105 
     72 CA        -49.1617  -22.7633    7.4869 C.3       3 UNK         0.0299 
     73 CB        -49.1399  -21.2262    7.4446 C.3       3 UNK        -0.1972 
     74 N         -48.6656  -23.2826    6.2096 N.am      3 UNK        -0.4305 
     75 C         -49.1902  -24.3340    5.5702 C.2       2 UNK         0.5006 
     76 O         -50.2902  -24.8208    5.8367 O.2       2 UNK        -0.5106 
     77 CA        -48.3308  -24.9935    4.4707 C.3       2 UNK         0.0296 
     78 CB        -46.8768  -24.4708    4.3892 C.3       2 UNK        -0.2002 
     79 N         -48.3390  -26.4552    4.6135 N.am      2 UNK        -0.4032 
     80 C         -48.0046  -27.1588    5.7086 C.2       1 UNK         0.5000 
     81 O         -47.5480  -26.6636    6.7475 O.2       1 UNK        -0.5238 
     82 H82       -45.9939  -30.8004    8.1420 H         1 UNK         0.0889 
     83 H83       -44.6369  -29.6911    7.9295 H         1 UNK         0.0889 
     84 H84       -44.7502  -31.1511    6.9420 H         1 UNK         0.0889 
     85 H85       -47.8558  -29.8513    7.3247 H         1 UNK         0.3028 
     86 H86       -48.1325  -29.0141    4.6256 H         1 UNK         0.0864 
     87 H87       -50.0495  -28.4174    6.9393 H         1 UNK         0.0720 
     88 H88       -50.4422  -28.4316    5.2437 H         1 UNK         0.0720 
     89 H89       -52.4363  -31.5342    6.6986 H         1 UNK         0.0814 
     90 H90       -52.5822  -30.0094    5.8636 H         1 UNK         0.0814 
     91 H91       -53.0046  -28.0356    7.1540 H         1 UNK         0.1469 
     92 H92       -52.5080  -28.0593   11.4065 H         1 UNK         0.1381 
     93 H93       -51.3648  -31.4882    9.1040 H         1 UNK         0.1206 
     94 H94       -50.6365  -31.2429   11.4443 H         1 UNK         0.0813 
     95 H95       -51.0494  -29.8341   12.3800 H         1 UNK         0.0813 
     96 H96       -53.2653  -29.2690   13.1879 H         1 UNK         0.0638 
     97 H97       -54.1718  -30.4191   14.1038 H         1 UNK         0.0638 
     98 H98       -54.8437  -30.1034   11.1440 H         1 UNK         0.0568 
     99 H99       -55.7728  -32.2267   11.1819 H         1 UNK         0.3450 
    100 H100      -57.1835  -32.5895   12.1432 H         1 UNK         0.3450 
    101 H101      -54.8846  -27.8722   12.7957 H         1 UNK         0.2987 
    102 H102      -55.8902  -25.8306   11.1360 H         1 UNK         0.0766 
    103 H103      -58.1221  -24.7788   11.4496 H         1 UNK         0.0798 
    104 H104      -58.8132  -26.3474   11.8685 H         1 UNK         0.0798 
    105 H105      -58.1833  -26.0570   10.2526 H         1 UNK         0.0798 
    106 H106      -57.2323  -25.7124   13.6826 H         1 UNK         0.3198 
    107 H107      -55.9290  -24.5600   15.3456 H         1 UNK         0.0843 
    108 H108      -56.6776  -26.9397   15.8349 H         1 UNK         0.0831 
    109 H109      -55.7451  -26.2926   17.1699 H         1 UNK         0.0831 
    110 H110      -54.9993  -27.4218   16.0431 H         1 UNK         0.0831 
    111 H111      -53.1820  -25.2115   14.9315 H         1 UNK         0.3133 
    112 H112      -51.7759  -23.2379   16.3051 H         1 UNK         0.0566 
    113 H113      -50.6240  -23.5374   18.5131 H         1 UNK         0.0814 
    114 H114      -52.1886  -22.7578   18.6825 H         1 UNK         0.0814 
    115 H115      -52.0093  -24.4515   19.1104 H         1 UNK         0.0814 
    116 H116      -50.7617  -25.0500   15.6107 H         1 UNK         0.3091 
    117 H117      -50.1316  -28.2817   16.8314 H         1 UNK         0.0702 
    118 H118      -50.8850  -29.0074   14.5960 H         1 UNK         0.0785 
    119 H119      -51.7429  -27.4866   14.3449 H         1 UNK         0.0785 
    120 H120      -52.2839  -28.6149   15.5819 H         1 UNK         0.0785 
    121 H121      -49.3718  -26.8843   14.4341 H         1 UNK         0.2998 
    122 H122      -46.4251  -25.3721   15.8683 H         1 UNK         0.0697 
    123 H123      -46.9332  -27.5180   13.7407 H         1 UNK         0.0825 
    124 H124      -45.8531  -27.6734   15.1177 H         1 UNK         0.0825 
    125 H125      -45.4976  -26.5022   13.8576 H         1 UNK         0.0825 
    126 H126      -47.5293  -25.0918   13.2740 H         1 UNK         0.3029 
    127 H127      -49.5967  -22.2367   13.9744 H         1 UNK         0.0897 
    128 H128      -48.1918  -21.3201   12.1491 H         1 UNK         0.0792 
    129 H129      -47.2606  -21.3981   13.6372 H         1 UNK         0.0792 
    130 H130      -47.0023  -22.5990   12.3775 H         1 UNK         0.0792 
    131 H131      -49.1118  -23.6184   11.5440 H         1 UNK         0.3086 
    132 H132      -51.7659  -26.0126   11.8668 H         1 UNK         0.0583 
    133 H133      -52.8253  -24.0716   10.9076 H         1 UNK         0.1020 
    134 H134      -51.3400  -23.4805   10.2186 H         1 UNK         0.1020 
    135 H135      -53.7970  -26.3086   10.3719 H         1 UNK         0.0694 
    136 H136      -54.3064  -26.4560    8.7091 H         1 UNK         0.0694 
    137 H137      -49.7104  -25.6885    9.9222 H         1 UNK         0.2989 
    138 H138      -47.3291  -27.8605   11.3754 H         1 UNK         0.1055 
    139 H139      -48.9312  -29.4722   10.3871 H         1 UNK         0.0806 
    140 H140      -47.6327  -29.1153    9.2650 H         1 UNK         0.0806 
    141 H141      -49.2305  -28.3883    9.0385 H         1 UNK         0.0806 
    142 H142      -47.4906  -26.5469    8.8175 H         1 UNK         0.3061 
    143 H143      -45.9014  -23.5169    9.9496 H         1 UNK         0.0734 
    144 H144      -44.1978  -25.2541    9.3528 H         1 UNK         0.0832 
    145 H145      -45.1950  -25.7849    8.0059 H         1 UNK         0.0832 
    146 H146      -44.5033  -24.1627    8.0126 H         1 UNK         0.0832 
    147 H147      -47.0229  -24.2197    7.4329 H         1 UNK         0.3156 
    148 H148      -50.1918  -23.0828    7.6572 H         1 UNK         0.0589 
    149 H149      -48.1296  -20.8380    7.3096 H         1 UNK         0.0808 
    150 H150      -49.7585  -20.8441    6.6325 H         1 UNK         0.0808 
    151 H151      -49.5296  -20.8046    8.3724 H         1 UNK         0.0808 
    152 H152      -47.7855  -22.9106    5.8812 H         1 UNK         0.3098 
    153 H153      -48.8220  -24.7679    3.5230 H         1 UNK         0.0720 
    154 H154      -46.3300  -24.9747    3.5919 H         1 UNK         0.0791 
    155 H155      -46.3239  -24.6376    5.3143 H         1 UNK         0.0791 
    156 H156      -46.8454  -23.4045    4.1623 H         1 UNK         0.0791 
    157 H157      -48.7418  -26.9570    3.8346 H         1 UNK         0.3028 
@<TRIPOS>BOND
     1    1    2 1    
     2    1   82 1    
     3    1   83 1    
     4    1   84 1    
     5    2    3 2    
     6    2    4 am   BACKBONE|DICT|INTERRES
     7    4    5 1    
     8    4   85 1    
     9    5    6 1    
    10    5   80 1    
    11    5   86 1    
    12    6    7 1    
    13    6   87 1    
    14    6   88 1    
    15    7    8 1    
    16    8    9 1    
    17    8   89 1    
    18    8   90 1    
    19    9   10 ar   
    20    9   14 ar   
    21   10   11 ar   
    22   10   91 1    
    23   11   12 ar   
    24   11   58 1    
    25   12   13 ar   
    26   12   92 1    
    27   13   14 ar   
    28   13   15 1    
    29   14   93 1    
    30   15   16 1    
    31   15   94 1    
    32   15   95 1    
    33   16   17 1    
    34   17   18 1    
    35   17   96 1    
    36   17   97 1    
    37   18   19 1    
    38   18   22 1    
    39   18   98 1    
    40   19   20 am   BACKBONE|DICT|INTERRES
    41   19   21 2    
    42   20   99 1    
    43   20  100 1    
    44   22   23 am   BACKBONE|DICT|INTERRES
    45   22  101 1    
    46   23   24 2    
    47   23   25 1    
    48   25   26 1    
    49   25   27 1    
    50   25  102 1    
    51   26  103 1    
    52   26  104 1    
    53   26  105 1    
    54   27   28 am   BACKBONE|DICT|INTERRES
    55   27  106 1    
    56   28   29 2    
    57   28   30 1    
    58   30   31 1    
    59   30   32 1    
    60   30  107 1    
    61   31  108 1    
    62   31  109 1    
    63   31  110 1    
    64   32   33 am   BACKBONE|DICT|INTERRES
    65   32  111 1    
    66   33   34 2    
    67   33   35 1    
    68   35   36 1    
    69   35   37 1    
    70   35  112 1    
    71   36  113 1    
    72   36  114 1    
    73   36  115 1    
    74   37   38 am   BACKBONE|DICT|INTERRES
    75   37  116 1    
    76   38   39 2    
    77   38   40 1    
    78   40   41 1    
    79   40   42 1    
    80   40  117 1    
    81   41  118 1    
    82   41  119 1    
    83   41  120 1    
    84   42   43 am   BACKBONE|DICT|INTERRES
    85   42  121 1    
    86   43   44 2    
    87   43   45 1    
    88   45   46 1    
    89   45   47 1    
    90   45  122 1    
    91   46  123 1    
    92   46  124 1    
    93   46  125 1    
    94   47   48 am   BACKBONE|DICT|INTERRES
    95   47  126 1    
    96   48   49 2    
    97   48   50 1    
    98   50   51 1    
    99   50   52 1    
   100   50  127 1    
   101   51  128 1    
   102   51  129 1    
   103   51  130 1    
   104   52   53 am   BACKBONE|DICT|INTERRES
   105   52  131 1    
   106   53   54 2    
   107   53   55 1    
   108   55   56 1    
   109   55   59 1    
   110   55  132 1    
   111   56   57 1    
   112   56  133 1    
   113   56  134 1    
   114   57   58 1    
   115   58  135 1    
   116   58  136 1    
   117   59   60 am   BACKBONE|DICT|INTERRES
   118   59  137 1    
   119   60   61 2    
   120   60   62 1    
   121   62   63 1    
   122   62   64 1    
   123   62  138 1    
   124   63  139 1    
   125   63  140 1    
   126   63  141 1    
   127   64   65 am   BACKBONE|DICT|INTERRES
   128   64  142 1    
   129   65   66 2    
   130   65   67 1    
   131   67   68 1    
   132   67   69 1    
   133   67  143 1    
   134   68  144 1    
   135   68  145 1    
   136   68  146 1    
   137   69   70 am   BACKBONE|DICT|INTERRES
   138   69  147 1    
   139   70   71 2    
   140   70   72 1    
   141   72   73 1    
   142   72   74 1    
   143   72  148 1    
   144   73  149 1    
   145   73  150 1    
   146   73  151 1    
   147   74   75 am   BACKBONE|DICT|INTERRES
   148   74  152 1    
   149   75   76 2    
   150   75   77 1    
   151   77   78 1    
   152   77   79 1    
   153   77  153 1    
   154   78  154 1    
   155   78  155 1    
   156   78  156 1    
   157   79   80 am   BACKBONE|DICT|INTERRES
   158   79  157 1    
   159   80   81 2    
@<TRIPOS>SUBSTRUCTURE
     1 UNK         1 GROUP             0       ****    0 ROOT    
