@<TRIPOS>MOLECULE
3R207
157   159    1
SMALL
USER_CHARGES


@<TRIPOS>ATOM
      1 CA        -53.1671  -28.4120    1.5207 C.3       0 UNK        -0.1975 
      2 C         -53.1174  -27.9567    2.9721 C.2       0 UNK         0.4852 
      3 O         -53.7650  -26.9692    3.3225 O.2       0 UNK        -0.5216 
      4 N         -52.3646  -28.6783    3.8115 N.am      1 UNK        -0.4461 
      5 CA        -52.1351  -28.3764    5.2254 C.3       1 UNK         0.0864 
      6 C6        -52.1101  -29.6639    6.0933 C.3       14 UNK        -0.0898 
      7 S7        -50.9424  -30.9620    5.5399 S.3       14 UNK        -0.2598 
      8 C8        -51.4258  -32.3634    6.6032 C.3       14 UNK         0.0286 
      9 C9        -51.4591  -31.9684    8.0722 C.ar      14 UNK        -0.0844 
     10 C10       -50.2755  -31.6486    8.7414 C.ar      14 UNK        -0.0881 
     11 C11       -50.3085  -31.1941   10.0623 C.ar      14 UNK        -0.0643 
     12 C12       -51.5354  -31.0837   10.7222 C.ar      14 UNK        -0.0930 
     13 C13       -52.7277  -31.4094   10.0662 C.ar      14 UNK        -0.0827 
     14 C14       -52.6794  -31.8671    8.7454 C.ar      14 UNK        -0.1249 
     15 C15       -54.0587  -31.2506   10.7951 C.3       14 UNK         0.0141 
     16 S16       -55.3622  -30.4338    9.8036 S.3       14 UNK        -0.2313 
     17 C17       -54.6278  -28.8540    9.2371 C.3       14 UNK        -0.0915 
     18 CA        -53.7164  -28.1070   10.2477 C.3       13 UNK         0.0968 
     19 C         -53.1432  -26.7979    9.6316 C.2       13 UNK         0.5732 
     20 N         -53.3637  -25.6256   10.2183 N.am      13 UNK        -0.7310 
     21 O         -52.4789  -26.8522    8.6002 O.2       13 UNK        -0.5035 
     22 N         -54.3785  -27.9268   11.5469 N.am      13 UNK        -0.4233 
     23 C         -53.7261  -27.7846   12.7038 C.2       13 UNK         0.4989 
     24 O         -52.5028  -27.8543   12.8183 O.2       13 UNK        -0.4996 
     25 CA        -54.5918  -27.5194   13.9444 C.3       12 UNK         0.0216 
     26 CB        -54.4433  -28.6583   14.9658 C.3       12 UNK        -0.1964 
     27 N         -54.2543  -26.2349   14.5651 N.am      12 UNK        -0.4276 
     28 C         -54.4410  -25.0445   13.9727 C.2       12 UNK         0.5020 
     29 O         -54.9017  -24.9309   12.8341 O.2       12 UNK        -0.5489 
     30 CA        -54.0386  -23.7593   14.7251 C.3       11 UNK         0.0294 
     31 CB        -55.1968  -22.7403   14.7763 C.3       11 UNK        -0.2019 
     32 N         -53.4387  -23.9627   16.0507 N.am      11 UNK        -0.4493 
     33 C         -54.0386  -24.3760   17.1762 C.2       11 UNK         0.4932 
     34 O         -55.2329  -24.6684   17.2510 O.2       11 UNK        -0.5029 
     35 CA        -53.1301  -24.5099   18.4173 C.3       10 UNK         0.0280 
     36 CB        -53.8632  -25.1252   19.6280 C.3       10 UNK        -0.1976 
     37 N         -51.8853  -25.2469   18.1565 N.am      10 UNK        -0.4242 
     38 C         -51.7612  -26.4672   17.6129 C.2       10 UNK         0.5072 
     39 O         -52.7160  -27.1279   17.2035 O.2       10 UNK        -0.5224 
     40 CA        -50.3292  -27.0288   17.4941 C.3       9 UNK         0.0343 
     41 CB        -50.2918  -28.4093   16.8114 C.3       9 UNK        -0.2003 
     42 N         -49.4593  -26.1107   16.7568 N.am      9 UNK        -0.4272 
     43 C         -48.8497  -25.0358   17.2811 C.2       9 UNK         0.4988 
     44 O         -48.8994  -24.7488   18.4777 O.2       9 UNK        -0.5108 
     45 CA        -48.1183  -24.0833   16.3136 C.3       8 UNK         0.0248 
     46 CB        -46.6275  -24.4452   16.2270 C.3       8 UNK        -0.2001 
     47 N         -48.6930  -24.0721   14.9662 N.am      8 UNK        -0.4140 
     48 C         -49.9637  -23.7524   14.6773 C.2       8 UNK         0.5028 
     49 O         -50.7499  -23.2813   15.5008 O.2       8 UNK        -0.5428 
     50 CA        -50.4757  -24.0635   13.2581 C.3       7 UNK         0.0264 
     51 CB        -50.7483  -22.7628   12.4875 C.3       7 UNK        -0.1988 
     52 N         -49.6208  -24.9643   12.4690 N.am      7 UNK        -0.4454 
     53 C         -49.3736  -26.2420   12.8103 C.2       7 UNK         0.5027 
     54 O         -49.7619  -26.7378   13.8684 O.2       7 UNK        -0.5083 
     55 CA        -48.5090  -27.1102   11.8773 C.3       6 UNK         0.0844 
     56 C56       -49.3807  -27.9898   10.9492 C.3       14 UNK        -0.0967 
     57 S57       -48.3600  -29.2410   10.0951 S.3       14 UNK        -0.2604 
     58 C58       -49.0152  -30.8030   10.7586 C.3       14 UNK         0.0134 
     59 N         -47.4915  -26.3625   11.1338 N.am      6 UNK        -0.4116 
     60 C         -46.4196  -25.7757   11.6840 C.2       5 UNK         0.5034 
     61 O         -46.2617  -25.6341   12.8971 O.2       5 UNK        -0.5045 
     62 CA        -45.3311  -25.2846   10.7188 C.3       5 UNK         0.0224 
     63 CB        -44.5627  -26.4754   10.1203 C.3       5 UNK        -0.1978 
     64 N         -45.9182  -24.4966    9.6374 N.am      5 UNK        -0.4737 
     65 C         -45.8310  -23.1642    9.5323 C.2       4 UNK         0.5027 
     66 O         -45.1267  -22.4622   10.2586 O.2       4 UNK        -0.5211 
     67 CA        -46.6909  -22.4868    8.4459 C.3       4 UNK         0.0297 
     68 CB        -45.8578  -22.2466    7.1767 C.3       4 UNK        -0.1993 
     69 N         -47.9079  -23.2261    8.0908 N.am      4 UNK        -0.4486 
     70 C         -48.8736  -23.5842    8.9494 C.2       3 UNK         0.4961 
     71 O         -48.8630  -23.3093   10.1466 O.2       3 UNK        -0.5105 
     72 CA        -50.0126  -24.4577    8.4049 C.3       3 UNK         0.0299 
     73 CB        -51.1722  -23.5787    7.9120 C.3       3 UNK        -0.1972 
     74 N         -49.6225  -25.3900    7.3427 N.am      3 UNK        -0.4305 
     75 C         -48.6323  -26.2920    7.3886 C.2       2 UNK         0.5006 
     76 O         -47.8200  -26.3663    8.3139 O.2       2 UNK        -0.5106 
     77 CA        -48.5436  -27.2658    6.1967 C.3       2 UNK         0.0296 
     78 CB        -47.4169  -28.3027    6.3602 C.3       2 UNK        -0.2002 
     79 N         -49.8079  -27.9722    5.9638 N.am      2 UNK        -0.4032 
     80 C         -50.8949  -27.4653    5.3655 C.2       1 UNK         0.5000 
     81 O         -50.9409  -26.3082    4.9395 O.2       1 UNK        -0.5238 
     82 H82       -54.1937  -28.6371    1.2329 H         1 UNK         0.0889 
     83 H83       -52.5647  -29.3044    1.3516 H         1 UNK         0.0889 
     84 H84       -52.7949  -27.6231    0.8676 H         1 UNK         0.0889 
     85 H85       -51.8521  -29.4752    3.4598 H         1 UNK         0.3028 
     86 H86       -52.9701  -27.7785    5.5984 H         1 UNK         0.0864 
     87 H87       -53.1094  -30.1023    6.0997 H         1 UNK         0.0720 
     88 H88       -51.9001  -29.4087    7.1342 H         1 UNK         0.0720 
     89 H89       -50.7194  -33.1824    6.4613 H         1 UNK         0.0814 
     90 H90       -52.3988  -32.7363    6.2793 H         1 UNK         0.0814 
     91 H91       -49.3297  -31.7139    8.2206 H         1 UNK         0.1469 
     92 H92       -51.5631  -30.7225   11.7415 H         1 UNK         0.1381 
     93 H93       -53.5981  -32.1099    8.2292 H         1 UNK         0.1206 
     94 H94       -54.4143  -32.2414   11.0798 H         1 UNK         0.0813 
     95 H95       -53.9274  -30.7003   11.7271 H         1 UNK         0.0813 
     96 H96       -55.4516  -28.2067    8.9315 H         1 UNK         0.0638 
     97 H97       -54.0693  -29.0732    8.3261 H         1 UNK         0.0638 
     98 H98       -52.8341  -28.7225   10.4108 H         1 UNK         0.0568 
     99 H99       -53.9166  -25.5587   11.0647 H         1 UNK         0.3450 
    100 H100      -52.9925  -24.7922    9.7960 H         1 UNK         0.3450 
    101 H101      -55.3833  -27.8360   11.5253 H         1 UNK         0.2987 
    102 H102      -55.6415  -27.4730   13.6465 H         1 UNK         0.0766 
    103 H103      -55.0323  -28.4695   15.8636 H         1 UNK         0.0798 
    104 H104      -53.4044  -28.7945   15.2692 H         1 UNK         0.0798 
    105 H105      -54.7835  -29.6050   14.5446 H         1 UNK         0.0798 
    106 H106      -53.8350  -26.2719   15.4874 H         1 UNK         0.3198 
    107 H107      -53.2545  -23.3028   14.1229 H         1 UNK         0.0843 
    108 H108      -56.0706  -23.1395   15.2915 H         1 UNK         0.0831 
    109 H109      -55.5174  -22.4651   13.7707 H         1 UNK         0.0831 
    110 H110      -54.8971  -21.8219   15.2809 H         1 UNK         0.0831 
    111 H111      -52.4393  -23.7598   16.0877 H         1 UNK         0.3133 
    112 H112      -52.8353  -23.4955   18.6898 H         1 UNK         0.0566 
    113 H113      -53.2181  -25.1632   20.5057 H         1 UNK         0.0814 
    114 H114      -54.7399  -24.5348   19.8974 H         1 UNK         0.0814 
    115 H115      -54.2051  -26.1397   19.4190 H         1 UNK         0.0814 
    116 H116      -51.0268  -24.7817   18.4313 H         1 UNK         0.3091 
    117 H117      -49.9440  -27.1515   18.5085 H         1 UNK         0.0702 
    118 H118      -50.8782  -29.1383   17.3721 H         1 UNK         0.0785 
    119 H119      -50.7015  -28.3708   15.8008 H         1 UNK         0.0785 
    120 H120      -49.2738  -28.7932   16.7457 H         1 UNK         0.0785 
    121 H121      -49.4259  -26.2528   15.7504 H         1 UNK         0.2998 
    122 H122      -48.2061  -23.0728   16.7176 H         1 UNK         0.0697 
    123 H123      -46.4779  -25.4407   15.8063 H         1 UNK         0.0825 
    124 H124      -46.1644  -24.4344   17.2147 H         1 UNK         0.0825 
    125 H125      -46.0812  -23.7351   15.6057 H         1 UNK         0.0825 
    126 H126      -48.1202  -24.4566   14.2266 H         1 UNK         0.3029 
    127 H127      -51.4270  -24.5835   13.3825 H         1 UNK         0.0897 
    128 H128      -51.2098  -22.9628   11.5204 H         1 UNK         0.0792 
    129 H129      -49.8310  -22.1984   12.3174 H         1 UNK         0.0792 
    130 H130      -51.4270  -22.1111   13.0389 H         1 UNK         0.0792 
    131 H131      -49.2286  -24.5800   11.6134 H         1 UNK         0.3086 
    132 H132      -47.9648  -27.7897   12.5375 H         1 UNK         0.0583 
    133 H133      -50.1672  -28.4908   11.5169 H         1 UNK         0.1020 
    134 H134      -49.8907  -27.3808   10.2006 H         1 UNK         0.1020 
    135 H135      -48.2742  -31.5885   10.6035 H         1 UNK         0.0694 
    136 H136      -49.1526  -30.7200   11.8380 H         1 UNK         0.0694 
    137 H137      -47.5473  -26.4374   10.1203 H         1 UNK         0.2989 
    138 H138      -44.6259  -24.6826   11.2965 H         1 UNK         0.1055 
    139 H139      -44.1283  -27.0948   10.9062 H         1 UNK         0.0806 
    140 H140      -43.7439  -26.1362    9.4856 H         1 UNK         0.0806 
    141 H141      -45.2079  -27.1165    9.5173 H         1 UNK         0.0806 
    142 H142      -46.5454  -24.9894    9.0088 H         1 UNK         0.3061 
    143 H143      -47.0041  -21.5180    8.8405 H         1 UNK         0.0734 
    144 H144      -44.9572  -21.6744    7.4043 H         1 UNK         0.0832 
    145 H145      -46.4184  -21.6803    6.4327 H         1 UNK         0.0832 
    146 H146      -45.5400  -23.1845    6.7192 H         1 UNK         0.0832 
    147 H147      -48.0006  -23.5171    7.1286 H         1 UNK         0.3156 
    148 H148      -50.3762  -25.0635    9.2368 H         1 UNK         0.0589 
    149 H149      -50.8807  -22.9710    7.0546 H         1 UNK         0.0808 
    150 H150      -52.0301  -24.1832    7.6165 H         1 UNK         0.0808 
    151 H151      -51.5086  -22.8982    8.6957 H         1 UNK         0.0808 
    152 H152      -50.2313  -25.4306    6.5299 H         1 UNK         0.3098 
    153 H153      -48.3128  -26.6660    5.3139 H         1 UNK         0.0720 
    154 H154      -47.3270  -28.9332    5.4755 H         1 UNK         0.0791 
    155 H155      -47.5885  -28.9530    7.2181 H         1 UNK         0.0791 
    156 H156      -46.4524  -27.8151    6.5083 H         1 UNK         0.0791 
    157 H157      -49.8578  -28.9284    6.2903 H         1 UNK         0.3028 
@<TRIPOS>BOND
     1    1    2 1    
     2    1   82 1    
     3    1   83 1    
     4    1   84 1    
     5    2    3 2    
     6    2    4 am   BACKBONE|DICT|INTERRES
     7    4    5 1    
     8    4   85 1    
     9    5    6 1    
    10    5   80 1    
    11    5   86 1    
    12    6    7 1    
    13    6   87 1    
    14    6   88 1    
    15    7    8 1    
    16    8    9 1    
    17    8   89 1    
    18    8   90 1    
    19    9   10 ar   
    20    9   14 ar   
    21   10   11 ar   
    22   10   91 1    
    23   11   12 ar   
    24   11   58 1    
    25   12   13 ar   
    26   12   92 1    
    27   13   14 ar   
    28   13   15 1    
    29   14   93 1    
    30   15   16 1    
    31   15   94 1    
    32   15   95 1    
    33   16   17 1    
    34   17   18 1    
    35   17   96 1    
    36   17   97 1    
    37   18   19 1    
    38   18   22 1    
    39   18   98 1    
    40   19   20 am   BACKBONE|DICT|INTERRES
    41   19   21 2    
    42   20   99 1    
    43   20  100 1    
    44   22   23 am   BACKBONE|DICT|INTERRES
    45   22  101 1    
    46   23   24 2    
    47   23   25 1    
    48   25   26 1    
    49   25   27 1    
    50   25  102 1    
    51   26  103 1    
    52   26  104 1    
    53   26  105 1    
    54   27   28 am   BACKBONE|DICT|INTERRES
    55   27  106 1    
    56   28   29 2    
    57   28   30 1    
    58   30   31 1    
    59   30   32 1    
    60   30  107 1    
    61   31  108 1    
    62   31  109 1    
    63   31  110 1    
    64   32   33 am   BACKBONE|DICT|INTERRES
    65   32  111 1    
    66   33   34 2    
    67   33   35 1    
    68   35   36 1    
    69   35   37 1    
    70   35  112 1    
    71   36  113 1    
    72   36  114 1    
    73   36  115 1    
    74   37   38 am   BACKBONE|DICT|INTERRES
    75   37  116 1    
    76   38   39 2    
    77   38   40 1    
    78   40   41 1    
    79   40   42 1    
    80   40  117 1    
    81   41  118 1    
    82   41  119 1    
    83   41  120 1    
    84   42   43 am   BACKBONE|DICT|INTERRES
    85   42  121 1    
    86   43   44 2    
    87   43   45 1    
    88   45   46 1    
    89   45   47 1    
    90   45  122 1    
    91   46  123 1    
    92   46  124 1    
    93   46  125 1    
    94   47   48 am   BACKBONE|DICT|INTERRES
    95   47  126 1    
    96   48   49 2    
    97   48   50 1    
    98   50   51 1    
    99   50   52 1    
   100   50  127 1    
   101   51  128 1    
   102   51  129 1    
   103   51  130 1    
   104   52   53 am   BACKBONE|DICT|INTERRES
   105   52  131 1    
   106   53   54 2    
   107   53   55 1    
   108   55   56 1    
   109   55   59 1    
   110   55  132 1    
   111   56   57 1    
   112   56  133 1    
   113   56  134 1    
   114   57   58 1    
   115   58  135 1    
   116   58  136 1    
   117   59   60 am   BACKBONE|DICT|INTERRES
   118   59  137 1    
   119   60   61 2    
   120   60   62 1    
   121   62   63 1    
   122   62   64 1    
   123   62  138 1    
   124   63  139 1    
   125   63  140 1    
   126   63  141 1    
   127   64   65 am   BACKBONE|DICT|INTERRES
   128   64  142 1    
   129   65   66 2    
   130   65   67 1    
   131   67   68 1    
   132   67   69 1    
   133   67  143 1    
   134   68  144 1    
   135   68  145 1    
   136   68  146 1    
   137   69   70 am   BACKBONE|DICT|INTERRES
   138   69  147 1    
   139   70   71 2    
   140   70   72 1    
   141   72   73 1    
   142   72   74 1    
   143   72  148 1    
   144   73  149 1    
   145   73  150 1    
   146   73  151 1    
   147   74   75 am   BACKBONE|DICT|INTERRES
   148   74  152 1    
   149   75   76 2    
   150   75   77 1    
   151   77   78 1    
   152   77   79 1    
   153   77  153 1    
   154   78  154 1    
   155   78  155 1    
   156   78  156 1    
   157   79   80 am   BACKBONE|DICT|INTERRES
   158   79  157 1    
   159   80   81 2    
@<TRIPOS>SUBSTRUCTURE
     1 UNK         1 GROUP             0       ****    0 ROOT    
