@<TRIPOS>MOLECULE
3R207
157   159    1
SMALL
USER_CHARGES


@<TRIPOS>ATOM
      1 CA        -45.2271  -27.7534    7.3546 C.3       0 UNK        -0.1975 
      2 C         -44.7950  -27.4989    5.9130 C.2       0 UNK         0.4852 
      3 O         -43.5989  -27.5304    5.6290 O.2       0 UNK        -0.5216 
      4 N         -45.7119  -27.2274    4.9737 N.am      1 UNK        -0.4461 
      5 CA        -47.1682  -27.2534    5.1265 C.3       1 UNK         0.0864 
      6 C6        -47.8412  -26.3530    4.0553 C.3       14 UNK        -0.0898 
      7 S7        -49.6619  -26.2828    4.1620 S.3       14 UNK        -0.2598 
      8 C8        -49.8855  -25.0832    5.5127 C.3       14 UNK         0.0286 
      9 C9        -51.2451  -25.2201    6.1840 C.ar      14 UNK        -0.0844 
     10 C10       -52.0614  -24.0997    6.3708 C.ar      14 UNK        -0.0881 
     11 C11       -53.2779  -24.2138    7.0520 C.ar      14 UNK        -0.0643 
     12 C12       -53.6796  -25.4607    7.5400 C.ar      14 UNK        -0.0930 
     13 C13       -52.8633  -26.5818    7.3769 C.ar      14 UNK        -0.0827 
     14 C14       -51.6578  -26.4593    6.6838 C.ar      14 UNK        -0.1249 
     15 C15       -53.2538  -27.9108    7.9996 C.3       14 UNK         0.0141 
     16 S16       -52.2815  -28.1943    9.5093 S.3       14 UNK        -0.2313 
     17 C17       -53.2643  -29.4793   10.3385 C.3       14 UNK        -0.0915 
     18 CA        -54.3534  -28.8848   11.2690 C.3       13 UNK         0.0968 
     19 C         -55.2620  -30.0137   11.8393 C.2       13 UNK         0.5732 
     20 N         -55.2641  -30.2878   13.1391 N.am      13 UNK        -0.7310 
     21 O         -55.9903  -30.6506   11.0817 O.2       13 UNK        -0.5035 
     22 N         -53.7862  -27.9891   12.2911 N.am      13 UNK        -0.4233 
     23 C         -54.4975  -27.0827   12.9740 C.2       13 UNK         0.4989 
     24 O         -55.6655  -26.7998   12.7009 O.2       13 UNK        -0.4996 
     25 CA        -53.8084  -26.3726   14.1608 C.3       12 UNK         0.0216 
     26 CB        -54.8158  -26.0067   15.2706 C.3       12 UNK        -0.1964 
     27 N         -52.6647  -27.0878   14.7434 N.am      12 UNK        -0.4276 
     28 C         -52.6316  -28.3373   15.2334 C.2       12 UNK         0.5020 
     29 O         -53.5826  -29.1189   15.1986 O.2       12 UNK        -0.5489 
     30 CA        -51.3086  -28.7893   15.8644 C.3       11 UNK         0.0294 
     31 CB        -50.2259  -28.9642   14.7867 C.3       11 UNK        -0.2019 
     32 N         -50.8579  -27.8099   16.8530 N.am      11 UNK        -0.4493 
     33 C         -50.8959  -27.9803   18.1817 C.2       11 UNK         0.4932 
     34 O         -51.2574  -29.0214   18.7312 O.2       11 UNK        -0.5029 
     35 CA        -50.4516  -26.7919   19.0588 C.3       10 UNK         0.0280 
     36 CB        -48.9718  -26.9390   19.4483 C.3       10 UNK        -0.1976 
     37 N         -50.6531  -25.4892   18.4192 N.am      10 UNK        -0.4242 
     38 C         -51.8488  -24.9483   18.1460 C.2       10 UNK         0.5072 
     39 O         -52.9171  -25.4353   18.5170 O.2       10 UNK        -0.5224 
     40 CA        -51.8707  -23.6579   17.3019 C.3       9 UNK         0.0343 
     41 CB        -52.1165  -22.4356   18.2012 C.3       9 UNK        -0.2003 
     42 N         -50.6842  -23.4064   16.4719 N.am      9 UNK        -0.4272 
     43 C         -50.1654  -24.2316   15.5525 C.2       9 UNK         0.4988 
     44 O         -50.5584  -25.3830   15.3583 O.2       9 UNK        -0.5108 
     45 CA        -49.0428  -23.6520   14.6845 C.3       8 UNK         0.0248 
     46 CB        -48.1326  -24.7470   14.0977 C.3       8 UNK        -0.2001 
     47 N         -49.6553  -22.8906   13.5983 N.am      8 UNK        -0.4140 
     48 C         -50.0042  -21.5980   13.6811 C.2       8 UNK         0.5028 
     49 O         -49.7702  -20.8963   14.6666 O.2       8 UNK        -0.5428 
     50 CA        -50.7380  -20.9696   12.4806 C.3       7 UNK         0.0264 
     51 CB        -49.7532  -20.1725   11.6098 C.3       7 UNK        -0.1988 
     52 N         -51.4378  -21.9409   11.6378 N.am      7 UNK        -0.4454 
     53 C         -52.5343  -22.6266   11.9947 C.2       7 UNK         0.5027 
     54 O         -53.1184  -22.4717   13.0676 O.2       7 UNK        -0.5083 
     55 CA        -53.0481  -23.6923   10.9986 C.3       6 UNK         0.0844 
     56 C56       -54.1983  -23.1365   10.1189 C.3       14 UNK        -0.0967 
     57 S57       -53.6431  -22.0491    8.7535 S.3       14 UNK        -0.2604 
     58 C58       -54.1501  -22.9869    7.2743 C.3       14 UNK         0.0134 
     59 N         -51.9811  -24.3160   10.2033 N.am      6 UNK        -0.4116 
     60 C         -50.9132  -24.9524   10.7014 C.2       5 UNK         0.5034 
     61 O         -50.7146  -25.1232   11.9060 O.2       5 UNK        -0.5045 
     62 CA        -49.8536  -25.3989    9.6919 C.3       5 UNK         0.0224 
     63 CB        -49.0585  -24.1950    9.1538 C.3       5 UNK        -0.1978 
     64 N         -48.9424  -26.3371   10.3358 N.am      5 UNK        -0.4737 
     65 C         -48.3202  -27.3463    9.7219 C.2       4 UNK         0.5027 
     66 O         -48.4147  -27.5716    8.5112 O.2       4 UNK        -0.5211 
     67 CA        -47.4143  -28.2522   10.5795 C.3       4 UNK         0.0297 
     68 CB        -47.3923  -27.9210   12.0897 C.3       4 UNK        -0.1993 
     69 N         -47.7353  -29.6578   10.3266 N.am      4 UNK        -0.4486 
     70 C         -48.8633  -30.3075   10.6454 C.2       3 UNK         0.4961 
     71 O         -49.7271  -29.8784   11.4102 O.2       3 UNK        -0.5105 
     72 CA        -49.0812  -31.6407    9.9044 C.3       3 UNK         0.0299 
     73 CB        -50.2193  -32.4821   10.5104 C.3       3 UNK        -0.1972 
     74 N         -49.3815  -31.3684    8.4966 N.am      3 UNK        -0.4305 
     75 C         -48.4786  -30.9968    7.5786 C.2       2 UNK         0.5006 
     76 O         -47.2620  -31.0191    7.7821 O.2       2 UNK        -0.5106 
     77 CA        -49.0001  -30.4548    6.2400 C.3       2 UNK         0.0296 
     78 CB        -50.5378  -30.3769    6.1421 C.3       2 UNK        -0.2002 
     79 N         -48.4494  -29.1118    6.0746 N.am      2 UNK        -0.4032 
     80 C         -47.6613  -28.7142    5.0700 C.2       1 UNK         0.5000 
     81 O         -47.3232  -29.4314    4.1241 O.2       1 UNK        -0.5238 
     82 H82       -45.7577  -26.8918    7.7584 H         1 UNK         0.0889 
     83 H83       -44.3583  -27.9311    7.9879 H         1 UNK         0.0889 
     84 H84       -45.8692  -28.6301    7.4249 H         1 UNK         0.0889 
     85 H85       -45.3899  -27.0915    4.0261 H         1 UNK         0.3028 
     86 H86       -47.4189  -26.8380    6.1031 H         1 UNK         0.0864 
     87 H87       -47.5823  -26.7008    3.0534 H         1 UNK         0.0720 
     88 H88       -47.4535  -25.3353    4.1264 H         1 UNK         0.0720 
     89 H89       -49.1194  -25.2349    6.2719 H         1 UNK         0.0814 
     90 H90       -49.7391  -24.0768    5.1189 H         1 UNK         0.0814 
     91 H91       -51.7446  -23.1327    6.0036 H         1 UNK         0.1469 
     92 H92       -54.6160  -25.5563    8.0714 H         1 UNK         0.1381 
     93 H93       -51.0156  -27.3223    6.5737 H         1 UNK         0.1206 
     94 H94       -53.0897  -28.7235    7.2920 H         1 UNK         0.0813 
     95 H95       -54.3176  -27.9189    8.2404 H         1 UNK         0.0813 
     96 H96       -53.7035  -30.1274    9.5777 H         1 UNK         0.0638 
     97 H97       -52.5799  -30.1027   10.9156 H         1 UNK         0.0638 
     98 H98       -55.0089  -28.2774   10.6422 H         1 UNK         0.0568 
     99 H99       -54.6646  -29.7844   13.7885 H         1 UNK         0.3450 
    100 H100      -55.8646  -31.0193   13.4832 H         1 UNK         0.3450 
    101 H101      -52.8289  -28.1631   12.5572 H         1 UNK         0.2987 
    102 H102      -53.4007  -25.4416   13.7659 H         1 UNK         0.0766 
    103 H103      -54.3278  -25.4961   16.0995 H         1 UNK         0.0798 
    104 H104      -55.5925  -25.3391   14.8959 H         1 UNK         0.0798 
    105 H105      -55.3101  -26.8927   15.6708 H         1 UNK         0.0798 
    106 H106      -51.8168  -26.5261   14.8261 H         1 UNK         0.3198 
    107 H107      -51.4770  -29.7603   16.3351 H         1 UNK         0.0843 
    108 H108      -50.5430  -29.6803   14.0272 H         1 UNK         0.0831 
    109 H109      -49.2969  -29.3389   15.2160 H         1 UNK         0.0831 
    110 H110      -50.0026  -28.0260   14.2779 H         1 UNK         0.0831 
    111 H111      -50.5922  -26.8991   16.4882 H         1 UNK         0.3133 
    112 H112      -51.0491  -26.8146   19.9727 H         1 UNK         0.0566 
    113 H113      -48.3185  -26.9095   18.5751 H         1 UNK         0.0814 
    114 H114      -48.7950  -27.8890   19.9547 H         1 UNK         0.0814 
    115 H115      -48.6593  -26.1480   20.1304 H         1 UNK         0.0814 
    116 H116      -49.8293  -25.0087   18.0888 H         1 UNK         0.3091 
    117 H117      -52.7152  -23.7465   16.6161 H         1 UNK         0.0702 
    118 H118      -53.0133  -22.5690   18.8082 H         1 UNK         0.0785 
    119 H119      -52.2608  -21.5304   17.6108 H         1 UNK         0.0785 
    120 H120      -51.2831  -22.2638   18.8836 H         1 UNK         0.0785 
    121 H121      -50.3033  -22.4702   16.5182 H         1 UNK         0.2998 
    122 H122      -48.4221  -22.9980   15.3008 H         1 UNK         0.0697 
    123 H123      -48.6910  -25.4668   13.5003 H         1 UNK         0.0825 
    124 H124      -47.6372  -25.3056   14.8926 H         1 UNK         0.0825 
    125 H125      -47.3539  -24.3197   13.4660 H         1 UNK         0.0825 
    126 H126      -49.9720  -23.4378   12.8056 H         1 UNK         0.3029 
    127 H127      -51.4802  -20.2760   12.8821 H         1 UNK         0.0897 
    128 H128      -50.2679  -19.6525   10.8016 H         1 UNK         0.0792 
    129 H129      -49.2349  -19.4155   12.2004 H         1 UNK         0.0792 
    130 H130      -48.9924  -20.8163   11.1663 H         1 UNK         0.0792 
    131 H131      -51.0492  -22.1119   10.7221 H         1 UNK         0.3086 
    132 H132      -53.4736  -24.4911   11.6073 H         1 UNK         0.0583 
    133 H133      -54.7736  -23.9675    9.7131 H         1 UNK         0.1020 
    134 H134      -54.9158  -22.5826   10.7282 H         1 UNK         0.1020 
    135 H135      -55.2006  -23.2696    7.3598 H         1 UNK         0.0694 
    136 H136      -54.0845  -22.3310    6.4050 H         1 UNK         0.0694 
    137 H137      -52.0745  -24.2211    9.2009 H         1 UNK         0.2989 
    138 H138      -50.3628  -25.9053    8.8748 H         1 UNK         0.1055 
    139 H139      -48.2751  -24.5136    8.4664 H         1 UNK         0.0806 
    140 H140      -48.5827  -23.6343    9.9595 H         1 UNK         0.0806 
    141 H141      -49.7038  -23.5060    8.6076 H         1 UNK         0.0806 
    142 H142      -48.9030  -26.2600   11.3437 H         1 UNK         0.3061 
    143 H143      -46.4018  -28.1048   10.2020 H         1 UNK         0.0734 
    144 H144      -46.9795  -26.9272   12.2655 H         1 UNK         0.0832 
    145 H145      -48.3860  -27.9513   12.5353 H         1 UNK         0.0832 
    146 H146      -46.7659  -28.6258   12.6363 H         1 UNK         0.0832 
    147 H147      -47.1675  -30.0997    9.6101 H         1 UNK         0.3156 
    148 H148      -48.1599  -32.2230    9.9744 H         1 UNK         0.0589 
    149 H149      -51.1832  -31.9792   10.4331 H         1 UNK         0.0808 
    150 H150      -50.3054  -33.4478   10.0123 H         1 UNK         0.0808 
    151 H151      -50.0376  -32.6779   11.5679 H         1 UNK         0.0808 
    152 H152      -50.3591  -31.2857    8.2588 H         1 UNK         0.3098 
    153 H153      -48.6355  -31.1261    5.4603 H         1 UNK         0.0720 
    154 H154      -50.8448  -29.9506    5.1867 H         1 UNK         0.0791 
    155 H155      -50.9925  -31.3661    6.2089 H         1 UNK         0.0791 
    156 H156      -50.9633  -29.7531    6.9282 H         1 UNK         0.0791 
    157 H157      -48.5835  -28.4853    6.8676 H         1 UNK         0.3028 
@<TRIPOS>BOND
     1    1    2 1    
     2    1   82 1    
     3    1   83 1    
     4    1   84 1    
     5    2    3 2    
     6    2    4 am   BACKBONE|DICT|INTERRES
     7    4    5 1    
     8    4   85 1    
     9    5    6 1    
    10    5   80 1    
    11    5   86 1    
    12    6    7 1    
    13    6   87 1    
    14    6   88 1    
    15    7    8 1    
    16    8    9 1    
    17    8   89 1    
    18    8   90 1    
    19    9   10 ar   
    20    9   14 ar   
    21   10   11 ar   
    22   10   91 1    
    23   11   12 ar   
    24   11   58 1    
    25   12   13 ar   
    26   12   92 1    
    27   13   14 ar   
    28   13   15 1    
    29   14   93 1    
    30   15   16 1    
    31   15   94 1    
    32   15   95 1    
    33   16   17 1    
    34   17   18 1    
    35   17   96 1    
    36   17   97 1    
    37   18   19 1    
    38   18   22 1    
    39   18   98 1    
    40   19   20 am   BACKBONE|DICT|INTERRES
    41   19   21 2    
    42   20   99 1    
    43   20  100 1    
    44   22   23 am   BACKBONE|DICT|INTERRES
    45   22  101 1    
    46   23   24 2    
    47   23   25 1    
    48   25   26 1    
    49   25   27 1    
    50   25  102 1    
    51   26  103 1    
    52   26  104 1    
    53   26  105 1    
    54   27   28 am   BACKBONE|DICT|INTERRES
    55   27  106 1    
    56   28   29 2    
    57   28   30 1    
    58   30   31 1    
    59   30   32 1    
    60   30  107 1    
    61   31  108 1    
    62   31  109 1    
    63   31  110 1    
    64   32   33 am   BACKBONE|DICT|INTERRES
    65   32  111 1    
    66   33   34 2    
    67   33   35 1    
    68   35   36 1    
    69   35   37 1    
    70   35  112 1    
    71   36  113 1    
    72   36  114 1    
    73   36  115 1    
    74   37   38 am   BACKBONE|DICT|INTERRES
    75   37  116 1    
    76   38   39 2    
    77   38   40 1    
    78   40   41 1    
    79   40   42 1    
    80   40  117 1    
    81   41  118 1    
    82   41  119 1    
    83   41  120 1    
    84   42   43 am   BACKBONE|DICT|INTERRES
    85   42  121 1    
    86   43   44 2    
    87   43   45 1    
    88   45   46 1    
    89   45   47 1    
    90   45  122 1    
    91   46  123 1    
    92   46  124 1    
    93   46  125 1    
    94   47   48 am   BACKBONE|DICT|INTERRES
    95   47  126 1    
    96   48   49 2    
    97   48   50 1    
    98   50   51 1    
    99   50   52 1    
   100   50  127 1    
   101   51  128 1    
   102   51  129 1    
   103   51  130 1    
   104   52   53 am   BACKBONE|DICT|INTERRES
   105   52  131 1    
   106   53   54 2    
   107   53   55 1    
   108   55   56 1    
   109   55   59 1    
   110   55  132 1    
   111   56   57 1    
   112   56  133 1    
   113   56  134 1    
   114   57   58 1    
   115   58  135 1    
   116   58  136 1    
   117   59   60 am   BACKBONE|DICT|INTERRES
   118   59  137 1    
   119   60   61 2    
   120   60   62 1    
   121   62   63 1    
   122   62   64 1    
   123   62  138 1    
   124   63  139 1    
   125   63  140 1    
   126   63  141 1    
   127   64   65 am   BACKBONE|DICT|INTERRES
   128   64  142 1    
   129   65   66 2    
   130   65   67 1    
   131   67   68 1    
   132   67   69 1    
   133   67  143 1    
   134   68  144 1    
   135   68  145 1    
   136   68  146 1    
   137   69   70 am   BACKBONE|DICT|INTERRES
   138   69  147 1    
   139   70   71 2    
   140   70   72 1    
   141   72   73 1    
   142   72   74 1    
   143   72  148 1    
   144   73  149 1    
   145   73  150 1    
   146   73  151 1    
   147   74   75 am   BACKBONE|DICT|INTERRES
   148   74  152 1    
   149   75   76 2    
   150   75   77 1    
   151   77   78 1    
   152   77   79 1    
   153   77  153 1    
   154   78  154 1    
   155   78  155 1    
   156   78  156 1    
   157   79   80 am   BACKBONE|DICT|INTERRES
   158   79  157 1    
   159   80   81 2    
@<TRIPOS>SUBSTRUCTURE
     1 UNK         1 GROUP             0       ****    0 ROOT    
