@<TRIPOS>MOLECULE
3R207
157   159    1
SMALL
USER_CHARGES


@<TRIPOS>ATOM
      1 CA        -47.7827  -32.8231    7.3734 C.3       0 UNK        -0.1975 
      2 C         -47.8034  -31.3354    7.0557 C.2       0 UNK         0.4852 
      3 O         -47.3956  -30.9372    5.9641 O.2       0 UNK        -0.5216 
      4 N         -48.2721  -30.5110    8.0029 N.am      1 UNK        -0.4461 
      5 CA        -48.3956  -29.0511    7.8658 C.3       1 UNK         0.0864 
      6 C6        -49.3705  -28.4469    8.9089 C.3       14 UNK        -0.0898 
      7 S7        -50.9832  -29.3025    8.9618 S.3       14 UNK        -0.2598 
      8 C8        -51.9686  -28.3579    7.7455 C.3       14 UNK         0.0286 
      9 C9        -52.8364  -27.2295    8.3102 C.ar      14 UNK        -0.0844 
     10 C10       -53.3399  -26.2719    7.4219 C.ar      14 UNK        -0.0881 
     11 C11       -54.1777  -25.2452    7.8689 C.ar      14 UNK        -0.0643 
     12 C12       -54.5249  -25.1837    9.2208 C.ar      14 UNK        -0.0930 
     13 C13       -54.0336  -26.1303   10.1234 C.ar      14 UNK        -0.0827 
     14 C14       -53.1906  -27.1477    9.6646 C.ar      14 UNK        -0.1249 
     15 C15       -54.4164  -26.0498   11.5950 C.3       14 UNK         0.0141 
     16 S16       -56.2004  -26.3247   11.8475 S.3       14 UNK        -0.2313 
     17 C17       -56.3793  -28.0707   11.3416 C.3       14 UNK        -0.0915 
     18 CA        -57.0289  -28.9582   12.4347 C.3       13 UNK         0.0968 
     19 C         -57.2191  -30.4141   11.9137 C.2       13 UNK         0.5732 
     20 N         -56.5152  -31.4142   12.4342 N.am      13 UNK        -0.7310 
     21 O         -58.0303  -30.6401   11.0188 O.2       13 UNK        -0.5035 
     22 N         -56.3049  -28.8601   13.7084 N.am      13 UNK        -0.4233 
     23 C         -56.7644  -29.2727   14.8955 C.2       13 UNK         0.4989 
     24 O         -57.9145  -29.6748   15.0811 O.2       13 UNK        -0.4996 
     25 CA        -55.7620  -29.2354   16.0680 C.3       12 UNK         0.0216 
     26 CB        -56.0703  -30.3001   17.1419 C.3       12 UNK        -0.1964 
     27 N         -54.3540  -29.3216   15.6499 N.am      12 UNK        -0.4276 
     28 C         -53.7691  -30.3075   14.9456 C.2       12 UNK         0.5020 
     29 O         -54.3773  -31.2899   14.5172 O.2       12 UNK        -0.5489 
     30 CA        -52.2701  -30.1655   14.6146 C.3       11 UNK         0.0294 
     31 CB        -52.0788  -29.9277   13.1059 C.3       11 UNK        -0.2019 
     32 N         -51.6115  -29.0901   15.3628 N.am      11 UNK        -0.4493 
     33 C         -51.2959  -29.1616   16.6666 C.2       11 UNK         0.4932 
     34 O         -51.4316  -30.1833   17.3402 O.2       11 UNK        -0.5029 
     35 CA        -50.7695  -27.8864   17.3571 C.3       10 UNK         0.0280 
     36 CB        -49.2444  -27.9669   17.5335 C.3       10 UNK        -0.1976 
     37 N         -51.1030  -26.6373   16.6669 N.am      10 UNK        -0.4242 
     38 C         -52.3368  -26.1850   16.3965 C.2       10 UNK         0.5072 
     39 O         -53.3689  -26.7496   16.7611 O.2       10 UNK        -0.5224 
     40 CA        -52.4326  -24.9342   15.5010 C.3       9 UNK         0.0343 
     41 CB        -52.5611  -23.6645   16.3561 C.3       9 UNK        -0.2003 
     42 N         -51.3048  -24.7825   14.5717 N.am      9 UNK        -0.4272 
     43 C         -50.9297  -25.6797   13.6505 C.2       9 UNK         0.4988 
     44 O         -51.5177  -26.7497   13.4862 O.2       9 UNK        -0.5108 
     45 CA        -49.6706  -25.3570   12.8198 C.3       8 UNK         0.0248 
     46 CB        -49.3728  -26.4691   11.7988 C.3       8 UNK        -0.2001 
     47 N         -49.7408  -24.0763   12.1103 N.am      8 UNK        -0.4140 
     48 C         -49.6971  -22.8523   12.6619 C.2       8 UNK         0.5028 
     49 O         -49.6023  -22.6609   13.8762 O.2       8 UNK        -0.5428 
     50 CA        -49.7866  -21.6283   11.7257 C.3       7 UNK         0.0264 
     51 CB        -48.4224  -20.9316   11.6191 C.3       7 UNK        -0.1988 
     52 N         -50.2592  -21.9660   10.3814 N.am      7 UNK        -0.4454 
     53 C         -51.5225  -22.3159   10.0959 C.2       7 UNK         0.5027 
     54 O         -52.4477  -22.2018   10.9012 O.2       7 UNK        -0.5083 
     55 CA        -51.8095  -22.9507    8.7179 C.3       6 UNK         0.0844 
     56 C56       -52.9419  -22.2149    7.9569 C.3       14 UNK        -0.0967 
     57 S57       -53.3774  -23.0356    6.3818 S.3       14 UNK        -0.2604 
     58 C58       -54.6910  -24.1908    6.8975 C.3       14 UNK         0.0134 
     59 N         -50.6239  -23.1778    7.8858 N.am      6 UNK        -0.4116 
     60 C         -49.6806  -24.0930    8.1380 C.2       5 UNK         0.5034 
     61 O         -49.6546  -24.7695    9.1651 O.2       5 UNK        -0.5045 
     62 CA        -48.5661  -24.2776    7.0942 C.3       5 UNK         0.0224 
     63 CB        -48.7294  -23.4160    5.8199 C.3       5 UNK        -0.1978 
     64 N         -47.2389  -24.0786    7.6869 N.am      5 UNK        -0.4737 
     65 C         -46.7933  -22.9710    8.2996 C.2       4 UNK         0.5027 
     66 O         -47.4739  -21.9549    8.4589 O.2       4 UNK        -0.5211 
     67 CA        -45.3342  -23.0119    8.7946 C.3       4 UNK         0.0297 
     68 CB        -44.9164  -21.7485    9.5771 C.3       4 UNK        -0.1993 
     69 N         -45.0127  -24.2236    9.5566 N.am      4 UNK        -0.4486 
     70 C         -45.5758  -24.6584   10.6927 C.2       3 UNK         0.4961 
     71 O         -46.5010  -24.0879   11.2695 O.2       3 UNK        -0.5105 
     72 CA        -44.9817  -25.9558   11.2794 C.3       3 UNK         0.0299 
     73 CB        -45.5911  -26.3406   12.6410 C.3       3 UNK        -0.1972 
     74 N         -45.1011  -27.0898   10.3572 N.am      3 UNK        -0.4305 
     75 C         -44.3222  -27.2990    9.2863 C.2       2 UNK         0.5006 
     76 O         -43.4112  -26.5398    8.9513 O.2       2 UNK        -0.5106 
     77 CA        -44.6004  -28.5497    8.4363 C.3       2 UNK         0.0296 
     78 CB        -43.6959  -29.7107    8.8805 C.3       2 UNK        -0.2002 
     79 N         -45.9965  -28.9955    8.4469 N.am      2 UNK        -0.4032 
     80 C         -47.0273  -28.3293    7.9026 C.2       1 UNK         0.5000 
     81 O         -46.9241  -27.1994    7.4229 O.2       1 UNK        -0.5238 
     82 H82       -46.7631  -33.2040    7.3216 H         1 UNK         0.0889 
     83 H83       -48.3878  -33.3689    6.6500 H         1 UNK         0.0889 
     84 H84       -48.1736  -33.0333    8.3688 H         1 UNK         0.0889 
     85 H85       -48.6293  -30.8966    8.8661 H         1 UNK         0.3028 
     86 H86       -48.8153  -28.8541    6.8769 H         1 UNK         0.0864 
     87 H87       -48.9362  -28.5124    9.9072 H         1 UNK         0.0720 
     88 H88       -49.5377  -27.3861    8.7154 H         1 UNK         0.0720 
     89 H89       -51.3014  -27.9639    6.9774 H         1 UNK         0.0814 
     90 H90       -52.6304  -29.0614    7.2389 H         1 UNK         0.0814 
     91 H91       -53.0782  -26.3203    6.3736 H         1 UNK         0.1469 
     92 H92       -55.1713  -24.3934    9.5773 H         1 UNK         0.1381 
     93 H93       -52.8253  -27.8801   10.3701 H         1 UNK         0.1206 
     94 H94       -53.8548  -26.7735   12.1868 H         1 UNK         0.0813 
     95 H95       -54.1471  -25.0652   11.9804 H         1 UNK         0.0813 
     96 H96       -56.9798  -28.0854   10.4302 H         1 UNK         0.0638 
     97 H97       -55.4037  -28.4747   11.0660 H         1 UNK         0.0638 
     98 H98       -58.0343  -28.5720   12.6121 H         1 UNK         0.0568 
     99 H99       -55.8387  -31.2568   13.1749 H         1 UNK         0.3450 
    100 H100      -56.6594  -32.3470   12.0831 H         1 UNK         0.3450 
    101 H101      -55.3522  -28.5374   13.6508 H         1 UNK         0.2987 
    102 H102      -55.8792  -28.2546   16.5312 H         1 UNK         0.0766 
    103 H103      -55.3608  -30.2464   17.9677 H         1 UNK         0.0798 
    104 H104      -57.0662  -30.1577   17.5633 H         1 UNK         0.0798 
    105 H105      -56.0318  -31.3099   16.7317 H         1 UNK         0.0798 
    106 H106      -53.7794  -28.5368   15.9452 H         1 UNK         0.3198 
    107 H107      -51.7883  -31.1108   14.8734 H         1 UNK         0.0843 
    108 H108      -52.6078  -29.0375   12.7646 H         1 UNK         0.0831 
    109 H109      -52.4608  -30.7696   12.5268 H         1 UNK         0.0831 
    110 H110      -51.0262  -29.8096   12.8481 H         1 UNK         0.0831 
    111 H111      -51.4751  -28.2165   14.8615 H         1 UNK         0.3133 
    112 H112      -51.2280  -27.8430   18.3471 H         1 UNK         0.0566 
    113 H113      -48.7272  -27.9874   16.5733 H         1 UNK         0.0814 
    114 H114      -48.9609  -28.8708   18.0749 H         1 UNK         0.0814 
    115 H115      -48.8638  -27.1194   18.1040 H         1 UNK         0.0814 
    116 H116      -50.3254  -26.0969   16.3174 H         1 UNK         0.3091 
    117 H117      -53.3377  -25.0365   14.8988 H         1 UNK         0.0702 
    118 H118      -52.7233  -22.7834   15.7347 H         1 UNK         0.0785 
    119 H119      -51.6680  -23.4909   16.9578 H         1 UNK         0.0785 
    120 H120      -53.4079  -23.7379   17.0402 H         1 UNK         0.0785 
    121 H121      -50.7679  -23.9185   14.6186 H         1 UNK         0.2998 
    122 H122      -48.8288  -25.3060   13.5130 H         1 UNK         0.0697 
    123 H123      -50.2151  -26.6201   11.1215 H         1 UNK         0.0825 
    124 H124      -49.1798  -27.4203   12.2961 H         1 UNK         0.0825 
    125 H125      -48.5006  -26.2317   11.1899 H         1 UNK         0.0825 
    126 H126      -49.7895  -24.1457   11.0985 H         1 UNK         0.3029 
    127 H127      -50.4936  -20.9266   12.1737 H         1 UNK         0.0897 
    128 H128      -48.4718  -20.0470   10.9840 H         1 UNK         0.0792 
    129 H129      -48.0681  -20.6112   12.5997 H         1 UNK         0.0792 
    130 H130      -47.6704  -21.6022   11.2046 H         1 UNK         0.0792 
    131 H131      -49.5476  -22.0860    9.6701 H         1 UNK         0.3086 
    132 H132      -52.1749  -23.9436    8.9705 H         1 UNK         0.0583 
    133 H133      -53.8395  -22.1409    8.5741 H         1 UNK         0.1020 
    134 H134      -52.6438  -21.1884    7.7361 H         1 UNK         0.1020 
    135 H135      -55.5168  -23.6268    7.3340 H         1 UNK         0.0694 
    136 H136      -55.0936  -24.6846    6.0120 H         1 UNK         0.0694 
    137 H137      -50.5704  -22.6466    7.0295 H         1 UNK         0.2989 
    138 H138      -48.6212  -25.3234    6.7898 H         1 UNK         0.1055 
    139 H139      -47.9411  -23.6363    5.1000 H         1 UNK         0.0806 
    140 H140      -48.6871  -22.3470    6.0323 H         1 UNK         0.0806 
    141 H141      -49.6773  -23.6220    5.3205 H         1 UNK         0.0806 
    142 H142      -46.6413  -24.8963    7.6709 H         1 UNK         0.3061 
    143 H143      -44.7196  -23.0490    7.8939 H         1 UNK         0.0734 
    144 H144      -45.1020  -20.8457    8.9940 H         1 UNK         0.0832 
    145 H145      -45.4633  -21.6492   10.5138 H         1 UNK         0.0832 
    146 H146      -43.8528  -21.7654    9.8141 H         1 UNK         0.0832 
    147 H147      -44.2827  -24.8147    9.1662 H         1 UNK         0.3156 
    148 H148      -43.9206  -25.7619   11.4510 H         1 UNK         0.0589 
    149 H149      -46.6449  -26.6001   12.5594 H         1 UNK         0.0808 
    150 H150      -45.0712  -27.1923   13.0798 H         1 UNK         0.0808 
    151 H151      -45.5133  -25.5164   13.3514 H         1 UNK         0.0808 
    152 H152      -45.8434  -27.7478   10.5416 H         1 UNK         0.3098 
    153 H153      -44.3453  -28.2986    7.4045 H         1 UNK         0.0720 
    154 H154      -43.8054  -30.5736    8.2231 H         1 UNK         0.0791 
    155 H155      -42.6449  -29.4189    8.8548 H         1 UNK         0.0791 
    156 H156      -43.9198  -30.0319    9.8986 H         1 UNK         0.0791 
    157 H157      -46.1756  -29.9197    8.8116 H         1 UNK         0.3028 
@<TRIPOS>BOND
     1    1    2 1    
     2    1   82 1    
     3    1   83 1    
     4    1   84 1    
     5    2    3 2    
     6    2    4 am   BACKBONE|DICT|INTERRES
     7    4    5 1    
     8    4   85 1    
     9    5    6 1    
    10    5   80 1    
    11    5   86 1    
    12    6    7 1    
    13    6   87 1    
    14    6   88 1    
    15    7    8 1    
    16    8    9 1    
    17    8   89 1    
    18    8   90 1    
    19    9   10 ar   
    20    9   14 ar   
    21   10   11 ar   
    22   10   91 1    
    23   11   12 ar   
    24   11   58 1    
    25   12   13 ar   
    26   12   92 1    
    27   13   14 ar   
    28   13   15 1    
    29   14   93 1    
    30   15   16 1    
    31   15   94 1    
    32   15   95 1    
    33   16   17 1    
    34   17   18 1    
    35   17   96 1    
    36   17   97 1    
    37   18   19 1    
    38   18   22 1    
    39   18   98 1    
    40   19   20 am   BACKBONE|DICT|INTERRES
    41   19   21 2    
    42   20   99 1    
    43   20  100 1    
    44   22   23 am   BACKBONE|DICT|INTERRES
    45   22  101 1    
    46   23   24 2    
    47   23   25 1    
    48   25   26 1    
    49   25   27 1    
    50   25  102 1    
    51   26  103 1    
    52   26  104 1    
    53   26  105 1    
    54   27   28 am   BACKBONE|DICT|INTERRES
    55   27  106 1    
    56   28   29 2    
    57   28   30 1    
    58   30   31 1    
    59   30   32 1    
    60   30  107 1    
    61   31  108 1    
    62   31  109 1    
    63   31  110 1    
    64   32   33 am   BACKBONE|DICT|INTERRES
    65   32  111 1    
    66   33   34 2    
    67   33   35 1    
    68   35   36 1    
    69   35   37 1    
    70   35  112 1    
    71   36  113 1    
    72   36  114 1    
    73   36  115 1    
    74   37   38 am   BACKBONE|DICT|INTERRES
    75   37  116 1    
    76   38   39 2    
    77   38   40 1    
    78   40   41 1    
    79   40   42 1    
    80   40  117 1    
    81   41  118 1    
    82   41  119 1    
    83   41  120 1    
    84   42   43 am   BACKBONE|DICT|INTERRES
    85   42  121 1    
    86   43   44 2    
    87   43   45 1    
    88   45   46 1    
    89   45   47 1    
    90   45  122 1    
    91   46  123 1    
    92   46  124 1    
    93   46  125 1    
    94   47   48 am   BACKBONE|DICT|INTERRES
    95   47  126 1    
    96   48   49 2    
    97   48   50 1    
    98   50   51 1    
    99   50   52 1    
   100   50  127 1    
   101   51  128 1    
   102   51  129 1    
   103   51  130 1    
   104   52   53 am   BACKBONE|DICT|INTERRES
   105   52  131 1    
   106   53   54 2    
   107   53   55 1    
   108   55   56 1    
   109   55   59 1    
   110   55  132 1    
   111   56   57 1    
   112   56  133 1    
   113   56  134 1    
   114   57   58 1    
   115   58  135 1    
   116   58  136 1    
   117   59   60 am   BACKBONE|DICT|INTERRES
   118   59  137 1    
   119   60   61 2    
   120   60   62 1    
   121   62   63 1    
   122   62   64 1    
   123   62  138 1    
   124   63  139 1    
   125   63  140 1    
   126   63  141 1    
   127   64   65 am   BACKBONE|DICT|INTERRES
   128   64  142 1    
   129   65   66 2    
   130   65   67 1    
   131   67   68 1    
   132   67   69 1    
   133   67  143 1    
   134   68  144 1    
   135   68  145 1    
   136   68  146 1    
   137   69   70 am   BACKBONE|DICT|INTERRES
   138   69  147 1    
   139   70   71 2    
   140   70   72 1    
   141   72   73 1    
   142   72   74 1    
   143   72  148 1    
   144   73  149 1    
   145   73  150 1    
   146   73  151 1    
   147   74   75 am   BACKBONE|DICT|INTERRES
   148   74  152 1    
   149   75   76 2    
   150   75   77 1    
   151   77   78 1    
   152   77   79 1    
   153   77  153 1    
   154   78  154 1    
   155   78  155 1    
   156   78  156 1    
   157   79   80 am   BACKBONE|DICT|INTERRES
   158   79  157 1    
   159   80   81 2    
@<TRIPOS>SUBSTRUCTURE
     1 UNK         1 GROUP             0       ****    0 ROOT    
