@<TRIPOS>MOLECULE
3R207
157   159    1
SMALL
USER_CHARGES


@<TRIPOS>ATOM
      1 CA        -54.6790  -26.5011    4.3836 C.3       0 UNK        -0.1975 
      2 C         -53.5172  -27.1093    5.1558 C.2       0 UNK         0.4852 
      3 O         -53.7420  -27.9058    6.0654 O.2       0 UNK        -0.5216 
      4 N         -52.2838  -26.7387    4.7979 N.am      1 UNK        -0.4461 
      5 CA        -51.0426  -27.1732    5.4349 C.3       1 UNK         0.0864 
      6 C6        -50.6246  -28.6128    5.0131 C.3       14 UNK        -0.0898 
      7 S7        -49.1581  -29.2550    5.9048 S.3       14 UNK        -0.2598 
      8 C8        -49.8415  -30.6430    6.8712 C.3       14 UNK         0.0286 
      9 C9        -50.3188  -30.2032    8.2484 C.ar      14 UNK        -0.0844 
     10 C10       -49.5950  -30.5495    9.3950 C.ar      14 UNK        -0.0881 
     11 C11       -50.0344  -30.1495   10.6626 C.ar      14 UNK        -0.0643 
     12 C12       -51.2097  -29.3989   10.7729 C.ar      14 UNK        -0.0930 
     13 C13       -51.9457  -29.0530    9.6367 C.ar      14 UNK        -0.0827 
     14 C14       -51.4977  -29.4663    8.3805 C.ar      14 UNK        -0.1249 
     15 C15       -53.2121  -28.2160    9.7488 C.3       14 UNK         0.0141 
     16 S16       -54.7176  -29.2309    9.6517 S.3       14 UNK        -0.2313 
     17 C17       -54.9054  -29.8376   11.3626 C.3       14 UNK        -0.0915 
     18 CA        -56.0013  -29.0479   12.1302 C.3       13 UNK         0.0968 
     19 C         -56.5396  -29.8414   13.3538 C.2       13 UNK         0.5732 
     20 N         -56.4435  -29.3473   14.5799 N.am      13 UNK        -0.7310 
     21 O         -57.0816  -30.9310   13.1830 O.2       13 UNK        -0.5035 
     22 N         -55.5603  -27.6733   12.4263 N.am      13 UNK        -0.4233 
     23 C         -56.3538  -26.5965   12.3838 C.2       13 UNK         0.4989 
     24 O         -57.5709  -26.6440   12.1934 O.2       13 UNK        -0.4996 
     25 CA        -55.6436  -25.2388   12.5429 C.3       12 UNK         0.0216 
     26 CB        -56.5729  -24.0305   12.2940 C.3       12 UNK        -0.1964 
     27 N         -54.9418  -25.1135   13.8243 N.am      12 UNK        -0.4276 
     28 C         -55.4755  -25.0887   15.0545 C.2       12 UNK         0.5020 
     29 O         -56.6818  -25.1752   15.2924 O.2       12 UNK        -0.5489 
     30 CA        -54.4648  -24.9528   16.2105 C.3       11 UNK         0.0294 
     31 CB        -55.1239  -24.9638   17.6065 C.3       11 UNK        -0.2019 
     32 N         -53.3988  -25.9563   16.1229 N.am      11 UNK        -0.4493 
     33 C         -53.5385  -27.2902   16.1460 C.2       11 UNK         0.4932 
     34 O         -54.6132  -27.8606   16.3240 O.2       11 UNK        -0.5029 
     35 CA        -52.2872  -28.1492   15.8878 C.3       10 UNK         0.0280 
     36 CB        -52.3898  -28.8180   14.5076 C.3       10 UNK        -0.1976 
     37 N         -51.0308  -27.4002   15.9594 N.am      10 UNK        -0.4242 
     38 C         -50.4557  -26.9708   17.0905 C.2       10 UNK         0.5072 
     39 O         -50.8898  -27.2128   18.2175 O.2       10 UNK        -0.5224 
     40 CA        -49.1997  -26.0951   16.9366 C.3       9 UNK         0.0343 
     41 CB        -47.9493  -26.9697   16.7522 C.3       9 UNK        -0.2003 
     42 N         -49.2971  -25.1276   15.8370 N.am      9 UNK        -0.4272 
     43 C         -50.1963  -24.1323   15.7766 C.2       9 UNK         0.4988 
     44 O         -51.0373  -23.9152   16.6486 O.2       9 UNK        -0.5108 
     45 CA        -50.1861  -23.2487   14.5187 C.3       8 UNK         0.0248 
     46 CB        -49.0085  -22.2615   14.5522 C.3       8 UNK        -0.2001 
     47 N         -50.1496  -24.0303   13.2822 N.am      8 UNK        -0.4140 
     48 C         -51.1179  -24.8653   12.8797 C.2       8 UNK         0.5028 
     49 O         -52.1908  -25.0109   13.4669 O.2       8 UNK        -0.5428 
     50 CA        -50.8265  -25.7295   11.6430 C.3       7 UNK         0.0264 
     51 CB        -51.1175  -24.9679   10.3419 C.3       7 UNK        -0.1988 
     52 N         -49.4639  -26.2633   11.6181 N.am      7 UNK        -0.4454 
     53 C         -48.9533  -27.0774   12.5546 C.2       7 UNK         0.5027 
     54 O         -49.5800  -27.4682   13.5389 O.2       7 UNK        -0.5083 
     55 CA        -47.4784  -27.4788   12.3843 C.3       6 UNK         0.0844 
     56 C56       -47.3087  -28.5523   11.2784 C.3       14 UNK        -0.0967 
     57 S57       -47.4711  -30.2706   11.8676 S.3       14 UNK        -0.2604 
     58 C58       -49.2763  -30.5477   11.9269 C.3       14 UNK         0.0134 
     59 N         -46.6593  -26.2926   12.1252 N.am      6 UNK        -0.4116 
     60 C         -46.4417  -25.2980   12.9978 C.2       5 UNK         0.5034 
     61 O         -46.8542  -25.2949   14.1570 O.2       5 UNK        -0.5045 
     62 CA        -45.6710  -24.0759   12.4693 C.3       5 UNK         0.0224 
     63 CB        -44.1551  -24.3019   12.5802 C.3       5 UNK        -0.1978 
     64 N         -46.0187  -23.7408   11.0845 N.am      5 UNK        -0.4737 
     65 C         -47.2281  -23.3135   10.6944 C.2       4 UNK         0.5027 
     66 O         -48.1592  -23.1051   11.4697 O.2       4 UNK        -0.5211 
     67 CA        -47.4551  -23.1408    9.1832 C.3       4 UNK         0.0297 
     68 CB        -47.0337  -21.7338    8.7328 C.3       4 UNK        -0.1993 
     69 N         -46.7763  -24.1452    8.3569 N.am      4 UNK        -0.4486 
     70 C         -46.9377  -25.4711    8.4561 C.2       3 UNK         0.4961 
     71 O         -47.6607  -26.0119    9.2948 O.2       3 UNK        -0.5105 
     72 CA        -46.1751  -26.3235    7.4277 C.3       3 UNK         0.0299 
     73 CB        -45.9827  -27.7775    7.8937 C.3       3 UNK        -0.1972 
     74 N         -46.8931  -26.3284    6.1571 N.am      3 UNK        -0.4305 
     75 C         -46.9104  -25.3230    5.2702 C.2       2 UNK         0.5006 
     76 O         -46.2308  -24.3013    5.3827 O.2       2 UNK        -0.5106 
     77 CA        -47.8544  -25.4739    4.0634 C.3       2 UNK         0.0296 
     78 CB        -47.0849  -25.9976    2.8401 C.3       2 UNK        -0.2002 
     79 N         -48.9877  -26.3619    4.3394 N.am      2 UNK        -0.4032 
     80 C         -50.0082  -26.0671    5.1582 C.2       1 UNK         0.5000 
     81 O         -50.1605  -24.9624    5.6831 O.2       1 UNK        -0.5238 
     82 H82       -55.2672  -27.2876    3.9115 H         1 UNK         0.0889 
     83 H83       -54.3399  -25.8177    3.6054 H         1 UNK         0.0889 
     84 H84       -55.3300  -25.9485    5.0606 H         1 UNK         0.0889 
     85 H85       -52.1650  -26.0466    4.0698 H         1 UNK         0.3028 
     86 H86       -51.1988  -27.1691    6.5159 H         1 UNK         0.0864 
     87 H87       -51.4597  -29.2936    5.1797 H         1 UNK         0.0720 
     88 H88       -50.4324  -28.6637    3.9402 H         1 UNK         0.0720 
     89 H89       -49.0639  -31.4017    6.9707 H         1 UNK         0.0814 
     90 H90       -50.6563  -31.1242    6.3288 H         1 UNK         0.0814 
     91 H91       -48.6885  -31.1322    9.3047 H         1 UNK         0.1469 
     92 H92       -51.5528  -29.0862   11.7475 H         1 UNK         0.1381 
     93 H93       -52.0712  -29.2108    7.5018 H         1 UNK         0.1206 
     94 H94       -53.2319  -27.4891    8.9351 H         1 UNK         0.0813 
     95 H95       -53.2244  -27.6363   10.6703 H         1 UNK         0.0813 
     96 H96       -53.9512  -29.8025   11.8893 H         1 UNK         0.0638 
     97 H97       -55.1668  -30.8946   11.2858 H         1 UNK         0.0638 
     98 H98       -56.8631  -28.9848   11.4625 H         1 UNK         0.0568 
     99 H99       -56.8104  -29.8859   15.3475 H         1 UNK         0.3450 
    100 H100      -55.9662  -28.4783   14.7753 H         1 UNK         0.3450 
    101 H101      -54.5828  -27.5511   12.6350 H         1 UNK         0.2987 
    102 H102      -54.8699  -25.2083   11.7738 H         1 UNK         0.0766 
    103 H103      -56.0276  -23.0896   12.3673 H         1 UNK         0.0798 
    104 H104      -57.3989  -23.9955   13.0050 H         1 UNK         0.0798 
    105 H105      -57.0088  -24.0751   11.2952 H         1 UNK         0.0798 
    106 H106      -53.9225  -25.0560   13.7555 H         1 UNK         0.3198 
    107 H107      -53.9812  -23.9827   16.0836 H         1 UNK         0.0843 
    108 H108      -55.6655  -25.8911   17.7950 H         1 UNK         0.0831 
    109 H109      -55.8389  -24.1462   17.7044 H         1 UNK         0.0831 
    110 H110      -54.3814  -24.8420   18.3951 H         1 UNK         0.0831 
    111 H111      -52.4732  -25.5844   15.9484 H         1 UNK         0.3133 
    112 H112      -52.2646  -28.9333   16.6473 H         1 UNK         0.0566 
    113 H113      -51.5433  -29.4799   14.3264 H         1 UNK         0.0814 
    114 H114      -53.2945  -29.4224   14.4287 H         1 UNK         0.0814 
    115 H115      -52.4154  -28.0756   13.7096 H         1 UNK         0.0814 
    116 H116      -50.5556  -27.2222   15.0754 H         1 UNK         0.3091 
    117 H117      -49.0812  -25.5274   17.8618 H         1 UNK         0.0702 
    118 H118      -47.0418  -26.3657   16.7453 H         1 UNK         0.0785 
    119 H119      -47.9833  -27.5315   15.8181 H         1 UNK         0.0785 
    120 H120      -47.8522  -27.6908   17.5648 H         1 UNK         0.0785 
    121 H121      -48.6142  -25.2225   15.0909 H         1 UNK         0.2998 
    122 H122      -51.1119  -22.6694   14.5133 H         1 UNK         0.0697 
    123 H123      -48.0475  -22.7755   14.5243 H         1 UNK         0.0825 
    124 H124      -49.0305  -21.6573   15.4601 H         1 UNK         0.0825 
    125 H125      -49.0436  -21.5757   13.7054 H         1 UNK         0.0825 
    126 H126      -49.3327  -23.9077   12.6873 H         1 UNK         0.3029 
    127 H127      -51.4987  -26.5846   11.6946 H         1 UNK         0.0897 
    128 H128      -50.9705  -25.6046    9.4686 H         1 UNK         0.0792 
    129 H129      -50.4731  -24.0956   10.2330 H         1 UNK         0.0792 
    130 H130      -52.1499  -24.6166   10.3186 H         1 UNK         0.0792 
    131 H131      -48.8802  -26.0150   10.8230 H         1 UNK         0.3086 
    132 H132      -47.1342  -27.8966   13.3330 H         1 UNK         0.0583 
    133 H133      -47.9657  -28.3787   10.4243 H         1 UNK         0.1020 
    134 H134      -46.2989  -28.4911   10.8727 H         1 UNK         0.1020 
    135 H135      -49.4541  -31.6074   12.1133 H         1 UNK         0.0694 
    136 H136      -49.6728  -30.0224   12.7957 H         1 UNK         0.0694 
    137 H137      -46.3604  -26.1598   11.1698 H         1 UNK         0.2989 
    138 H138      -45.9378  -23.2239   13.0989 H         1 UNK         0.1055 
    139 H139      -43.8707  -24.5356   13.6073 H         1 UNK         0.0806 
    140 H140      -43.5988  -23.4111   12.2877 H         1 UNK         0.0806 
    141 H141      -43.8197  -25.1290   11.9532 H         1 UNK         0.0806 
    142 H142      -45.3079  -23.8776   10.3802 H         1 UNK         0.3061 
    143 H143      -48.5262  -23.2483    9.0015 H         1 UNK         0.0734 
    144 H144      -47.2854  -21.5598    7.6864 H         1 UNK         0.0832 
    145 H145      -47.5445  -20.9679    9.3184 H         1 UNK         0.0832 
    146 H146      -45.9614  -21.5743    8.8522 H         1 UNK         0.0832 
    147 H147      -46.2185  -23.8009    7.5845 H         1 UNK         0.3156 
    148 H148      -45.1860  -25.8849    7.2796 H         1 UNK         0.0589 
    149 H149      -46.9341  -28.2769    8.0838 H         1 UNK         0.0808 
    150 H150      -45.4437  -28.3637    7.1493 H         1 UNK         0.0808 
    151 H151      -45.3984  -27.8136    8.8129 H         1 UNK         0.0808 
    152 H152      -47.5013  -27.1184    5.9946 H         1 UNK         0.3098 
    153 H153      -48.2453  -24.4823    3.8249 H         1 UNK         0.0720 
    154 H154      -47.7250  -26.0453    1.9589 H         1 UNK         0.0791 
    155 H155      -46.6764  -26.9940    3.0142 H         1 UNK         0.0791 
    156 H156      -46.2487  -25.3409    2.5955 H         1 UNK         0.0791 
    157 H157      -48.9439  -27.2912    3.9451 H         1 UNK         0.3028 
@<TRIPOS>BOND
     1    1    2 1    
     2    1   82 1    
     3    1   83 1    
     4    1   84 1    
     5    2    3 2    
     6    2    4 am   BACKBONE|DICT|INTERRES
     7    4    5 1    
     8    4   85 1    
     9    5    6 1    
    10    5   80 1    
    11    5   86 1    
    12    6    7 1    
    13    6   87 1    
    14    6   88 1    
    15    7    8 1    
    16    8    9 1    
    17    8   89 1    
    18    8   90 1    
    19    9   10 ar   
    20    9   14 ar   
    21   10   11 ar   
    22   10   91 1    
    23   11   12 ar   
    24   11   58 1    
    25   12   13 ar   
    26   12   92 1    
    27   13   14 ar   
    28   13   15 1    
    29   14   93 1    
    30   15   16 1    
    31   15   94 1    
    32   15   95 1    
    33   16   17 1    
    34   17   18 1    
    35   17   96 1    
    36   17   97 1    
    37   18   19 1    
    38   18   22 1    
    39   18   98 1    
    40   19   20 am   BACKBONE|DICT|INTERRES
    41   19   21 2    
    42   20   99 1    
    43   20  100 1    
    44   22   23 am   BACKBONE|DICT|INTERRES
    45   22  101 1    
    46   23   24 2    
    47   23   25 1    
    48   25   26 1    
    49   25   27 1    
    50   25  102 1    
    51   26  103 1    
    52   26  104 1    
    53   26  105 1    
    54   27   28 am   BACKBONE|DICT|INTERRES
    55   27  106 1    
    56   28   29 2    
    57   28   30 1    
    58   30   31 1    
    59   30   32 1    
    60   30  107 1    
    61   31  108 1    
    62   31  109 1    
    63   31  110 1    
    64   32   33 am   BACKBONE|DICT|INTERRES
    65   32  111 1    
    66   33   34 2    
    67   33   35 1    
    68   35   36 1    
    69   35   37 1    
    70   35  112 1    
    71   36  113 1    
    72   36  114 1    
    73   36  115 1    
    74   37   38 am   BACKBONE|DICT|INTERRES
    75   37  116 1    
    76   38   39 2    
    77   38   40 1    
    78   40   41 1    
    79   40   42 1    
    80   40  117 1    
    81   41  118 1    
    82   41  119 1    
    83   41  120 1    
    84   42   43 am   BACKBONE|DICT|INTERRES
    85   42  121 1    
    86   43   44 2    
    87   43   45 1    
    88   45   46 1    
    89   45   47 1    
    90   45  122 1    
    91   46  123 1    
    92   46  124 1    
    93   46  125 1    
    94   47   48 am   BACKBONE|DICT|INTERRES
    95   47  126 1    
    96   48   49 2    
    97   48   50 1    
    98   50   51 1    
    99   50   52 1    
   100   50  127 1    
   101   51  128 1    
   102   51  129 1    
   103   51  130 1    
   104   52   53 am   BACKBONE|DICT|INTERRES
   105   52  131 1    
   106   53   54 2    
   107   53   55 1    
   108   55   56 1    
   109   55   59 1    
   110   55  132 1    
   111   56   57 1    
   112   56  133 1    
   113   56  134 1    
   114   57   58 1    
   115   58  135 1    
   116   58  136 1    
   117   59   60 am   BACKBONE|DICT|INTERRES
   118   59  137 1    
   119   60   61 2    
   120   60   62 1    
   121   62   63 1    
   122   62   64 1    
   123   62  138 1    
   124   63  139 1    
   125   63  140 1    
   126   63  141 1    
   127   64   65 am   BACKBONE|DICT|INTERRES
   128   64  142 1    
   129   65   66 2    
   130   65   67 1    
   131   67   68 1    
   132   67   69 1    
   133   67  143 1    
   134   68  144 1    
   135   68  145 1    
   136   68  146 1    
   137   69   70 am   BACKBONE|DICT|INTERRES
   138   69  147 1    
   139   70   71 2    
   140   70   72 1    
   141   72   73 1    
   142   72   74 1    
   143   72  148 1    
   144   73  149 1    
   145   73  150 1    
   146   73  151 1    
   147   74   75 am   BACKBONE|DICT|INTERRES
   148   74  152 1    
   149   75   76 2    
   150   75   77 1    
   151   77   78 1    
   152   77   79 1    
   153   77  153 1    
   154   78  154 1    
   155   78  155 1    
   156   78  156 1    
   157   79   80 am   BACKBONE|DICT|INTERRES
   158   79  157 1    
   159   80   81 2    
@<TRIPOS>SUBSTRUCTURE
     1 UNK         1 GROUP             0       ****    0 ROOT    
