@<TRIPOS>MOLECULE
3R207
157   159    1
SMALL
USER_CHARGES


@<TRIPOS>ATOM
      1 CA        -48.8012  -31.2491   10.9218 C.3       0 UNK        -0.1975 
      2 C         -48.5539  -30.9859    9.4432 C.2       0 UNK         0.4852 
      3 O         -47.9900  -31.8377    8.7556 O.2       0 UNK        -0.5216 
      4 N         -48.9745  -29.8127    8.9518 N.am      1 UNK        -0.4461 
      5 CA        -48.8597  -29.3837    7.5504 C.3       1 UNK         0.0864 
      6 C6        -49.6789  -28.0965    7.2739 C.3       14 UNK        -0.0898 
      7 S7        -51.4109  -28.2207    7.8209 S.3       14 UNK        -0.2598 
      8 C8        -52.2114  -26.9167    6.8234 C.3       14 UNK         0.0286 
      9 C9        -53.3965  -26.2664    7.5351 C.ar      14 UNK        -0.0844 
     10 C10       -53.6126  -24.8904    7.4102 C.ar      14 UNK        -0.0881 
     11 C11       -54.6644  -24.2625    8.0905 C.ar      14 UNK        -0.0643 
     12 C12       -55.5095  -25.0333    8.8971 C.ar      14 UNK        -0.0930 
     13 C13       -55.3264  -26.4154    9.0072 C.ar      14 UNK        -0.0827 
     14 C14       -54.2825  -27.0240    8.3077 C.ar      14 UNK        -0.1249 
     15 C15       -56.2649  -27.2552    9.8649 C.3       14 UNK         0.0141 
     16 S16       -55.6518  -27.4396   11.5714 S.3       14 UNK        -0.2313 
     17 C17       -54.3508  -28.7109   11.3905 C.3       14 UNK        -0.0915 
     18 CA        -54.5530  -29.9441   12.3121 C.3       13 UNK         0.0968 
     19 C         -53.4828  -31.0455   12.0484 C.2       13 UNK         0.5732 
     20 N         -52.8304  -31.6133   13.0575 N.am      13 UNK        -0.7310 
     21 O         -53.2487  -31.4118   10.8994 O.2       13 UNK        -0.5035 
     22 N         -54.6482  -29.5655   13.7304 N.am      13 UNK        -0.4233 
     23 C         -55.5130  -30.1017   14.6006 C.2       13 UNK         0.4989 
     24 O         -56.3789  -30.9205   14.2848 O.2       13 UNK        -0.4996 
     25 CA        -55.3938  -29.6510   16.0714 C.3       12 UNK         0.0216 
     26 CB        -56.0909  -30.6189   17.0517 C.3       12 UNK        -0.1964 
     27 N         -54.0160  -29.3900   16.5070 N.am      12 UNK        -0.4276 
     28 C         -52.9765  -30.2414   16.4916 C.2       12 UNK         0.5020 
     29 O         -53.0504  -31.3926   16.0590 O.2       12 UNK        -0.5489 
     30 CA        -51.6217  -29.7183   17.0115 C.3       11 UNK         0.0294 
     31 CB        -50.4483  -30.2550   16.1701 C.3       11 UNK        -0.2019 
     32 N         -51.5806  -28.2562   16.9902 N.am      11 UNK        -0.4493 
     33 C         -51.6700  -27.4482   18.0557 C.2       11 UNK         0.4932 
     34 O         -51.6970  -27.8494   19.2190 O.2       11 UNK        -0.5029 
     35 CA        -51.7826  -25.9343   17.7807 C.3       10 UNK         0.0280 
     36 CB        -50.4206  -25.2519   17.9813 C.3       10 UNK        -0.1976 
     37 N         -52.2930  -25.6227   16.4397 N.am      10 UNK        -0.4242 
     38 C         -53.5351  -25.9132   16.0158 C.2       10 UNK         0.5072 
     39 O         -54.4043  -26.3882   16.7471 O.2       10 UNK        -0.5224 
     40 CA        -53.8449  -25.7361   14.5165 C.3       9 UNK         0.0343 
     41 CB        -54.5473  -24.3948   14.2629 C.3       9 UNK        -0.2003 
     42 N         -52.6605  -25.8480   13.6589 N.am      9 UNK        -0.4272 
     43 C         -51.8840  -26.9412   13.5798 C.2       9 UNK         0.4988 
     44 O         -52.1802  -28.0054   14.1232 O.2       9 UNK        -0.5108 
     45 CA        -50.5387  -26.8471   12.8320 C.3       8 UNK         0.0248 
     46 CB        -50.6110  -27.6071   11.4993 C.3       8 UNK        -0.2001 
     47 N         -50.0704  -25.4819   12.5796 N.am      8 UNK        -0.4140 
     48 C         -49.8425  -24.5417   13.5127 C.2       8 UNK         0.5028 
     49 O         -49.9116  -24.7533   14.7239 O.2       8 UNK        -0.5428 
     50 CA        -49.5839  -23.1048   13.0135 C.3       7 UNK         0.0264 
     51 CB        -48.0755  -22.8326   12.9498 C.3       7 UNK        -0.1988 
     52 N         -50.1821  -22.8293   11.7009 N.am      7 UNK        -0.4454 
     53 C         -51.4856  -22.9750   11.4097 C.2       7 UNK         0.5027 
     54 O         -52.3424  -23.1853   12.2679 O.2       7 UNK        -0.5083 
     55 CA        -51.9119  -22.9737    9.9271 C.3       6 UNK         0.0844 
     56 C56       -52.8694  -21.7933    9.6300 C.3       14 UNK        -0.0967 
     57 S57       -53.4230  -21.7336    7.8911 S.3       14 UNK        -0.2604 
     58 C58       -54.9295  -22.7652    7.9338 C.3       14 UNK         0.0134 
     59 N         -50.8029  -23.0564    8.9687 N.am      6 UNK        -0.4116 
     60 C         -49.9288  -24.0648    8.8450 C.2       5 UNK         0.5034 
     61 O         -49.8795  -25.0286    9.6108 O.2       5 UNK        -0.5045 
     62 CA        -48.9237  -23.9801    7.6826 C.3       5 UNK         0.0224 
     63 CB        -49.2341  -22.8707    6.6512 C.3       5 UNK        -0.1978 
     64 N         -47.5382  -23.8653    8.1478 N.am      5 UNK        -0.4737 
     65 C         -47.0146  -22.9242    8.9504 C.2       4 UNK         0.5027 
     66 O         -47.6839  -22.0429    9.4919 O.2       4 UNK        -0.5211 
     67 CA        -45.4889  -22.9543    9.1956 C.3       4 UNK         0.0297 
     68 CB        -45.1725  -23.2998   10.6591 C.3       4 UNK        -0.1993 
     69 N         -44.7660  -23.8869    8.3261 N.am      4 UNK        -0.4486 
     70 C         -44.5183  -23.6987    7.0220 C.2       3 UNK         0.4961 
     71 O         -44.7773  -22.6550    6.4224 O.2       3 UNK        -0.5105 
     72 CA        -43.9005  -24.8801    6.2425 C.3       3 UNK         0.0299 
     73 CB        -42.3988  -24.6411    6.0149 C.3       3 UNK        -0.1972 
     74 N         -44.0884  -26.2052    6.8547 N.am      3 UNK        -0.4305 
     75 C         -45.2689  -26.7687    7.1505 C.2       2 UNK         0.5006 
     76 O         -46.3507  -26.2051    6.9675 O.2       2 UNK        -0.5106 
     77 CA        -45.2205  -28.1613    7.8111 C.3       2 UNK         0.0296 
     78 CB        -44.4761  -28.1104    9.1585 C.3       2 UNK        -0.2002 
     79 N         -46.5668  -28.6817    8.0525 N.am      2 UNK        -0.4032 
     80 C         -47.3977  -29.1547    7.1129 C.2       1 UNK         0.5000 
     81 O         -47.0644  -29.3814    5.9475 O.2       1 UNK        -0.5238 
     82 H82       -49.1350  -30.3549   11.4468 H         1 UNK         0.0889 
     83 H83       -47.8860  -31.5969   11.4003 H         1 UNK         0.0889 
     84 H84       -49.5632  -32.0187   11.0423 H         1 UNK         0.0889 
     85 H85       -49.4814  -29.1767    9.5495 H         1 UNK         0.3028 
     86 H86       -49.2630  -30.1857    6.9284 H         1 UNK         0.0864 
     87 H87       -49.2345  -27.2407    7.7859 H         1 UNK         0.0720 
     88 H88       -49.6638  -27.8629    6.2073 H         1 UNK         0.0720 
     89 H89       -52.5473  -27.3429    5.8775 H         1 UNK         0.0814 
     90 H90       -51.4688  -26.1555    6.5792 H         1 UNK         0.0814 
     91 H91       -52.9540  -24.3022    6.7864 H         1 UNK         0.1469 
     92 H92       -56.3241  -24.5605    9.4286 H         1 UNK         0.1381 
     93 H93       -54.1481  -28.0934    8.3748 H         1 UNK         0.1206 
     94 H94       -56.4170  -28.2385    9.4172 H         1 UNK         0.0813 
     95 H95       -57.2494  -26.7864    9.8992 H         1 UNK         0.0813 
     96 H96       -54.3218  -29.0397   10.3529 H         1 UNK         0.0638 
     97 H97       -53.3892  -28.2398   11.5788 H         1 UNK         0.0638 
     98 H98       -55.4971  -30.3980   12.0070 H         1 UNK         0.0568 
     99 H99       -53.0289  -31.3712   14.0217 H         1 UNK         0.3450 
    100 H100      -52.1538  -32.3306   12.8556 H         1 UNK         0.3450 
    101 H101      -53.9142  -28.9487   14.0633 H         1 UNK         0.2987 
    102 H102      -55.9148  -28.6943   16.1299 H         1 UNK         0.0766 
    103 H103      -55.6542  -31.6174   17.0113 H         1 UNK         0.0798 
    104 H104      -56.0188  -30.2626   18.0793 H         1 UNK         0.0798 
    105 H105      -57.1521  -30.7176   16.8199 H         1 UNK         0.0798 
    106 H106      -53.8529  -28.4489   16.8471 H         1 UNK         0.3198 
    107 H107      -51.5074  -30.0872   18.0327 H         1 UNK         0.0843 
    108 H108      -50.3940  -31.3432   16.2206 H         1 UNK         0.0831 
    109 H109      -49.4940  -29.8686   16.5280 H         1 UNK         0.0831 
    110 H110      -50.5481  -29.9827   15.1184 H         1 UNK         0.0831 
    111 H111      -51.6056  -27.8468   16.0623 H         1 UNK         0.3133 
    112 H112      -52.4822  -25.5185   18.5087 H         1 UNK         0.0566 
    113 H113      -50.4876  -24.1750   17.8261 H         1 UNK         0.0814 
    114 H114      -50.0497  -25.4113   18.9947 H         1 UNK         0.0814 
    115 H115      -49.6687  -25.6430   17.2945 H         1 UNK         0.0814 
    116 H116      -51.6182  -25.2517   15.7763 H         1 UNK         0.3091 
    117 H117      -54.5315  -26.5357   14.2332 H         1 UNK         0.0702 
    118 H118      -54.8362  -24.2928   13.2163 H         1 UNK         0.0785 
    119 H119      -53.9072  -23.5496   14.5189 H         1 UNK         0.0785 
    120 H120      -55.4565  -24.3106   14.8597 H         1 UNK         0.0785 
    121 H121      -52.3813  -25.0031   13.1704 H         1 UNK         0.2998 
    122 H122      -49.7925  -27.3336   13.4631 H         1 UNK         0.0697 
    123 H123      -51.3197  -27.1433   10.8109 H         1 UNK         0.0825 
    124 H124      -50.9286  -28.6397   11.6509 H         1 UNK         0.0825 
    125 H125      -49.6389  -27.6294   11.0077 H         1 UNK         0.0825 
    126 H126      -49.9868  -25.2184   11.6013 H         1 UNK         0.3029 
    127 H127      -50.0341  -22.4188   13.7340 H         1 UNK         0.0897 
    128 H128      -47.8650  -21.8147   12.6208 H         1 UNK         0.0792 
    129 H129      -47.6131  -22.9613   13.9295 H         1 UNK         0.0792 
    130 H130      -47.5822  -23.5197   12.2627 H         1 UNK         0.0792 
    131 H131      -49.5397  -22.6499   10.9389 H         1 UNK         0.3086 
    132 H132      -52.4814  -23.8961    9.8034 H         1 UNK         0.0583 
    133 H133      -53.7468  -21.8382   10.2788 H         1 UNK         0.1020 
    134 H134      -52.3796  -20.8439    9.8549 H         1 UNK         0.1020 
    135 H135      -55.5817  -22.4019    8.7296 H         1 UNK         0.0694 
    136 H136      -55.4736  -22.6145    7.0007 H         1 UNK         0.0694 
    137 H137      -50.7464  -22.2971    8.3060 H         1 UNK         0.2989 
    138 H138      -48.9911  -24.9355    7.1609 H         1 UNK         0.1055 
    139 H139      -48.5482  -22.9275    5.8057 H         1 UNK         0.0806 
    140 H140      -49.1419  -21.8705    7.0764 H         1 UNK         0.0806 
    141 H141      -50.2424  -22.9735    6.2468 H         1 UNK         0.0806 
    142 H142      -46.9185  -24.5879    7.7887 H         1 UNK         0.3061 
    143 H143      -45.1141  -21.9477    8.9979 H         1 UNK         0.0734 
    144 H144      -45.5996  -22.5558   11.3322 H         1 UNK         0.0832 
    145 H145      -45.5738  -24.2737   10.9419 H         1 UNK         0.0832 
    146 H146      -44.0979  -23.3117   10.8424 H         1 UNK         0.0832 
    147 H147      -44.5074  -24.7747    8.7300 H         1 UNK         0.3156 
    148 H148      -44.3914  -24.9057    5.2676 H         1 UNK         0.0589 
    149 H149      -41.8436  -24.6386    6.9538 H         1 UNK         0.0808 
    150 H150      -41.9667  -25.4059    5.3692 H         1 UNK         0.0808 
    151 H151      -42.2245  -23.6785    5.5316 H         1 UNK         0.0808 
    152 H152      -43.2464  -26.7305    7.0438 H         1 UNK         0.3098 
    153 H153      -44.6955  -28.8417    7.1375 H         1 UNK         0.0720 
    154 H154      -44.4674  -29.0884    9.6408 H         1 UNK         0.0791 
    155 H155      -44.9368  -27.4031    9.8497 H         1 UNK         0.0791 
    156 H156      -43.4346  -27.8131    9.0318 H         1 UNK         0.0791 
    157 H157      -46.9509  -28.5191    8.9709 H         1 UNK         0.3028 
@<TRIPOS>BOND
     1    1    2 1    
     2    1   82 1    
     3    1   83 1    
     4    1   84 1    
     5    2    3 2    
     6    2    4 am   BACKBONE|DICT|INTERRES
     7    4    5 1    
     8    4   85 1    
     9    5    6 1    
    10    5   80 1    
    11    5   86 1    
    12    6    7 1    
    13    6   87 1    
    14    6   88 1    
    15    7    8 1    
    16    8    9 1    
    17    8   89 1    
    18    8   90 1    
    19    9   10 ar   
    20    9   14 ar   
    21   10   11 ar   
    22   10   91 1    
    23   11   12 ar   
    24   11   58 1    
    25   12   13 ar   
    26   12   92 1    
    27   13   14 ar   
    28   13   15 1    
    29   14   93 1    
    30   15   16 1    
    31   15   94 1    
    32   15   95 1    
    33   16   17 1    
    34   17   18 1    
    35   17   96 1    
    36   17   97 1    
    37   18   19 1    
    38   18   22 1    
    39   18   98 1    
    40   19   20 am   BACKBONE|DICT|INTERRES
    41   19   21 2    
    42   20   99 1    
    43   20  100 1    
    44   22   23 am   BACKBONE|DICT|INTERRES
    45   22  101 1    
    46   23   24 2    
    47   23   25 1    
    48   25   26 1    
    49   25   27 1    
    50   25  102 1    
    51   26  103 1    
    52   26  104 1    
    53   26  105 1    
    54   27   28 am   BACKBONE|DICT|INTERRES
    55   27  106 1    
    56   28   29 2    
    57   28   30 1    
    58   30   31 1    
    59   30   32 1    
    60   30  107 1    
    61   31  108 1    
    62   31  109 1    
    63   31  110 1    
    64   32   33 am   BACKBONE|DICT|INTERRES
    65   32  111 1    
    66   33   34 2    
    67   33   35 1    
    68   35   36 1    
    69   35   37 1    
    70   35  112 1    
    71   36  113 1    
    72   36  114 1    
    73   36  115 1    
    74   37   38 am   BACKBONE|DICT|INTERRES
    75   37  116 1    
    76   38   39 2    
    77   38   40 1    
    78   40   41 1    
    79   40   42 1    
    80   40  117 1    
    81   41  118 1    
    82   41  119 1    
    83   41  120 1    
    84   42   43 am   BACKBONE|DICT|INTERRES
    85   42  121 1    
    86   43   44 2    
    87   43   45 1    
    88   45   46 1    
    89   45   47 1    
    90   45  122 1    
    91   46  123 1    
    92   46  124 1    
    93   46  125 1    
    94   47   48 am   BACKBONE|DICT|INTERRES
    95   47  126 1    
    96   48   49 2    
    97   48   50 1    
    98   50   51 1    
    99   50   52 1    
   100   50  127 1    
   101   51  128 1    
   102   51  129 1    
   103   51  130 1    
   104   52   53 am   BACKBONE|DICT|INTERRES
   105   52  131 1    
   106   53   54 2    
   107   53   55 1    
   108   55   56 1    
   109   55   59 1    
   110   55  132 1    
   111   56   57 1    
   112   56  133 1    
   113   56  134 1    
   114   57   58 1    
   115   58  135 1    
   116   58  136 1    
   117   59   60 am   BACKBONE|DICT|INTERRES
   118   59  137 1    
   119   60   61 2    
   120   60   62 1    
   121   62   63 1    
   122   62   64 1    
   123   62  138 1    
   124   63  139 1    
   125   63  140 1    
   126   63  141 1    
   127   64   65 am   BACKBONE|DICT|INTERRES
   128   64  142 1    
   129   65   66 2    
   130   65   67 1    
   131   67   68 1    
   132   67   69 1    
   133   67  143 1    
   134   68  144 1    
   135   68  145 1    
   136   68  146 1    
   137   69   70 am   BACKBONE|DICT|INTERRES
   138   69  147 1    
   139   70   71 2    
   140   70   72 1    
   141   72   73 1    
   142   72   74 1    
   143   72  148 1    
   144   73  149 1    
   145   73  150 1    
   146   73  151 1    
   147   74   75 am   BACKBONE|DICT|INTERRES
   148   74  152 1    
   149   75   76 2    
   150   75   77 1    
   151   77   78 1    
   152   77   79 1    
   153   77  153 1    
   154   78  154 1    
   155   78  155 1    
   156   78  156 1    
   157   79   80 am   BACKBONE|DICT|INTERRES
   158   79  157 1    
   159   80   81 2    
@<TRIPOS>SUBSTRUCTURE
     1 UNK         1 GROUP             0       ****    0 ROOT    
