@<TRIPOS>MOLECULE
3R207
157   159    1
SMALL
USER_CHARGES


@<TRIPOS>ATOM
      1 CA        -50.5866  -31.1914    3.8263 C.3       0 UNK        -0.1975 
      2 C         -50.4352  -29.8910    4.6007 C.2       0 UNK         0.4852 
      3 O         -50.4424  -29.9148    5.8314 O.2       0 UNK        -0.5216 
      4 N         -50.2912  -28.7652    3.8856 N.am      1 UNK        -0.4461 
      5 CA        -50.1685  -27.3773    4.3665 C.3       1 UNK         0.0864 
      6 C6        -51.3753  -26.8777    5.2005 C.3       14 UNK        -0.0898 
      7 S7        -52.9809  -26.9962    4.3323 S.3       14 UNK        -0.2598 
      8 C8        -53.8579  -28.3183    5.2445 C.3       14 UNK         0.0286 
      9 C9        -53.7783  -28.1588    6.7587 C.ar      14 UNK        -0.0844 
     10 C10       -54.1619  -26.9616    7.3716 C.ar      14 UNK        -0.0881 
     11 C11       -53.9702  -26.7758    8.7428 C.ar      14 UNK        -0.0643 
     12 C12       -53.4412  -27.8165    9.5107 C.ar      14 UNK        -0.0930 
     13 C13       -53.0876  -29.0309    8.9189 C.ar      14 UNK        -0.0827 
     14 C14       -53.2512  -29.1918    7.5402 C.ar      14 UNK        -0.1249 
     15 C15       -52.4676  -30.1347    9.7669 C.3       14 UNK         0.0141 
     16 S16       -53.2686  -31.7602    9.5662 S.3       14 UNK        -0.2313 
     17 C17       -55.0049  -31.4438   10.0528 C.3       14 UNK        -0.0915 
     18 CA        -55.3079  -31.3046   11.5759 C.3       13 UNK         0.0968 
     19 C         -54.5642  -32.3084   12.4991 C.2       13 UNK         0.5732 
     20 N         -54.7689  -33.6031   12.2968 N.am      13 UNK        -0.7310 
     21 O         -53.8147  -31.9332   13.4000 O.2       13 UNK        -0.5035 
     22 N         -55.1343  -29.9212   12.0297 N.am      13 UNK        -0.4233 
     23 C         -56.1037  -29.0128   12.1695 C.2       13 UNK         0.4989 
     24 O         -57.2879  -29.2359   11.9104 O.2       13 UNK        -0.4996 
     25 CA        -55.6837  -27.6218   12.6942 C.3       12 UNK         0.0216 
     26 CB        -56.8853  -26.6928   12.9517 C.3       12 UNK        -0.1964 
     27 N         -54.8570  -27.6721   13.9052 N.am      12 UNK        -0.4276 
     28 C         -53.5684  -28.0287   13.9550 C.2       12 UNK         0.5020 
     29 O         -52.9221  -28.3891   12.9701 O.2       12 UNK        -0.5489 
     30 CA        -52.8832  -27.9241   15.3198 C.3       11 UNK         0.0294 
     31 CB        -51.7595  -28.9643   15.4807 C.3       11 UNK        -0.2019 
     32 N         -52.3051  -26.5919   15.4177 N.am      11 UNK        -0.4493 
     33 C         -52.8764  -25.5255   15.9878 C.2       11 UNK         0.4932 
     34 O         -53.9744  -25.5565   16.5464 O.2       11 UNK        -0.5029 
     35 CA        -52.0739  -24.2097   15.9099 C.3       10 UNK         0.0280 
     36 CB        -52.5608  -23.1370   16.9066 C.3       10 UNK        -0.1976 
     37 N         -50.6263  -24.4307   16.0272 N.am      10 UNK        -0.4242 
     38 C         -49.9620  -24.9503   17.0718 C.2       10 UNK         0.5072 
     39 O         -50.4786  -25.2275   18.1552 O.2       10 UNK        -0.5224 
     40 CA        -48.4644  -25.2417   16.8683 C.3       9 UNK         0.0343 
     41 CB        -48.2564  -26.7318   16.5548 C.3       9 UNK        -0.2003 
     42 N         -47.8536  -24.4267   15.8117 N.am      9 UNK        -0.4272 
     43 C         -47.5373  -23.1327   15.9673 C.2       9 UNK         0.4988 
     44 O         -47.6848  -22.5163   17.0237 O.2       9 UNK        -0.5108 
     45 CA        -46.9788  -22.3923   14.7420 C.3       8 UNK         0.0248 
     46 CB        -45.5759  -22.8894   14.3602 C.3       8 UNK        -0.2001 
     47 N         -47.8839  -22.4421   13.5880 N.am      8 UNK        -0.4140 
     48 C         -49.0277  -21.7424   13.5247 C.2       8 UNK         0.5028 
     49 O         -49.4785  -21.0790   14.4590 O.2       8 UNK        -0.5428 
     50 CA        -49.7880  -21.7464   12.1948 C.3       7 UNK         0.0264 
     51 CB        -49.0530  -20.9010   11.1393 C.3       7 UNK        -0.1988 
     52 N         -49.9924  -23.1016   11.6844 N.am      7 UNK        -0.4454 
     53 C         -51.1736  -23.7332   11.7061 C.2       7 UNK         0.5027 
     54 O         -52.1783  -23.2832   12.2595 O.2       7 UNK        -0.5083 
     55 CA        -51.2692  -25.0877   10.9749 C.3       6 UNK         0.0844 
     56 C56       -51.4679  -24.9141    9.4466 C.3       14 UNK        -0.0967 
     57 S57       -53.0584  -24.1544    8.9561 S.3       14 UNK        -0.2604 
     58 C58       -54.2860  -25.4338    9.3853 C.3       14 UNK         0.0134 
     59 N         -50.1567  -25.9966   11.2513 N.am      6 UNK        -0.4116 
     60 C         -49.8466  -26.5043   12.4513 C.2       5 UNK         0.5034 
     61 O         -50.3259  -26.1203   13.5170 O.2       5 UNK        -0.5045 
     62 CA        -48.8145  -27.6382   12.4550 C.3       5 UNK         0.0224 
     63 CB        -49.3360  -28.8735   11.6992 C.3       5 UNK        -0.1978 
     64 N         -47.5561  -27.1861   11.8702 N.am      5 UNK        -0.4737 
     65 C         -46.6508  -26.4555   12.5335 C.2       4 UNK         0.5027 
     66 O         -46.7452  -26.1656   13.7249 O.2       4 UNK        -0.5211 
     67 CA        -45.4676  -25.9132   11.7129 C.3       4 UNK         0.0297 
     68 CB        -44.3778  -26.9859   11.5618 C.3       4 UNK        -0.1993 
     69 N         -45.8723  -25.4311   10.3908 N.am      4 UNK        -0.4486 
     70 C         -46.7759  -24.4649   10.1698 C.2       3 UNK         0.4961 
     71 O         -47.3104  -23.8088   11.0641 O.2       3 UNK        -0.5105 
     72 CA        -47.1981  -24.2255    8.7100 C.3       3 UNK         0.0299 
     73 CB        -46.3809  -23.0785    8.0971 C.3       3 UNK        -0.1972 
     74 N         -47.0864  -25.4204    7.8642 N.am      3 UNK        -0.4305 
     75 C         -47.7773  -26.5541    8.0479 C.2       2 UNK         0.5006 
     76 O         -48.6130  -26.7114    8.9419 O.2       2 UNK        -0.5106 
     77 CA        -47.4616  -27.7150    7.0932 C.3       2 UNK         0.0296 
     78 CB        -47.2341  -29.0232    7.8707 C.3       2 UNK        -0.2002 
     79 N         -48.5572  -27.9036    6.1490 N.am      2 UNK        -0.4032 
     80 C         -48.8570  -27.0912    5.1292 C.2       1 UNK         0.5000 
     81 O         -48.1541  -26.1370    4.7901 O.2       1 UNK        -0.5238 
     82 H82       -50.5712  -31.0305    2.7486 H         1 UNK         0.0889 
     83 H83       -51.5304  -31.6710    4.0842 H         1 UNK         0.0889 
     84 H84       -49.7766  -31.8747    4.0799 H         1 UNK         0.0889 
     85 H85       -50.2710  -28.8485    2.8785 H         1 UNK         0.3028 
     86 H86       -50.1299  -26.7670    3.4625 H         1 UNK         0.0864 
     87 H87       -51.4110  -27.4031    6.1542 H         1 UNK         0.0720 
     88 H88       -51.2403  -25.8254    5.4591 H         1 UNK         0.0720 
     89 H89       -53.4445  -29.2800    4.9379 H         1 UNK         0.0814 
     90 H90       -54.9055  -28.3243    4.9415 H         1 UNK         0.0814 
     91 H91       -54.5507  -26.1507    6.7708 H         1 UNK         0.1469 
     92 H92       -53.2705  -27.6695   10.5666 H         1 UNK         0.1381 
     93 H93       -52.9365  -30.1151    7.0731 H         1 UNK         0.1206 
     94 H94       -51.4167  -30.2302    9.4910 H         1 UNK         0.0813 
     95 H95       -52.4797  -29.8703   10.8242 H         1 UNK         0.0813 
     96 H96       -55.5824  -32.2827    9.6623 H         1 UNK         0.0638 
     97 H97       -55.3757  -30.5745    9.5075 H         1 UNK         0.0638 
     98 H98       -56.3610  -31.5573   11.7127 H         1 UNK         0.0568 
     99 H99       -54.2965  -34.2702   12.8862 H         1 UNK         0.3450 
    100 H100      -55.3725  -33.9261   11.5572 H         1 UNK         0.3450 
    101 H101      -54.1932  -29.6661   12.3188 H         1 UNK         0.2987 
    102 H102      -55.0900  -27.1639   11.9044 H         1 UNK         0.0766 
    103 H103      -56.5600  -25.6977   13.2564 H         1 UNK         0.0798 
    104 H104      -57.5402  -27.0863   13.7302 H         1 UNK         0.0798 
    105 H105      -57.4866  -26.5697   12.0498 H         1 UNK         0.0798 
    106 H106      -55.3034  -27.3815   14.7644 H         1 UNK         0.3198 
    107 H107      -53.6196  -28.0865   16.1099 H         1 UNK         0.0843 
    108 H108      -50.9720  -28.8321   14.7374 H         1 UNK         0.0831 
    109 H109      -52.1487  -29.9770   15.3660 H         1 UNK         0.0831 
    110 H110      -51.2998  -28.8995   16.4669 H         1 UNK         0.0831 
    111 H111      -51.4633  -26.4371   14.8631 H         1 UNK         0.3133 
    112 H112      -52.2360  -23.8182   14.9055 H         1 UNK         0.0566 
    113 H113      -51.9756  -22.2215   16.8185 H         1 UNK         0.0814 
    114 H114      -53.6025  -22.8748   16.7182 H         1 UNK         0.0814 
    115 H115      -52.4952  -23.4809   17.9391 H         1 UNK         0.0814 
    116 H116      -50.0989  -24.2987   15.1750 H         1 UNK         0.3091 
    117 H117      -47.9556  -25.0239   17.8099 H         1 UNK         0.0702 
    118 H118      -47.1997  -26.9700   16.4329 H         1 UNK         0.0785 
    119 H119      -48.7747  -27.0242   15.6423 H         1 UNK         0.0785 
    120 H120      -48.6409  -27.3580   17.3609 H         1 UNK         0.0785 
    121 H121      -47.6292  -24.8997   14.9395 H         1 UNK         0.2998 
    122 H122      -46.8720  -21.3415   15.0214 H         1 UNK         0.0697 
    123 H123      -45.5578  -23.9596   14.1726 H         1 UNK         0.0825 
    124 H124      -44.8682  -22.6971   15.1675 H         1 UNK         0.0825 
    125 H125      -45.1993  -22.3834   13.4711 H         1 UNK         0.0825 
    126 H126      -47.5805  -22.9642   12.7698 H         1 UNK         0.3029 
    127 H127      -50.7509  -21.2622   12.3740 H         1 UNK         0.0897 
    128 H128      -49.6180  -20.8552   10.2081 H         1 UNK         0.0792 
    129 H129      -48.9206  -19.8757   11.4874 H         1 UNK         0.0792 
    130 H130      -48.0630  -21.2944   10.9088 H         1 UNK         0.0792 
    131 H131      -49.1766  -23.5594   11.2872 H         1 UNK         0.3086 
    132 H132      -52.1528  -25.5906   11.3719 H         1 UNK         0.0583 
    133 H133      -50.6616  -24.3113    9.0258 H         1 UNK         0.1020 
    134 H134      -51.3871  -25.8792    8.9436 H         1 UNK         0.1020 
    135 H135      -54.3411  -25.5203   10.4702 H         1 UNK         0.0694 
    136 H136      -55.2719  -25.1001    9.0587 H         1 UNK         0.0694 
    137 H137      -49.6517  -26.3435   10.4387 H         1 UNK         0.2989 
    138 H138      -48.6419  -27.9341   13.4914 H         1 UNK         0.1055 
    139 H139      -50.2847  -29.2113   12.1195 H         1 UNK         0.0806 
    140 H140      -48.6356  -29.7053   11.7729 H         1 UNK         0.0806 
    141 H141      -49.5033  -28.6723   10.6406 H         1 UNK         0.0806 
    142 H142      -47.4415  -27.3169   10.8745 H         1 UNK         0.3061 
    143 H143      -45.0391  -25.0675   12.2517 H         1 UNK         0.0734 
    144 H144      -43.4983  -26.5906   11.0531 H         1 UNK         0.0832 
    145 H145      -44.0498  -27.3457   12.5382 H         1 UNK         0.0832 
    146 H146      -44.7326  -27.8505   10.9992 H         1 UNK         0.0832 
    147 H147      -45.4761  -25.9023    9.5911 H         1 UNK         0.3156 
    148 H148      -48.2475  -23.9254    8.7208 H         1 UNK         0.0589 
    149 H149      -45.3199  -23.3238    8.0361 H         1 UNK         0.0808 
    150 H150      -46.7290  -22.8355    7.0929 H         1 UNK         0.0808 
    151 H151      -46.4718  -22.1716    8.6970 H         1 UNK         0.0808 
    152 H152      -46.4503  -25.3642    7.0808 H         1 UNK         0.3098 
    153 H153      -46.5513  -27.4878    6.5345 H         1 UNK         0.0720 
    154 H154      -46.9578  -29.8374    7.2005 H         1 UNK         0.0791 
    155 H155      -48.1273  -29.3316    8.4164 H         1 UNK         0.0791 
    156 H156      -46.4282  -28.9132    8.5974 H         1 UNK         0.0791 
    157 H157      -49.2067  -28.6668    6.3327 H         1 UNK         0.3028 
@<TRIPOS>BOND
     1    1    2 1    
     2    1   82 1    
     3    1   83 1    
     4    1   84 1    
     5    2    3 2    
     6    2    4 am   BACKBONE|DICT|INTERRES
     7    4    5 1    
     8    4   85 1    
     9    5    6 1    
    10    5   80 1    
    11    5   86 1    
    12    6    7 1    
    13    6   87 1    
    14    6   88 1    
    15    7    8 1    
    16    8    9 1    
    17    8   89 1    
    18    8   90 1    
    19    9   10 ar   
    20    9   14 ar   
    21   10   11 ar   
    22   10   91 1    
    23   11   12 ar   
    24   11   58 1    
    25   12   13 ar   
    26   12   92 1    
    27   13   14 ar   
    28   13   15 1    
    29   14   93 1    
    30   15   16 1    
    31   15   94 1    
    32   15   95 1    
    33   16   17 1    
    34   17   18 1    
    35   17   96 1    
    36   17   97 1    
    37   18   19 1    
    38   18   22 1    
    39   18   98 1    
    40   19   20 am   BACKBONE|DICT|INTERRES
    41   19   21 2    
    42   20   99 1    
    43   20  100 1    
    44   22   23 am   BACKBONE|DICT|INTERRES
    45   22  101 1    
    46   23   24 2    
    47   23   25 1    
    48   25   26 1    
    49   25   27 1    
    50   25  102 1    
    51   26  103 1    
    52   26  104 1    
    53   26  105 1    
    54   27   28 am   BACKBONE|DICT|INTERRES
    55   27  106 1    
    56   28   29 2    
    57   28   30 1    
    58   30   31 1    
    59   30   32 1    
    60   30  107 1    
    61   31  108 1    
    62   31  109 1    
    63   31  110 1    
    64   32   33 am   BACKBONE|DICT|INTERRES
    65   32  111 1    
    66   33   34 2    
    67   33   35 1    
    68   35   36 1    
    69   35   37 1    
    70   35  112 1    
    71   36  113 1    
    72   36  114 1    
    73   36  115 1    
    74   37   38 am   BACKBONE|DICT|INTERRES
    75   37  116 1    
    76   38   39 2    
    77   38   40 1    
    78   40   41 1    
    79   40   42 1    
    80   40  117 1    
    81   41  118 1    
    82   41  119 1    
    83   41  120 1    
    84   42   43 am   BACKBONE|DICT|INTERRES
    85   42  121 1    
    86   43   44 2    
    87   43   45 1    
    88   45   46 1    
    89   45   47 1    
    90   45  122 1    
    91   46  123 1    
    92   46  124 1    
    93   46  125 1    
    94   47   48 am   BACKBONE|DICT|INTERRES
    95   47  126 1    
    96   48   49 2    
    97   48   50 1    
    98   50   51 1    
    99   50   52 1    
   100   50  127 1    
   101   51  128 1    
   102   51  129 1    
   103   51  130 1    
   104   52   53 am   BACKBONE|DICT|INTERRES
   105   52  131 1    
   106   53   54 2    
   107   53   55 1    
   108   55   56 1    
   109   55   59 1    
   110   55  132 1    
   111   56   57 1    
   112   56  133 1    
   113   56  134 1    
   114   57   58 1    
   115   58  135 1    
   116   58  136 1    
   117   59   60 am   BACKBONE|DICT|INTERRES
   118   59  137 1    
   119   60   61 2    
   120   60   62 1    
   121   62   63 1    
   122   62   64 1    
   123   62  138 1    
   124   63  139 1    
   125   63  140 1    
   126   63  141 1    
   127   64   65 am   BACKBONE|DICT|INTERRES
   128   64  142 1    
   129   65   66 2    
   130   65   67 1    
   131   67   68 1    
   132   67   69 1    
   133   67  143 1    
   134   68  144 1    
   135   68  145 1    
   136   68  146 1    
   137   69   70 am   BACKBONE|DICT|INTERRES
   138   69  147 1    
   139   70   71 2    
   140   70   72 1    
   141   72   73 1    
   142   72   74 1    
   143   72  148 1    
   144   73  149 1    
   145   73  150 1    
   146   73  151 1    
   147   74   75 am   BACKBONE|DICT|INTERRES
   148   74  152 1    
   149   75   76 2    
   150   75   77 1    
   151   77   78 1    
   152   77   79 1    
   153   77  153 1    
   154   78  154 1    
   155   78  155 1    
   156   78  156 1    
   157   79   80 am   BACKBONE|DICT|INTERRES
   158   79  157 1    
   159   80   81 2    
@<TRIPOS>SUBSTRUCTURE
     1 UNK         1 GROUP             0       ****    0 ROOT    
