@<TRIPOS>MOLECULE
3R207
157   159    1
SMALL
USER_CHARGES


@<TRIPOS>ATOM
      1 CA        -44.7354  -30.5044    6.7370 C.3       0 UNK        -0.1975 
      2 C         -45.7915  -29.9370    5.8003 C.2       0 UNK         0.4852 
      3 O         -45.5459  -29.8177    4.5997 O.2       0 UNK        -0.5216 
      4 N         -46.9637  -29.5810    6.3426 N.am      1 UNK        -0.4461 
      5 CA        -48.1113  -29.0375    5.6010 C.3       1 UNK         0.0864 
      6 C6        -49.4117  -29.0862    6.4412 C.3       14 UNK        -0.0898 
      7 S7        -49.8089  -30.7387    7.1103 S.3       14 UNK        -0.2598 
      8 C8        -51.6332  -30.7048    7.1288 C.3       14 UNK         0.0286 
      9 C9        -52.1750  -29.6773    8.1145 C.ar      14 UNK        -0.0844 
     10 C10       -52.3918  -28.3602    7.7023 C.ar      14 UNK        -0.0881 
     11 C11       -52.8421  -27.3941    8.6035 C.ar      14 UNK        -0.0643 
     12 C12       -53.1252  -27.7619    9.9215 C.ar      14 UNK        -0.0930 
     13 C13       -52.9459  -29.0842   10.3398 C.ar      14 UNK        -0.0827 
     14 C14       -52.4607  -30.0360    9.4357 C.ar      14 UNK        -0.1249 
     15 C15       -53.2662  -29.4803   11.7714 C.3       14 UNK         0.0141 
     16 S16       -55.0125  -29.9494   11.9509 S.3       14 UNK        -0.2313 
     17 C17       -55.0448  -30.4371   13.7077 C.3       14 UNK        -0.0915 
     18 CA        -56.4335  -30.2104   14.3596 C.3       13 UNK         0.0968 
     19 C         -56.4929  -30.8523   15.7736 C.2       13 UNK         0.5732 
     20 N         -56.6996  -32.1603   15.8484 N.am      13 UNK        -0.7310 
     21 O         -56.3256  -30.1908   16.7973 O.2       13 UNK        -0.5035 
     22 N         -56.8084  -28.7884   14.3725 N.am      13 UNK        -0.4233 
     23 C         -58.0524  -28.3385   14.5954 C.2       13 UNK         0.4989 
     24 O         -59.0281  -29.0803   14.7239 O.2       13 UNK        -0.4996 
     25 CA        -58.2726  -26.8153   14.7047 C.3       12 UNK         0.0216 
     26 CB        -58.5216  -26.4153   16.1689 C.3       12 UNK        -0.1964 
     27 N         -57.1642  -26.0171   14.1805 N.am      12 UNK        -0.4276 
     28 C         -56.8496  -25.8861   12.8856 C.2       12 UNK         0.5020 
     29 O         -57.5428  -26.3271   11.9682 O.2       12 UNK        -0.5489 
     30 CA        -55.5333  -25.1548   12.5509 C.3       11 UNK         0.0294 
     31 CB        -55.8195  -23.7710   11.9454 C.3       11 UNK        -0.2019 
     32 N         -54.5914  -25.0018   13.6706 N.am      11 UNK        -0.4493 
     33 C         -54.0260  -26.0046   14.3567 C.2       11 UNK         0.4932 
     34 O         -54.3233  -27.1871   14.1935 O.2       11 UNK        -0.5029 
     35 CA        -52.9958  -25.6043   15.4232 C.3       10 UNK         0.0280 
     36 CB        -53.5812  -25.6893   16.8469 C.3       10 UNK        -0.1976 
     37 N         -51.7533  -26.3667   15.2633 N.am      10 UNK        -0.4242 
     38 C         -51.4862  -27.6430   15.5808 C.2       10 UNK         0.5072 
     39 O         -52.2312  -28.3792   16.2287 O.2       10 UNK        -0.5224 
     40 CA        -50.1433  -28.2128   15.0889 C.3       9 UNK         0.0343 
     41 CB        -50.3518  -29.0622   13.8256 C.3       9 UNK        -0.2003 
     42 N         -49.1306  -27.1888   14.8151 N.am      9 UNK        -0.4272 
     43 C         -48.4130  -26.5702   15.7632 C.2       9 UNK         0.4988 
     44 O         -48.5435  -26.7831   16.9693 O.2       9 UNK        -0.5108 
     45 CA        -47.3613  -25.5527   15.2903 C.3       8 UNK         0.0248 
     46 CB        -46.1247  -26.2729   14.7282 C.3       8 UNK        -0.2001 
     47 N         -47.8768  -24.6048   14.2998 N.am      8 UNK        -0.4140 
     48 C         -48.8006  -23.6673   14.5571 C.2       8 UNK         0.5028 
     49 O         -49.3099  -23.4899   15.6641 O.2       8 UNK        -0.5428 
     50 CA        -49.2456  -22.7816   13.3803 C.3       7 UNK         0.0264 
     51 CB        -48.2285  -21.6581   13.1238 C.3       7 UNK        -0.1988 
     52 N         -49.4702  -23.5357   12.1454 N.am      7 UNK        -0.4454 
     53 C         -50.4113  -24.4798   11.9953 C.2       7 UNK         0.5027 
     54 O         -51.2144  -24.7884   12.8735 O.2       7 UNK        -0.5083 
     55 CA        -50.4465  -25.2254   10.6473 C.3       6 UNK         0.0844 
     56 C56       -51.1883  -24.3573    9.6006 C.3       14 UNK        -0.0967 
     57 S57       -51.3840  -25.1425    7.9695 S.3       14 UNK        -0.2604 
     58 C58       -53.0051  -25.9582    8.1339 C.3       14 UNK         0.0134 
     59 N         -49.1047  -25.6555   10.2326 N.am      6 UNK        -0.4116 
     60 C         -48.3082  -26.4574   10.9601 C.2       5 UNK         0.5034 
     61 O         -48.6433  -26.9886   12.0179 O.2       5 UNK        -0.5045 
     62 CA        -46.8631  -26.6391   10.4774 C.3       5 UNK         0.0224 
     63 CB        -46.7644  -27.7380    9.4068 C.3       5 UNK        -0.1978 
     64 N         -46.3042  -25.3786    9.9840 N.am      5 UNK        -0.4737 
     65 C         -45.9703  -24.3501   10.7783 C.2       4 UNK         0.5027 
     66 O         -46.0446  -24.3877   12.0057 O.2       4 UNK        -0.5211 
     67 CA        -45.5163  -23.0492   10.0929 C.3       4 UNK         0.0297 
     68 CB        -44.0062  -23.0890    9.8120 C.3       4 UNK        -0.1993 
     69 N         -46.2396  -22.7788    8.8485 N.am      4 UNK        -0.4486 
     70 C         -47.5518  -22.5131    8.7743 C.2       3 UNK         0.4961 
     71 O         -48.2786  -22.3857    9.7594 O.2       3 UNK        -0.5105 
     72 CA        -48.1667  -22.4376    7.3625 C.3       3 UNK         0.0299 
     73 CB        -48.1154  -20.9972    6.8302 C.3       3 UNK        -0.1972 
     74 N         -47.5387  -23.3467    6.3919 N.am      3 UNK        -0.4305 
     75 C         -47.4662  -24.6771    6.5398 C.2       2 UNK         0.5006 
     76 O         -47.9280  -25.2735    7.5147 O.2       2 UNK        -0.5106 
     77 CA        -46.6772  -25.4544    5.4735 C.3       2 UNK         0.0296 
     78 CB        -45.1702  -25.1731    5.6104 C.3       2 UNK        -0.2002 
     79 N         -46.8941  -26.8913    5.6412 N.am      2 UNK        -0.4032 
     80 C         -47.8903  -27.5941    5.0870 C.2       1 UNK         0.5000 
     81 O         -48.6422  -27.1419    4.2208 O.2       1 UNK        -0.5238 
     82 H82       -43.8359  -29.8902    6.7045 H         1 UNK         0.0889 
     83 H83       -44.4687  -31.5159    6.4319 H         1 UNK         0.0889 
     84 H84       -45.0828  -30.5424    7.7694 H         1 UNK         0.0889 
     85 H85       -47.1274  -29.7476    7.3252 H         1 UNK         0.3028 
     86 H86       -48.2578  -29.6650    4.7191 H         1 UNK         0.0864 
     87 H87       -50.2444  -28.7645    5.8147 H         1 UNK         0.0720 
     88 H88       -49.3660  -28.3844    7.2770 H         1 UNK         0.0720 
     89 H89       -52.0001  -31.6981    7.3915 H         1 UNK         0.0814 
     90 H90       -52.0065  -30.5019    6.1238 H         1 UNK         0.0814 
     91 H91       -52.1863  -28.0707    6.6818 H         1 UNK         0.1469 
     92 H92       -53.4801  -27.0217   10.6239 H         1 UNK         0.1381 
     93 H93       -52.3059  -31.0560    9.7604 H         1 UNK         0.1206 
     94 H94       -53.0433  -28.6525   12.4448 H         1 UNK         0.0813 
     95 H95       -52.6347  -30.3141   12.0810 H         1 UNK         0.0813 
     96 H96       -54.7616  -31.4901   13.7552 H         1 UNK         0.0638 
     97 H97       -54.2760  -29.8892   14.2564 H         1 UNK         0.0638 
     98 H98       -57.1733  -30.7291   13.7464 H         1 UNK         0.0568 
     99 H99       -56.7307  -32.5993   16.7553 H         1 UNK         0.3450 
    100 H100      -56.8305  -32.7167   15.0180 H         1 UNK         0.3450 
    101 H101      -56.0376  -28.1320   14.2920 H         1 UNK         0.2987 
    102 H102      -59.1675  -26.5748   14.1268 H         1 UNK         0.0766 
    103 H103      -57.6574  -26.6316   16.7988 H         1 UNK         0.0798 
    104 H104      -59.3704  -26.9608   16.5839 H         1 UNK         0.0798 
    105 H105      -58.7478  -25.3526   16.2588 H         1 UNK         0.0798 
    106 H106      -56.5295  -25.6191   14.8568 H         1 UNK         0.3198 
    107 H107      -55.0332  -25.7580   11.7918 H         1 UNK         0.0843 
    108 H108      -54.9047  -23.2931   11.5940 H         1 UNK         0.0831 
    109 H109      -56.2936  -23.1051   12.6674 H         1 UNK         0.0831 
    110 H110      -56.4890  -23.8501   11.0875 H         1 UNK         0.0831 
    111 H111      -54.2954  -24.0581   13.8770 H         1 UNK         0.3133 
    112 H112      -52.7122  -24.5649   15.2498 H         1 UNK         0.0566 
    113 H113      -54.3894  -24.9688   16.9760 H         1 UNK         0.0814 
    114 H114      -53.9954  -26.6750   17.0617 H         1 UNK         0.0814 
    115 H115      -52.8256  -25.4694   17.6011 H         1 UNK         0.0814 
    116 H116      -51.0776  -25.9014   14.6678 H         1 UNK         0.3091 
    117 H117      -49.7633  -28.8709   15.8734 H         1 UNK         0.0702 
    118 H118      -49.4241  -29.5411   13.5119 H         1 UNK         0.0785 
    119 H119      -50.7120  -28.4577   12.9925 H         1 UNK         0.0785 
    120 H120      -51.0823  -29.8525   14.0028 H         1 UNK         0.0785 
    121 H121      -48.9423  -26.9868   13.8342 H         1 UNK         0.2998 
    122 H122      -47.0443  -24.9774   16.1628 H         1 UNK         0.0697 
    123 H123      -45.3346  -25.5651   14.4767 H         1 UNK         0.0825 
    124 H124      -45.7135  -26.9718   15.4578 H         1 UNK         0.0825 
    125 H125      -46.3620  -26.8412   13.8285 H         1 UNK         0.0825 
    126 H126      -47.4576  -24.6382   13.3746 H         1 UNK         0.3029 
    127 H127      -50.1956  -22.3202   13.6590 H         1 UNK         0.0897 
    128 H128      -48.5720  -20.9841   12.3387 H         1 UNK         0.0792 
    129 H129      -48.0746  -21.0588   14.0221 H         1 UNK         0.0792 
    130 H130      -47.2573  -22.0517   12.8236 H         1 UNK         0.0792 
    131 H131      -48.8903  -23.2908   11.3461 H         1 UNK         0.3086 
    132 H132      -51.0275  -26.1354   10.8032 H         1 UNK         0.0583 
    133 H133      -52.1746  -24.0733    9.9729 H         1 UNK         0.1020 
    134 H134      -50.6597  -23.4166    9.4428 H         1 UNK         0.1020 
    135 H135      -53.6583  -25.3964    8.8028 H         1 UNK         0.0694 
    136 H136      -53.4967  -25.9544    7.1599 H         1 UNK         0.0694 
    137 H137      -48.7648  -25.3093    9.3405 H         1 UNK         0.2989 
    138 H138      -46.2658  -26.9576   11.3347 H         1 UNK         0.1055 
    139 H139      -47.4091  -27.5355    8.5535 H         1 UNK         0.0806 
    140 H140      -47.0722  -28.7003    9.8181 H         1 UNK         0.0806 
    141 H141      -45.7426  -27.8513    9.0447 H         1 UNK         0.0806 
    142 H142      -46.3205  -25.2377    8.9831 H         1 UNK         0.3061 
    143 H143      -45.7145  -22.2255   10.7821 H         1 UNK         0.0734 
    144 H144      -43.6534  -22.1434    9.4000 H         1 UNK         0.0832 
    145 H145      -43.4452  -23.2691   10.7303 H         1 UNK         0.0832 
    146 H146      -43.7440  -23.8817    9.1101 H         1 UNK         0.0832 
    147 H147      -45.7177  -22.8527    7.9879 H         1 UNK         0.3156 
    148 H148      -49.2150  -22.7304    7.4494 H         1 UNK         0.0589 
    149 H149      -47.0901  -20.6538    6.6870 H         1 UNK         0.0808 
    150 H150      -48.6375  -20.9068    5.8774 H         1 UNK         0.0808 
    151 H151      -48.5957  -20.3078    7.5262 H         1 UNK         0.0808 
    152 H152      -47.1312  -22.9238    5.5699 H         1 UNK         0.3098 
    153 H153      -47.0144  -25.1384    4.4841 H         1 UNK         0.0720 
    154 H154      -44.9444  -24.1201    5.4378 H         1 UNK         0.0791 
    155 H155      -44.7964  -25.4299    6.6027 H         1 UNK         0.0791 
    156 H156      -44.5957  -25.7451    4.8812 H         1 UNK         0.0791 
    157 H157      -46.3539  -27.3434    6.3625 H         1 UNK         0.3028 
@<TRIPOS>BOND
     1    1    2 1    
     2    1   82 1    
     3    1   83 1    
     4    1   84 1    
     5    2    3 2    
     6    2    4 am   BACKBONE|DICT|INTERRES
     7    4    5 1    
     8    4   85 1    
     9    5    6 1    
    10    5   80 1    
    11    5   86 1    
    12    6    7 1    
    13    6   87 1    
    14    6   88 1    
    15    7    8 1    
    16    8    9 1    
    17    8   89 1    
    18    8   90 1    
    19    9   10 ar   
    20    9   14 ar   
    21   10   11 ar   
    22   10   91 1    
    23   11   12 ar   
    24   11   58 1    
    25   12   13 ar   
    26   12   92 1    
    27   13   14 ar   
    28   13   15 1    
    29   14   93 1    
    30   15   16 1    
    31   15   94 1    
    32   15   95 1    
    33   16   17 1    
    34   17   18 1    
    35   17   96 1    
    36   17   97 1    
    37   18   19 1    
    38   18   22 1    
    39   18   98 1    
    40   19   20 am   BACKBONE|DICT|INTERRES
    41   19   21 2    
    42   20   99 1    
    43   20  100 1    
    44   22   23 am   BACKBONE|DICT|INTERRES
    45   22  101 1    
    46   23   24 2    
    47   23   25 1    
    48   25   26 1    
    49   25   27 1    
    50   25  102 1    
    51   26  103 1    
    52   26  104 1    
    53   26  105 1    
    54   27   28 am   BACKBONE|DICT|INTERRES
    55   27  106 1    
    56   28   29 2    
    57   28   30 1    
    58   30   31 1    
    59   30   32 1    
    60   30  107 1    
    61   31  108 1    
    62   31  109 1    
    63   31  110 1    
    64   32   33 am   BACKBONE|DICT|INTERRES
    65   32  111 1    
    66   33   34 2    
    67   33   35 1    
    68   35   36 1    
    69   35   37 1    
    70   35  112 1    
    71   36  113 1    
    72   36  114 1    
    73   36  115 1    
    74   37   38 am   BACKBONE|DICT|INTERRES
    75   37  116 1    
    76   38   39 2    
    77   38   40 1    
    78   40   41 1    
    79   40   42 1    
    80   40  117 1    
    81   41  118 1    
    82   41  119 1    
    83   41  120 1    
    84   42   43 am   BACKBONE|DICT|INTERRES
    85   42  121 1    
    86   43   44 2    
    87   43   45 1    
    88   45   46 1    
    89   45   47 1    
    90   45  122 1    
    91   46  123 1    
    92   46  124 1    
    93   46  125 1    
    94   47   48 am   BACKBONE|DICT|INTERRES
    95   47  126 1    
    96   48   49 2    
    97   48   50 1    
    98   50   51 1    
    99   50   52 1    
   100   50  127 1    
   101   51  128 1    
   102   51  129 1    
   103   51  130 1    
   104   52   53 am   BACKBONE|DICT|INTERRES
   105   52  131 1    
   106   53   54 2    
   107   53   55 1    
   108   55   56 1    
   109   55   59 1    
   110   55  132 1    
   111   56   57 1    
   112   56  133 1    
   113   56  134 1    
   114   57   58 1    
   115   58  135 1    
   116   58  136 1    
   117   59   60 am   BACKBONE|DICT|INTERRES
   118   59  137 1    
   119   60   61 2    
   120   60   62 1    
   121   62   63 1    
   122   62   64 1    
   123   62  138 1    
   124   63  139 1    
   125   63  140 1    
   126   63  141 1    
   127   64   65 am   BACKBONE|DICT|INTERRES
   128   64  142 1    
   129   65   66 2    
   130   65   67 1    
   131   67   68 1    
   132   67   69 1    
   133   67  143 1    
   134   68  144 1    
   135   68  145 1    
   136   68  146 1    
   137   69   70 am   BACKBONE|DICT|INTERRES
   138   69  147 1    
   139   70   71 2    
   140   70   72 1    
   141   72   73 1    
   142   72   74 1    
   143   72  148 1    
   144   73  149 1    
   145   73  150 1    
   146   73  151 1    
   147   74   75 am   BACKBONE|DICT|INTERRES
   148   74  152 1    
   149   75   76 2    
   150   75   77 1    
   151   77   78 1    
   152   77   79 1    
   153   77  153 1    
   154   78  154 1    
   155   78  155 1    
   156   78  156 1    
   157   79   80 am   BACKBONE|DICT|INTERRES
   158   79  157 1    
   159   80   81 2    
@<TRIPOS>SUBSTRUCTURE
     1 UNK         1 GROUP             0       ****    0 ROOT    
