@<TRIPOS>MOLECULE
3R207
157   159    1
SMALL
USER_CHARGES


@<TRIPOS>ATOM
      1 CA        -45.7762  -29.5094    0.9460 C.3       0 UNK        -0.1975 
      2 C         -46.9447  -28.9718    1.7591 C.2       0 UNK         0.4852 
      3 O         -47.9175  -28.4828    1.1828 O.2       0 UNK        -0.5216 
      4 N         -46.8611  -29.0647    3.0927 N.am      1 UNK        -0.4461 
      5 CA        -47.8565  -28.5416    4.0301 C.3       1 UNK         0.0864 
      6 C6        -47.6743  -29.1656    5.4361 C.3       14 UNK        -0.0898 
      7 S7        -48.9641  -28.6664    6.6299 S.3       14 UNK        -0.2598 
      8 C8        -49.6943  -30.2641    7.0957 C.3       14 UNK         0.0286 
      9 C9        -50.4389  -30.1372    8.4142 C.ar      14 UNK        -0.0844 
     10 C10       -49.7647  -30.3628    9.6177 C.ar      14 UNK        -0.0881 
     11 C11       -50.4183  -30.2299   10.8460 C.ar      14 UNK        -0.0643 
     12 C12       -51.7707  -29.8571   10.8503 C.ar      14 UNK        -0.0930 
     13 C13       -52.4563  -29.6179    9.6550 C.ar      14 UNK        -0.0827 
     14 C14       -51.7872  -29.7715    8.4375 C.ar      14 UNK        -0.1249 
     15 C15       -53.9116  -29.1703    9.6817 C.3       14 UNK         0.0141 
     16 S16       -54.0521  -27.3993    9.2883 S.3       14 UNK        -0.2313 
     17 C17       -55.7791  -27.0354    9.7403 C.3       14 UNK        -0.0915 
     18 CA        -55.8877  -26.0641   10.9561 C.3       13 UNK         0.0968 
     19 C         -57.3332  -25.5145   11.1678 C.2       13 UNK         0.5732 
     20 N         -57.7766  -25.2489   12.3926 N.am      13 UNK        -0.7310 
     21 O         -58.0614  -25.2887   10.2038 O.2       13 UNK        -0.5035 
     22 N         -55.2587  -26.5748   12.1864 N.am      13 UNK        -0.4233 
     23 C         -55.6368  -27.6675   12.8659 C.2       13 UNK         0.4989 
     24 O         -56.4805  -28.4710   12.4676 O.2       13 UNK        -0.4996 
     25 CA        -54.9997  -27.9004   14.2475 C.3       12 UNK         0.0216 
     26 CB        -53.9238  -28.9926   14.1826 C.3       12 UNK        -0.1964 
     27 N         -54.4398  -26.6992   14.8746 N.am      12 UNK        -0.4276 
     28 C         -55.1616  -25.6389   15.2712 C.2       12 UNK         0.5020 
     29 O         -56.3676  -25.5205   15.0413 O.2       12 UNK        -0.5489 
     30 CA        -54.4201  -24.5290   16.0465 C.3       11 UNK         0.0294 
     31 CB        -55.3581  -23.7211   16.9674 C.3       11 UNK        -0.2019 
     32 N         -53.2530  -25.0115   16.7954 N.am      11 UNK        -0.4493 
     33 C         -53.2159  -25.9590   17.7485 C.2       11 UNK         0.4932 
     34 O         -54.2160  -26.5200   18.1967 O.2       11 UNK        -0.5029 
     35 CA        -51.8292  -26.3776   18.2724 C.3       10 UNK         0.0280 
     36 CB        -51.6455  -27.9047   18.1918 C.3       10 UNK        -0.1976 
     37 N         -50.7557  -25.7322   17.5117 N.am      10 UNK        -0.4242 
     38 C         -49.9238  -24.8018   17.9962 C.2       10 UNK         0.5072 
     39 O         -49.9007  -24.4445   19.1747 O.2       10 UNK        -0.5224 
     40 CA        -48.9621  -24.1345   16.9980 C.3       9 UNK         0.0343 
     41 CB        -47.6281  -24.8963   16.9415 C.3       9 UNK        -0.2003 
     42 N         -49.4990  -23.9739   15.6404 N.am      9 UNK        -0.4272 
     43 C         -50.5471  -23.1970   15.3206 C.2       9 UNK         0.4988 
     44 O         -51.2685  -22.6503   16.1537 O.2       9 UNK        -0.5108 
     45 CA        -50.8577  -23.0010   13.8309 C.3       8 UNK         0.0248 
     46 CB        -49.8537  -22.0264   13.1937 C.3       8 UNK        -0.2001 
     47 N         -50.8137  -24.2719   13.1177 N.am      8 UNK        -0.4140 
     48 C         -51.8838  -24.9604   12.6997 C.2       8 UNK         0.5028 
     49 O         -53.0536  -24.5916   12.8147 O.2       8 UNK        -0.5428 
     50 CA        -51.5907  -26.3320   12.0762 C.3       7 UNK         0.0264 
     51 CB        -51.1282  -26.1407   10.6293 C.3       7 UNK        -0.1988 
     52 N         -50.5676  -27.0946   12.7901 N.am      7 UNK        -0.4454 
     53 C         -50.5174  -27.3288   14.1107 C.2       7 UNK         0.5027 
     54 O         -51.3729  -26.9500   14.9145 O.2       7 UNK        -0.5083 
     55 CA        -49.2639  -28.0617   14.6359 C.3       6 UNK         0.0844 
     56 C56       -49.4769  -29.5917   14.8544 C.3       14 UNK        -0.0967 
     57 S57       -50.5613  -30.4882   13.6786 S.3       14 UNK        -0.2604 
     58 C58       -49.6023  -30.4601   12.1226 C.3       14 UNK         0.0134 
     59 N         -48.0372  -27.7895   13.8723 N.am      6 UNK        -0.4116 
     60 C         -47.5349  -26.5987   13.5061 C.2       5 UNK         0.5034 
     61 O         -48.0880  -25.5161   13.7180 O.2       5 UNK        -0.5045 
     62 CA        -46.1788  -26.6144   12.7723 C.3       5 UNK         0.0224 
     63 CB        -45.4657  -27.9868   12.7969 C.3       5 UNK        -0.1978 
     64 N         -46.2620  -26.1296   11.3886 N.am      5 UNK        -0.4737 
     65 C         -47.0885  -26.5580   10.4237 C.2       4 UNK         0.5027 
     66 O         -47.9897  -27.3822   10.5948 O.2       4 UNK        -0.5211 
     67 CA        -46.7943  -26.0254    9.0118 C.3       4 UNK         0.0297 
     68 CB        -45.8641  -26.9968    8.2674 C.3       4 UNK        -0.1993 
     69 N         -48.0231  -25.8677    8.2384 N.am      4 UNK        -0.4486 
     70 C         -48.8194  -24.7953    8.2948 C.2       3 UNK         0.4961 
     71 O         -48.5668  -23.7888    8.9601 O.2       3 UNK        -0.5105 
     72 CA        -50.1173  -24.8793    7.4685 C.3       3 UNK         0.0299 
     73 CB        -51.0353  -23.6524    7.6582 C.3       3 UNK        -0.1972 
     74 N         -49.8701  -25.1324    6.0444 N.am      3 UNK        -0.4305 
     75 C         -49.1722  -24.3743    5.1829 C.2       2 UNK         0.5006 
     76 O         -48.6138  -23.3169    5.4806 O.2       2 UNK        -0.5106 
     77 CA        -49.1162  -24.8947    3.7316 C.3       2 UNK         0.0296 
     78 CB        -48.1248  -24.1175    2.8372 C.3       2 UNK        -0.2002 
     79 N         -48.8794  -26.3432    3.6668 N.am      2 UNK        -0.4032 
     80 C         -47.7801  -27.0008    4.0668 C.2       1 UNK         0.5000 
     81 O         -46.7483  -26.4592    4.4717 O.2       1 UNK        -0.5238 
     82 H82       -46.1174  -30.2964    0.2740 H         1 UNK         0.0889 
     83 H83       -44.9926  -29.9221    1.5811 H         1 UNK         0.0889 
     84 H84       -45.3403  -28.7123    0.3443 H         1 UNK         0.0889 
     85 H85       -46.0248  -29.4474    3.5105 H         1 UNK         0.3028 
     86 H86       -48.8426  -28.8384    3.6651 H         1 UNK         0.0864 
     87 H87       -46.7022  -28.8964    5.8533 H         1 UNK         0.0720 
     88 H88       -47.6684  -30.2531    5.3505 H         1 UNK         0.0720 
     89 H89       -48.9124  -31.0194    7.1891 H         1 UNK         0.0814 
     90 H90       -50.3650  -30.6050    6.3056 H         1 UNK         0.0814 
     91 H91       -48.7156  -30.6254    9.5983 H         1 UNK         0.1469 
     92 H92       -52.2988  -29.7307   11.7809 H         1 UNK         0.1381 
     93 H93       -52.3094  -29.5782    7.5103 H         1 UNK         0.1206 
     94 H94       -54.3515  -29.3614   10.6614 H         1 UNK         0.0813 
     95 H95       -54.4916  -29.7492    8.9617 H         1 UNK         0.0813 
     96 H96       -56.2388  -26.5897    8.8567 H         1 UNK         0.0638 
     97 H97       -56.3249  -27.9619    9.9212 H         1 UNK         0.0638 
     98 H98       -55.3083  -25.1763   10.7007 H         1 UNK         0.0568 
     99 H99       -58.7083  -24.8831   12.5047 H         1 UNK         0.3450 
    100 H100      -57.2000  -25.4102   13.2121 H         1 UNK         0.3450 
    101 H101      -54.5715  -25.9552   12.6028 H         1 UNK         0.2987 
    102 H102      -55.7970  -28.2596   14.9017 H         1 UNK         0.0766 
    103 H103      -53.0754  -28.6752   13.5817 H         1 UNK         0.0798 
    104 H104      -53.5512  -29.2451   15.1756 H         1 UNK         0.0798 
    105 H105      -54.3155  -29.9092   13.7395 H         1 UNK         0.0798 
    106 H106      -53.4425  -26.7053   15.0642 H         1 UNK         0.3198 
    107 H107      -54.0322  -23.8447   15.2903 H         1 UNK         0.0843 
    108 H108      -56.1536  -23.2429   16.3946 H         1 UNK         0.0831 
    109 H109      -54.8177  -22.9313   17.4890 H         1 UNK         0.0831 
    110 H110      -55.8335  -24.3555   17.7161 H         1 UNK         0.0831 
    111 H111      -52.3786  -24.5651   16.5513 H         1 UNK         0.3133 
    112 H112      -51.7867  -26.0862   19.3235 H         1 UNK         0.0566 
    113 H113      -50.6565  -28.2044   18.5386 H         1 UNK         0.0814 
    114 H114      -52.3756  -28.4196   18.8175 H         1 UNK         0.0814 
    115 H115      -51.7723  -28.2772   17.1751 H         1 UNK         0.0814 
    116 H116      -50.7186  -25.9709   16.5258 H         1 UNK         0.3091 
    117 H117      -48.7548  -23.1317   17.3778 H         1 UNK         0.0702 
    118 H118      -46.9114  -24.3948   16.2908 H         1 UNK         0.0785 
    119 H119      -47.7565  -25.9147   16.5768 H         1 UNK         0.0785 
    120 H120      -47.1748  -24.9613   17.9316 H         1 UNK         0.0785 
    121 H121      -48.9651  -24.4167   14.8959 H         1 UNK         0.2998 
    122 H122      -51.8536  -22.5594   13.7514 H         1 UNK         0.0697 
    123 H123      -48.8332  -22.4107   13.2289 H         1 UNK         0.0825 
    124 H124      -49.8602  -21.0654   13.7100 H         1 UNK         0.0825 
    125 H125      -50.1003  -21.8345   12.1492 H         1 UNK         0.0825 
    126 H126      -49.9015  -24.7023   13.0128 H         1 UNK         0.3029 
    127 H127      -52.5084  -26.9193   12.0759 H         1 UNK         0.0897 
    128 H128      -50.1863  -25.5957   10.5934 H         1 UNK         0.0792 
    129 H129      -51.8601  -25.5715   10.0557 H         1 UNK         0.0792 
    130 H130      -50.9810  -27.0944   10.1220 H         1 UNK         0.0792 
    131 H131      -49.8024  -27.4379   12.2221 H         1 UNK         0.3086 
    132 H132      -49.0718  -27.6335   15.6209 H         1 UNK         0.0583 
    133 H133      -48.5219  -30.1150   14.9232 H         1 UNK         0.1020 
    134 H134      -49.9345  -29.7303   15.8356 H         1 UNK         0.1020 
    135 H135      -48.8407  -29.6837   12.1690 H         1 UNK         0.0694 
    136 H136      -49.0675  -31.4074   12.0409 H         1 UNK         0.0694 
    137 H137      -47.4953  -28.6013   13.6179 H         1 UNK         0.2989 
    138 H138      -45.5473  -25.9067   13.3122 H         1 UNK         0.1055 
    139 H139      -45.3322  -28.3508   13.8168 H         1 UNK         0.0806 
    140 H140      -44.4697  -27.9127   12.3596 H         1 UNK         0.0806 
    141 H141      -46.0094  -28.7466   12.2334 H         1 UNK         0.0806 
    142 H142      -45.5811  -25.4242   11.1422 H         1 UNK         0.3061 
    143 H143      -46.2941  -25.0572    9.0873 H         1 UNK         0.0734 
    144 H144      -45.6626  -26.6558    7.2513 H         1 UNK         0.0832 
    145 H145      -44.9041  -27.0870    8.7771 H         1 UNK         0.0832 
    146 H146      -46.2942  -27.9975    8.2064 H         1 UNK         0.0832 
    147 H147      -48.3318  -26.6799    7.7195 H         1 UNK         0.3156 
    148 H148      -50.6596  -25.7516    7.8359 H         1 UNK         0.0589 
    149 H149      -51.2817  -23.5080    8.7108 H         1 UNK         0.0808 
    150 H150      -50.5635  -22.7336    7.3085 H         1 UNK         0.0808 
    151 H151      -51.9752  -23.7736    7.1199 H         1 UNK         0.0808 
    152 H152      -50.2642  -25.9920    5.6888 H         1 UNK         0.3098 
    153 H153      -50.1134  -24.7336    3.3192 H         1 UNK         0.0720 
    154 H154      -48.1142  -24.5119    1.8210 H         1 UNK         0.0791 
    155 H155      -47.1062  -24.1588    3.2240 H         1 UNK         0.0791 
    156 H156      -48.4023  -23.0647    2.7730 H         1 UNK         0.0791 
    157 H157      -49.6546  -26.8918    3.3197 H         1 UNK         0.3028 
@<TRIPOS>BOND
     1    1    2 1    
     2    1   82 1    
     3    1   83 1    
     4    1   84 1    
     5    2    3 2    
     6    2    4 am   BACKBONE|DICT|INTERRES
     7    4    5 1    
     8    4   85 1    
     9    5    6 1    
    10    5   80 1    
    11    5   86 1    
    12    6    7 1    
    13    6   87 1    
    14    6   88 1    
    15    7    8 1    
    16    8    9 1    
    17    8   89 1    
    18    8   90 1    
    19    9   10 ar   
    20    9   14 ar   
    21   10   11 ar   
    22   10   91 1    
    23   11   12 ar   
    24   11   58 1    
    25   12   13 ar   
    26   12   92 1    
    27   13   14 ar   
    28   13   15 1    
    29   14   93 1    
    30   15   16 1    
    31   15   94 1    
    32   15   95 1    
    33   16   17 1    
    34   17   18 1    
    35   17   96 1    
    36   17   97 1    
    37   18   19 1    
    38   18   22 1    
    39   18   98 1    
    40   19   20 am   BACKBONE|DICT|INTERRES
    41   19   21 2    
    42   20   99 1    
    43   20  100 1    
    44   22   23 am   BACKBONE|DICT|INTERRES
    45   22  101 1    
    46   23   24 2    
    47   23   25 1    
    48   25   26 1    
    49   25   27 1    
    50   25  102 1    
    51   26  103 1    
    52   26  104 1    
    53   26  105 1    
    54   27   28 am   BACKBONE|DICT|INTERRES
    55   27  106 1    
    56   28   29 2    
    57   28   30 1    
    58   30   31 1    
    59   30   32 1    
    60   30  107 1    
    61   31  108 1    
    62   31  109 1    
    63   31  110 1    
    64   32   33 am   BACKBONE|DICT|INTERRES
    65   32  111 1    
    66   33   34 2    
    67   33   35 1    
    68   35   36 1    
    69   35   37 1    
    70   35  112 1    
    71   36  113 1    
    72   36  114 1    
    73   36  115 1    
    74   37   38 am   BACKBONE|DICT|INTERRES
    75   37  116 1    
    76   38   39 2    
    77   38   40 1    
    78   40   41 1    
    79   40   42 1    
    80   40  117 1    
    81   41  118 1    
    82   41  119 1    
    83   41  120 1    
    84   42   43 am   BACKBONE|DICT|INTERRES
    85   42  121 1    
    86   43   44 2    
    87   43   45 1    
    88   45   46 1    
    89   45   47 1    
    90   45  122 1    
    91   46  123 1    
    92   46  124 1    
    93   46  125 1    
    94   47   48 am   BACKBONE|DICT|INTERRES
    95   47  126 1    
    96   48   49 2    
    97   48   50 1    
    98   50   51 1    
    99   50   52 1    
   100   50  127 1    
   101   51  128 1    
   102   51  129 1    
   103   51  130 1    
   104   52   53 am   BACKBONE|DICT|INTERRES
   105   52  131 1    
   106   53   54 2    
   107   53   55 1    
   108   55   56 1    
   109   55   59 1    
   110   55  132 1    
   111   56   57 1    
   112   56  133 1    
   113   56  134 1    
   114   57   58 1    
   115   58  135 1    
   116   58  136 1    
   117   59   60 am   BACKBONE|DICT|INTERRES
   118   59  137 1    
   119   60   61 2    
   120   60   62 1    
   121   62   63 1    
   122   62   64 1    
   123   62  138 1    
   124   63  139 1    
   125   63  140 1    
   126   63  141 1    
   127   64   65 am   BACKBONE|DICT|INTERRES
   128   64  142 1    
   129   65   66 2    
   130   65   67 1    
   131   67   68 1    
   132   67   69 1    
   133   67  143 1    
   134   68  144 1    
   135   68  145 1    
   136   68  146 1    
   137   69   70 am   BACKBONE|DICT|INTERRES
   138   69  147 1    
   139   70   71 2    
   140   70   72 1    
   141   72   73 1    
   142   72   74 1    
   143   72  148 1    
   144   73  149 1    
   145   73  150 1    
   146   73  151 1    
   147   74   75 am   BACKBONE|DICT|INTERRES
   148   74  152 1    
   149   75   76 2    
   150   75   77 1    
   151   77   78 1    
   152   77   79 1    
   153   77  153 1    
   154   78  154 1    
   155   78  155 1    
   156   78  156 1    
   157   79   80 am   BACKBONE|DICT|INTERRES
   158   79  157 1    
   159   80   81 2    
@<TRIPOS>SUBSTRUCTURE
     1 UNK         1 GROUP             0       ****    0 ROOT    
