@<TRIPOS>MOLECULE
3R207
157   159    1
SMALL
USER_CHARGES


@<TRIPOS>ATOM
      1 CA        -44.6553  -32.3454    6.4605 C.3       0 UNK        -0.1975 
      2 C         -45.8166  -31.3622    6.4477 C.2       0 UNK         0.4852 
      3 O         -45.9083  -30.5352    5.5392 O.2       0 UNK        -0.5216 
      4 N         -46.7080  -31.4494    7.4436 N.am      1 UNK        -0.4461 
      5 CA        -47.8426  -30.5427    7.6293 C.3       1 UNK         0.0864 
      6 C6        -48.8786  -31.1467    8.6199 C.3       14 UNK        -0.0898 
      7 S7        -50.2466  -30.0285    9.0946 S.3       14 UNK        -0.2598 
      8 C8        -51.5223  -30.4632    7.8775 C.3       14 UNK         0.0286 
      9 C9        -52.6299  -29.4215    7.8775 C.ar      14 UNK        -0.0844 
     10 C10       -52.5844  -28.3484    6.9810 C.ar      14 UNK        -0.0881 
     11 C11       -53.5888  -27.3767    6.9894 C.ar      14 UNK        -0.0643 
     12 C12       -54.6499  -27.4934    7.8920 C.ar      14 UNK        -0.0930 
     13 C13       -54.6919  -28.5430    8.8125 C.ar      14 UNK        -0.0827 
     14 C14       -53.6868  -29.5148    8.7895 C.ar      14 UNK        -0.1249 
     15 C15       -55.8189  -28.6064    9.8338 C.3       14 UNK         0.0141 
     16 S16       -55.6801  -27.2618   11.0577 S.3       14 UNK        -0.2313 
     17 C17       -57.2473  -27.4510   11.9746 C.3       14 UNK        -0.0915 
     18 CA        -57.0921  -27.8538   13.4677 C.3       13 UNK         0.0968 
     19 C         -56.5873  -29.3064   13.7023 C.2       13 UNK         0.5732 
     20 N         -55.8690  -29.5892   14.7842 N.am      13 UNK        -0.7310 
     21 O         -56.8803  -30.2048   12.9170 O.2       13 UNK        -0.5035 
     22 N         -56.3393  -26.8550   14.2405 N.am      13 UNK        -0.4233 
     23 C         -56.8700  -25.9944   15.1173 C.2       13 UNK         0.4989 
     24 O         -58.0838  -25.8661   15.2912 O.2       13 UNK        -0.4996 
     25 CA        -55.8956  -25.1282   15.9483 C.3       12 UNK         0.0216 
     26 CB        -56.4925  -24.7132   17.3099 C.3       12 UNK        -0.1964 
     27 N         -54.5640  -25.7168   16.1420 N.am      12 UNK        -0.4276 
     28 C         -54.2628  -26.9079   16.6786 C.2       12 UNK         0.5020 
     29 O         -55.0937  -27.7232   17.0864 O.2       12 UNK        -0.5489 
     30 CA        -52.7676  -27.2739   16.6934 C.3       11 UNK         0.0294 
     31 CB        -52.3666  -27.9074   18.0370 C.3       11 UNK        -0.2019 
     32 N         -52.3600  -28.1716   15.6051 N.am      11 UNK        -0.4493 
     33 C         -52.7231  -28.1182   14.3149 C.2       11 UNK         0.4932 
     34 O         -53.5428  -27.3309   13.8439 O.2       11 UNK        -0.5029 
     35 CA        -51.9717  -29.0660   13.3798 C.3       10 UNK         0.0280 
     36 CB        -52.8116  -29.4835   12.1630 C.3       10 UNK        -0.1976 
     37 N         -50.7996  -28.3337   12.9223 N.am      10 UNK        -0.4242 
     38 C         -49.5695  -28.4722   13.4280 C.2       10 UNK         0.5072 
     39 O         -49.2550  -29.3300   14.2549 O.2       10 UNK        -0.5224 
     40 CA        -48.5203  -27.4582   12.9516 C.3       9 UNK         0.0343 
     41 CB        -48.1787  -27.6881   11.4753 C.3       9 UNK        -0.2003 
     42 N         -48.9533  -26.0739   13.1414 N.am      9 UNK        -0.4272 
     43 C         -49.1368  -25.4848   14.3326 C.2       9 UNK         0.4988 
     44 O         -48.9376  -26.0368   15.4150 O.2       9 UNK        -0.5108 
     45 CA        -49.6324  -24.0321   14.3142 C.3       8 UNK         0.0248 
     46 CB        -48.5016  -23.0664   13.9186 C.3       8 UNK        -0.2001 
     47 N         -50.7659  -23.8858   13.4018 N.am      8 UNK        -0.4140 
     48 C         -52.0397  -24.1378   13.7361 C.2       8 UNK         0.5028 
     49 O         -52.4092  -24.3847   14.8854 O.2       8 UNK        -0.5428 
     50 CA        -53.0989  -24.0842   12.6187 C.3       7 UNK         0.0264 
     51 CB        -54.0086  -22.8576   12.7971 C.3       7 UNK        -0.1988 
     52 N         -52.5505  -24.0729   11.2600 N.am      7 UNK        -0.4454 
     53 C         -51.9584  -25.1170   10.6617 C.2       7 UNK         0.5027 
     54 O         -51.7333  -26.1946   11.2120 O.2       7 UNK        -0.5083 
     55 CA        -51.4767  -24.8783    9.2164 C.3       6 UNK         0.0844 
     56 C56       -52.6798  -24.6101    8.2738 C.3       14 UNK        -0.0967 
     57 S57       -52.2603  -24.9600    6.5323 S.3       14 UNK        -0.2604 
     58 C58       -53.5236  -26.1848    6.0433 C.3       14 UNK         0.0134 
     59 N         -50.4948  -23.7876    9.1341 N.am      6 UNK        -0.4116 
     60 C         -49.3862  -23.6486    9.8738 C.2       5 UNK         0.5034 
     61 O         -49.0120  -24.4579   10.7250 O.2       5 UNK        -0.5045 
     62 CA        -48.6073  -22.3441    9.6778 C.3       5 UNK         0.0224 
     63 CB        -49.2847  -21.1966   10.4545 C.3       5 UNK        -0.1978 
     64 N         -47.2316  -22.5260   10.1353 N.am      5 UNK        -0.4737 
     65 C         -46.2000  -21.7232    9.8533 C.2       4 UNK         0.5027 
     66 O         -46.3007  -20.6930    9.1865 O.2       4 UNK        -0.5211 
     67 CA        -44.8120  -22.1420   10.3728 C.3       4 UNK         0.0297 
     68 CB        -44.6992  -21.9766   11.9027 C.3       4 UNK        -0.1993 
     69 N         -44.4106  -23.4803    9.9156 N.am      4 UNK        -0.4486 
     70 C         -44.9269  -24.6627   10.2724 C.2       3 UNK         0.4961 
     71 O         -45.7645  -24.8136   11.1638 O.2       3 UNK        -0.5105 
     72 CA        -44.4693  -25.8830    9.4569 C.3       3 UNK         0.0299 
     73 CB        -43.7071  -26.8829   10.3406 C.3       3 UNK        -0.1972 
     74 N         -45.6365  -26.5433    8.8759 N.am      3 UNK        -0.4305 
     75 C         -46.4425  -26.0166    7.9486 C.2       2 UNK         0.5006 
     76 O         -46.1524  -25.0089    7.3000 O.2       2 UNK        -0.5106 
     77 CA        -47.8191  -26.6884    7.7535 C.3       2 UNK         0.0296 
     78 CB        -48.6889  -25.9409    6.7262 C.3       2 UNK        -0.2002 
     79 N         -47.8221  -28.1097    7.3904 N.am      2 UNK        -0.4032 
     80 C         -47.3413  -29.1544    8.0801 C.2       1 UNK         0.5000 
     81 O         -46.6025  -29.0757    9.0641 O.2       1 UNK        -0.5238 
     82 H82       -44.6517  -32.9340    5.5435 H         1 UNK         0.0889 
     83 H83       -44.7121  -33.0329    7.3042 H         1 UNK         0.0889 
     84 H84       -43.7098  -31.8075    6.5244 H         1 UNK         0.0889 
     85 H85       -46.5632  -32.1263    8.1791 H         1 UNK         0.3028 
     86 H86       -48.3393  -30.4341    6.6624 H         1 UNK         0.0864 
     87 H87       -49.2973  -32.0662    8.2078 H         1 UNK         0.0720 
     88 H88       -48.3773  -31.4382    9.5449 H         1 UNK         0.0720 
     89 H89       -51.9282  -31.4489    8.1102 H         1 UNK         0.0814 
     90 H90       -51.0751  -30.5364    6.8850 H         1 UNK         0.0814 
     91 H91       -51.7592  -28.2567    6.2882 H         1 UNK         0.1469 
     92 H92       -55.4278  -26.7422    7.9095 H         1 UNK         0.1381 
     93 H93       -53.7133  -30.3336    9.4950 H         1 UNK         0.1206 
     94 H94       -56.7755  -28.5322    9.3148 H         1 UNK         0.0813 
     95 H95       -55.8177  -29.5652   10.3546 H         1 UNK         0.0813 
     96 H96       -57.8935  -28.1624   11.4579 H         1 UNK         0.0638 
     97 H97       -57.7712  -26.4960   11.9171 H         1 UNK         0.0638 
     98 H98       -58.1075  -27.8971   13.8643 H         1 UNK         0.0568 
     99 H99       -55.6615  -28.8775   15.4759 H         1 UNK         0.3450 
    100 H100      -55.5696  -30.5384   14.9358 H         1 UNK         0.3450 
    101 H101      -55.3263  -26.9218   14.1486 H         1 UNK         0.2987 
    102 H102      -55.7390  -24.2195   15.3664 H         1 UNK         0.0766 
    103 H103      -57.4162  -24.1476   17.1810 H         1 UNK         0.0798 
    104 H104      -55.8039  -24.0790   17.8681 H         1 UNK         0.0798 
    105 H105      -56.7249  -25.5813   17.9278 H         1 UNK         0.0798 
    106 H106      -53.7889  -25.1820   15.7446 H         1 UNK         0.3198 
    107 H107      -52.1874  -26.3565   16.5818 H         1 UNK         0.0843 
    108 H108      -52.8453  -28.8764   18.1850 H         1 UNK         0.0831 
    109 H109      -52.6595  -27.2692   18.8718 H         1 UNK         0.0831 
    110 H110      -51.2879  -28.0505   18.1042 H         1 UNK         0.0831 
    111 H111      -51.6550  -28.8522   15.8502 H         1 UNK         0.3133 
    112 H112      -51.6932  -29.9689   13.9271 H         1 UNK         0.0566 
    113 H113      -53.0630  -28.6271   11.5363 H         1 UNK         0.0814 
    114 H114      -53.7473  -29.9509   12.4707 H         1 UNK         0.0814 
    115 H115      -52.2733  -30.1996   11.5427 H         1 UNK         0.0814 
    116 H116      -50.9930  -27.5616   12.2856 H         1 UNK         0.3091 
    117 H117      -47.6121  -27.6105   13.5384 H         1 UNK         0.0702 
    118 H118      -47.3619  -27.0426   11.1546 H         1 UNK         0.0785 
    119 H119      -49.0341  -27.4962   10.8262 H         1 UNK         0.0785 
    120 H120      -47.8680  -28.7201   11.3104 H         1 UNK         0.0785 
    121 H121      -49.0959  -25.5296   12.2943 H         1 UNK         0.2998 
    122 H122      -49.9512  -23.7714   15.3260 H         1 UNK         0.0697 
    123 H123      -48.8404  -22.0307   13.9357 H         1 UNK         0.0825 
    124 H124      -48.1080  -23.2762   12.9241 H         1 UNK         0.0825 
    125 H125      -47.6665  -23.1439   14.6160 H         1 UNK         0.0825 
    126 H126      -50.5499  -23.7265   12.4288 H         1 UNK         0.3029 
    127 H127      -53.7149  -24.9802   12.7202 H         1 UNK         0.0897 
    128 H128      -53.4585  -21.9246   12.6683 H         1 UNK         0.0792 
    129 H129      -54.8316  -22.8670   12.0821 H         1 UNK         0.0792 
    130 H130      -54.4505  -22.8373   13.7939 H         1 UNK         0.0792 
    131 H131      -52.6633  -23.2158   10.7385 H         1 UNK         0.3086 
    132 H132      -50.9767  -25.7967    8.9003 H         1 UNK         0.0583 
    133 H133      -53.5477  -25.1990    8.5672 H         1 UNK         0.1020 
    134 H134      -53.0109  -23.5727    8.3460 H         1 UNK         0.1020 
    135 H135      -54.4927  -25.6866    5.9862 H         1 UNK         0.0694 
    136 H136      -53.3027  -26.5356    5.0343 H         1 UNK         0.0694 
    137 H137      -50.7087  -23.0700    8.4570 H         1 UNK         0.2989 
    138 H138      -48.5892  -22.1092    8.6112 H         1 UNK         0.1055 
    139 H139      -48.7769  -20.2463   10.2899 H         1 UNK         0.0806 
    140 H140      -49.2925  -21.3859   11.5279 H         1 UNK         0.0806 
    141 H141      -50.3199  -21.0602   10.1394 H         1 UNK         0.0806 
    142 H142      -47.0520  -23.3913   10.6435 H         1 UNK         0.3061 
    143 H143      -44.0908  -21.4559    9.9252 H         1 UNK         0.0734 
    144 H144      -45.4240  -22.5867   12.4421 H         1 UNK         0.0832 
    145 H145      -43.7046  -22.2452   12.2583 H         1 UNK         0.0832 
    146 H146      -44.8783  -20.9402   12.1914 H         1 UNK         0.0832 
    147 H147      -43.7545  -23.4796    9.1461 H         1 UNK         0.3156 
    148 H148      -43.8131  -25.5618    8.6454 H         1 UNK         0.0589 
    149 H149      -43.3719  -27.7459    9.7649 H         1 UNK         0.0808 
    150 H150      -44.3261  -27.2486   11.1614 H         1 UNK         0.0808 
    151 H151      -42.8224  -26.4200   10.7795 H         1 UNK         0.0808 
    152 H152      -45.9298  -27.4243    9.2949 H         1 UNK         0.3098 
    153 H153      -48.3270  -26.6091    8.7159 H         1 UNK         0.0720 
    154 H154      -48.8025  -24.8894    6.9918 H         1 UNK         0.0791 
    155 H155      -49.6898  -26.3677    6.6733 H         1 UNK         0.0791 
    156 H156      -48.2545  -25.9793    5.7265 H         1 UNK         0.0791 
    157 H157      -48.3682  -28.3257    6.5699 H         1 UNK         0.3028 
@<TRIPOS>BOND
     1    1    2 1    
     2    1   82 1    
     3    1   83 1    
     4    1   84 1    
     5    2    3 2    
     6    2    4 am   BACKBONE|DICT|INTERRES
     7    4    5 1    
     8    4   85 1    
     9    5    6 1    
    10    5   80 1    
    11    5   86 1    
    12    6    7 1    
    13    6   87 1    
    14    6   88 1    
    15    7    8 1    
    16    8    9 1    
    17    8   89 1    
    18    8   90 1    
    19    9   10 ar   
    20    9   14 ar   
    21   10   11 ar   
    22   10   91 1    
    23   11   12 ar   
    24   11   58 1    
    25   12   13 ar   
    26   12   92 1    
    27   13   14 ar   
    28   13   15 1    
    29   14   93 1    
    30   15   16 1    
    31   15   94 1    
    32   15   95 1    
    33   16   17 1    
    34   17   18 1    
    35   17   96 1    
    36   17   97 1    
    37   18   19 1    
    38   18   22 1    
    39   18   98 1    
    40   19   20 am   BACKBONE|DICT|INTERRES
    41   19   21 2    
    42   20   99 1    
    43   20  100 1    
    44   22   23 am   BACKBONE|DICT|INTERRES
    45   22  101 1    
    46   23   24 2    
    47   23   25 1    
    48   25   26 1    
    49   25   27 1    
    50   25  102 1    
    51   26  103 1    
    52   26  104 1    
    53   26  105 1    
    54   27   28 am   BACKBONE|DICT|INTERRES
    55   27  106 1    
    56   28   29 2    
    57   28   30 1    
    58   30   31 1    
    59   30   32 1    
    60   30  107 1    
    61   31  108 1    
    62   31  109 1    
    63   31  110 1    
    64   32   33 am   BACKBONE|DICT|INTERRES
    65   32  111 1    
    66   33   34 2    
    67   33   35 1    
    68   35   36 1    
    69   35   37 1    
    70   35  112 1    
    71   36  113 1    
    72   36  114 1    
    73   36  115 1    
    74   37   38 am   BACKBONE|DICT|INTERRES
    75   37  116 1    
    76   38   39 2    
    77   38   40 1    
    78   40   41 1    
    79   40   42 1    
    80   40  117 1    
    81   41  118 1    
    82   41  119 1    
    83   41  120 1    
    84   42   43 am   BACKBONE|DICT|INTERRES
    85   42  121 1    
    86   43   44 2    
    87   43   45 1    
    88   45   46 1    
    89   45   47 1    
    90   45  122 1    
    91   46  123 1    
    92   46  124 1    
    93   46  125 1    
    94   47   48 am   BACKBONE|DICT|INTERRES
    95   47  126 1    
    96   48   49 2    
    97   48   50 1    
    98   50   51 1    
    99   50   52 1    
   100   50  127 1    
   101   51  128 1    
   102   51  129 1    
   103   51  130 1    
   104   52   53 am   BACKBONE|DICT|INTERRES
   105   52  131 1    
   106   53   54 2    
   107   53   55 1    
   108   55   56 1    
   109   55   59 1    
   110   55  132 1    
   111   56   57 1    
   112   56  133 1    
   113   56  134 1    
   114   57   58 1    
   115   58  135 1    
   116   58  136 1    
   117   59   60 am   BACKBONE|DICT|INTERRES
   118   59  137 1    
   119   60   61 2    
   120   60   62 1    
   121   62   63 1    
   122   62   64 1    
   123   62  138 1    
   124   63  139 1    
   125   63  140 1    
   126   63  141 1    
   127   64   65 am   BACKBONE|DICT|INTERRES
   128   64  142 1    
   129   65   66 2    
   130   65   67 1    
   131   67   68 1    
   132   67   69 1    
   133   67  143 1    
   134   68  144 1    
   135   68  145 1    
   136   68  146 1    
   137   69   70 am   BACKBONE|DICT|INTERRES
   138   69  147 1    
   139   70   71 2    
   140   70   72 1    
   141   72   73 1    
   142   72   74 1    
   143   72  148 1    
   144   73  149 1    
   145   73  150 1    
   146   73  151 1    
   147   74   75 am   BACKBONE|DICT|INTERRES
   148   74  152 1    
   149   75   76 2    
   150   75   77 1    
   151   77   78 1    
   152   77   79 1    
   153   77  153 1    
   154   78  154 1    
   155   78  155 1    
   156   78  156 1    
   157   79   80 am   BACKBONE|DICT|INTERRES
   158   79  157 1    
   159   80   81 2    
@<TRIPOS>SUBSTRUCTURE
     1 UNK         1 GROUP             0       ****    0 ROOT    
