@<TRIPOS>MOLECULE
3R207
157   159    1
SMALL
USER_CHARGES


@<TRIPOS>ATOM
      1 CA        -51.3455  -25.0364    4.2619 C.3       0 UNK        -0.1975 
      2 C         -50.3955  -26.2006    3.9894 C.2       0 UNK         0.4852 
      3 O         -49.4621  -26.0391    3.2055 O.2       0 UNK        -0.5216 
      4 N         -50.5861  -27.3881    4.5839 N.am      1 UNK        -0.4461 
      5 CA        -51.5685  -27.7368    5.6162 C.3       1 UNK         0.0864 
      6 C6        -51.6342  -29.2725    5.7973 C.3       14 UNK        -0.0898 
      7 S7        -53.1507  -29.8347    6.6378 S.3       14 UNK        -0.2598 
      8 C8        -52.5976  -31.4506    7.2690 C.3       14 UNK         0.0286 
      9 C9        -52.2793  -31.3953    8.7557 C.ar      14 UNK        -0.0844 
     10 C10       -51.0431  -30.9217    9.2106 C.ar      14 UNK        -0.0881 
     11 C11       -50.7499  -30.8941   10.5815 C.ar      14 UNK        -0.0643 
     12 C12       -51.7126  -31.3456   11.4904 C.ar      14 UNK        -0.0930 
     13 C13       -52.9480  -31.8264   11.0474 C.ar      14 UNK        -0.0827 
     14 C14       -53.2218  -31.8534    9.6789 C.ar      14 UNK        -0.1249 
     15 C15       -53.9700  -32.3521   12.0448 C.3       14 UNK         0.0141 
     16 S16       -55.1615  -31.0695   12.5401 S.3       14 UNK        -0.2313 
     17 C17       -56.3108  -31.0351   11.1191 C.3       14 UNK        -0.0915 
     18 CA        -56.1292  -29.7955   10.2019 C.3       13 UNK         0.0968 
     19 C         -57.1502  -29.8411    9.0328 C.2       13 UNK         0.5732 
     20 N         -56.7035  -30.1564    7.8244 N.am      13 UNK        -0.7310 
     21 O         -58.3475  -29.6377    9.2266 O.2       13 UNK        -0.5035 
     22 N         -56.1732  -28.5590   10.9922 N.am      13 UNK        -0.4233 
     23 C         -56.1472  -27.2970   10.5450 C.2       13 UNK         0.4989 
     24 O         -56.1862  -26.9701    9.3590 O.2       13 UNK        -0.4996 
     25 CA        -56.0193  -26.2038   11.6230 C.3       12 UNK         0.0216 
     26 CB        -57.4085  -25.7269   12.0769 C.3       12 UNK        -0.1964 
     27 N         -55.2418  -26.6337   12.7929 N.am      12 UNK        -0.4276 
     28 C         -53.9367  -26.9397   12.7696 C.2       12 UNK         0.5020 
     29 O         -53.2190  -26.8249   11.7749 O.2       12 UNK        -0.5489 
     30 CA        -53.3302  -27.4300   14.0898 C.3       11 UNK         0.0294 
     31 CB        -52.3270  -28.5761   13.8704 C.3       11 UNK        -0.2019 
     32 N         -52.6427  -26.3154   14.7272 N.am      11 UNK        -0.4493 
     33 C         -53.2026  -25.4507   15.5813 C.2       11 UNK         0.4932 
     34 O         -54.3767  -25.5248   15.9496 O.2       11 UNK        -0.5029 
     35 CA        -52.2979  -24.3145   16.1012 C.3       10 UNK         0.0280 
     36 CB        -52.8393  -23.6448   17.3820 C.3       10 UNK        -0.1976 
     37 N         -50.8991  -24.7289   16.2695 N.am      10 UNK        -0.4242 
     38 C         -50.4185  -25.6797   17.0879 C.2       10 UNK         0.5072 
     39 O         -51.1077  -26.2919   17.9052 O.2       10 UNK        -0.5224 
     40 CA        -48.9241  -26.0445   16.9687 C.3       9 UNK         0.0343 
     41 CB        -48.7706  -27.4719   16.4153 C.3       9 UNK        -0.2003 
     42 N         -48.1517  -25.1290   16.1247 N.am      9 UNK        -0.4272 
     43 C         -47.7612  -23.8972   16.4804 C.2       9 UNK         0.4988 
     44 O         -47.9398  -23.4184   17.6006 O.2       9 UNK        -0.5108 
     45 CA        -47.0978  -23.0376   15.3877 C.3       8 UNK         0.0248 
     46 CB        -45.5911  -23.3281   15.3075 C.3       8 UNK        -0.2001 
     47 N         -47.7081  -23.2111   14.0638 N.am      8 UNK        -0.4140 
     48 C         -48.9888  -22.9352   13.7735 C.2       8 UNK         0.5028 
     49 O         -49.7892  -22.4682   14.5829 O.2       8 UNK        -0.5428 
     50 CA        -49.4817  -23.2937   12.3635 C.3       7 UNK         0.0264 
     51 CB        -49.0790  -22.2112   11.3511 C.3       7 UNK        -0.1988 
     52 N         -49.0093  -24.6110   11.9283 N.am      7 UNK        -0.4454 
     53 C         -49.3913  -25.7663   12.4955 C.2       7 UNK         0.5027 
     54 O         -50.2192  -25.8368   13.4026 O.2       7 UNK        -0.5083 
     55 CA        -48.6811  -27.0484   12.0226 C.3       6 UNK         0.0844 
     56 C56       -49.3808  -27.6517   10.7802 C.3       14 UNK        -0.0967 
     57 S57       -48.5491  -29.1522   10.1607 S.3       14 UNK        -0.2604 
     58 C58       -49.3804  -30.4681   11.1116 C.3       14 UNK         0.0134 
     59 N         -47.2485  -26.8060   11.8244 N.am      6 UNK        -0.4116 
     60 C         -46.3832  -26.5902   12.8257 C.2       5 UNK         0.5034 
     61 O         -46.7033  -26.5811   14.0136 O.2       5 UNK        -0.5045 
     62 CA        -44.9212  -26.2982   12.4491 C.3       5 UNK         0.0224 
     63 CB        -44.1276  -27.6084   12.3264 C.3       5 UNK        -0.1978 
     64 N         -44.7711  -25.5197   11.2175 N.am      5 UNK        -0.4737 
     65 C         -45.2606  -24.2887   11.0177 C.2       4 UNK         0.5027 
     66 O         -45.9005  -23.6657   11.8662 O.2       4 UNK        -0.5211 
     67 CA        -45.0354  -23.6527    9.6306 C.3       4 UNK         0.0297 
     68 CB        -44.1034  -24.4691    8.7056 C.3       4 UNK        -0.1993 
     69 N         -46.2985  -23.3667    8.9377 N.am      4 UNK        -0.4486 
     70 C         -47.2996  -24.2270    8.7047 C.2       3 UNK         0.4961 
     71 O         -47.3157  -25.3970    9.0980 O.2       3 UNK        -0.5105 
     72 CA        -48.4807  -23.6841    7.8920 C.3       3 UNK         0.0299 
     73 CB        -48.1538  -23.6710    6.3892 C.3       3 UNK        -0.1972 
     74 N         -49.6319  -24.5484    8.1199 N.am      3 UNK        -0.4305 
     75 C         -50.8935  -24.1677    8.3284 C.2       2 UNK         0.5006 
     76 O         -51.2680  -22.9946    8.2899 O.2       2 UNK        -0.5106 
     77 CA        -51.9062  -25.3002    8.6001 C.3       2 UNK         0.0296 
     78 CB        -53.2716  -24.7582    9.0549 C.3       2 UNK        -0.2002 
     79 N         -52.1061  -26.1631    7.4305 N.am      2 UNK        -0.4032 
     80 C         -51.2073  -27.0258    6.9346 C.2       1 UNK         0.5000 
     81 O         -50.1082  -27.2423    7.4485 O.2       1 UNK        -0.5238 
     82 H82       -52.3868  -25.3540    4.2780 H         1 UNK         0.0889 
     83 H83       -51.2513  -24.2842    3.4788 H         1 UNK         0.0889 
     84 H84       -51.1043  -24.5558    5.2089 H         1 UNK         0.0889 
     85 H85       -49.9187  -28.1184    4.3818 H         1 UNK         0.3028 
     86 H86       -52.5488  -27.3992    5.2756 H         1 UNK         0.0864 
     87 H87       -51.6237  -29.7615    4.8216 H         1 UNK         0.0720 
     88 H88       -50.7518  -29.6418    6.3237 H         1 UNK         0.0720 
     89 H89       -51.7294  -31.8070    6.7125 H         1 UNK         0.0814 
     90 H90       -53.3861  -32.1812    7.0816 H         1 UNK         0.0814 
     91 H91       -50.3048  -30.5895    8.4947 H         1 UNK         0.1469 
     92 H92       -51.4907  -31.3458   12.5488 H         1 UNK         0.1381 
     93 H93       -54.1703  -32.2375    9.3304 H         1 UNK         0.1206 
     94 H94       -54.4967  -33.2148   11.6342 H         1 UNK         0.0813 
     95 H95       -53.4603  -32.7131   12.9394 H         1 UNK         0.0813 
     96 H96       -56.2050  -31.9562   10.5442 H         1 UNK         0.0638 
     97 H97       -57.3241  -31.0554   11.5251 H         1 UNK         0.0638 
     98 H98       -55.1266  -29.8320    9.7736 H         1 UNK         0.0568 
     99 H99       -55.7208  -30.3036    7.6530 H         1 UNK         0.3450 
    100 H100      -57.3580  -30.2047    7.0597 H         1 UNK         0.3450 
    101 H101      -56.1378  -28.7010   11.9897 H         1 UNK         0.2987 
    102 H102      -55.4994  -25.3556   11.1732 H         1 UNK         0.0766 
    103 H103      -57.3337  -24.8965   12.7794 H         1 UNK         0.0798 
    104 H104      -57.9748  -26.5256   12.5578 H         1 UNK         0.0798 
    105 H105      -57.9965  -25.3775   11.2269 H         1 UNK         0.0798 
    106 H106      -55.7366  -26.6992   13.6719 H         1 UNK         0.3198 
    107 H107      -54.1256  -27.8024   14.7393 H         1 UNK         0.0843 
    108 H108      -51.4968  -28.2778   13.2301 H         1 UNK         0.0831 
    109 H109      -52.8146  -29.4255   13.3940 H         1 UNK         0.0831 
    110 H110      -51.9111  -28.9256   14.8153 H         1 UNK         0.0831 
    111 H111      -51.6996  -26.1277   14.3868 H         1 UNK         0.3133 
    112 H112      -52.2905  -23.5577   15.3158 H         1 UNK         0.0566 
    113 H113      -52.1832  -22.8411   17.7160 H         1 UNK         0.0814 
    114 H114      -53.8231  -23.2074   17.2079 H         1 UNK         0.0814 
    115 H115      -52.9424  -24.3574   18.2008 H         1 UNK         0.0814 
    116 H116      -50.2471  -24.2729   15.6417 H         1 UNK         0.3091 
    117 H117      -48.5031  -26.0219   17.9759 H         1 UNK         0.0702 
    118 H118      -49.2938  -28.1957   17.0417 H         1 UNK         0.0785 
    119 H119      -49.1786  -27.5578   15.4075 H         1 UNK         0.0785 
    120 H120      -47.7236  -27.7733   16.3793 H         1 UNK         0.0785 
    121 H121      -47.8879  -25.4769   15.2080 H         1 UNK         0.2998 
    122 H122      -47.2268  -21.9904   15.6689 H         1 UNK         0.0697 
    123 H123      -45.3947  -24.3694   15.0534 H         1 UNK         0.0825 
    124 H124      -45.1054  -23.1300   16.2639 H         1 UNK         0.0825 
    125 H125      -45.1038  -22.7024   14.5595 H         1 UNK         0.0825 
    126 H126      -47.0991  -23.5348   13.3148 H         1 UNK         0.3029 
    127 H127      -50.5732  -23.3275   12.3996 H         1 UNK         0.0897 
    128 H128      -49.5656  -22.3721   10.3914 H         1 UNK         0.0792 
    129 H129      -48.0019  -22.1794   11.1882 H         1 UNK         0.0792 
    130 H130      -49.3838  -21.2226   11.6974 H         1 UNK         0.0792 
    131 H131      -48.2782  -24.6358   11.2303 H         1 UNK         0.3086 
    132 H132      -48.7766  -27.7775   12.8302 H         1 UNK         0.0583 
    133 H133      -50.4282  -27.8807   10.9906 H         1 UNK         0.1020 
    134 H134      -49.3880  -26.9278    9.9658 H         1 UNK         0.1020 
    135 H135      -48.7338  -31.3463   11.1075 H         1 UNK         0.0694 
    136 H136      -49.4552  -30.1499   12.1527 H         1 UNK         0.0694 
    137 H137      -46.9281  -26.7468   10.8654 H         1 UNK         0.2989 
    138 H138      -44.4874  -25.7120   13.2616 H         1 UNK         0.1055 
    139 H139      -43.0681  -27.4174   12.1548 H         1 UNK         0.0806 
    140 H140      -44.4953  -28.2295   11.5085 H         1 UNK         0.0806 
    141 H141      -44.2039  -28.1972   13.2419 H         1 UNK         0.0806 
    142 H142      -44.2802  -25.9641   10.4550 H         1 UNK         0.3061 
    143 H143      -44.5565  -22.6902    9.8171 H         1 UNK         0.0734 
    144 H144      -43.9170  -23.9349    7.7738 H         1 UNK         0.0832 
    145 H145      -43.1309  -24.6394    9.1696 H         1 UNK         0.0832 
    146 H146      -44.5277  -25.4394    8.4438 H         1 UNK         0.0832 
    147 H147      -46.4013  -22.4177    8.6049 H         1 UNK         0.3156 
    148 H148      -48.6951  -22.6670    8.2249 H         1 UNK         0.0589 
    149 H149      -47.9443  -24.6739    6.0139 H         1 UNK         0.0808 
    150 H150      -48.9819  -23.2642    5.8089 H         1 UNK         0.0808 
    151 H151      -47.2797  -23.0534    6.1792 H         1 UNK         0.0808 
    152 H152      -49.4207  -25.5445    8.1390 H         1 UNK         0.3098 
    153 H153      -51.5107  -25.9100    9.4146 H         1 UNK         0.0720 
    154 H154      -53.9484  -25.5753    9.2963 H         1 UNK         0.0791 
    155 H155      -53.7451  -24.1422    8.2895 H         1 UNK         0.0791 
    156 H156      -53.1702  -24.1500    9.9548 H         1 UNK         0.0791 
    157 H157      -52.9851  -26.0475    6.9473 H         1 UNK         0.3028 
@<TRIPOS>BOND
     1    1    2 1    
     2    1   82 1    
     3    1   83 1    
     4    1   84 1    
     5    2    3 2    
     6    2    4 am   BACKBONE|DICT|INTERRES
     7    4    5 1    
     8    4   85 1    
     9    5    6 1    
    10    5   80 1    
    11    5   86 1    
    12    6    7 1    
    13    6   87 1    
    14    6   88 1    
    15    7    8 1    
    16    8    9 1    
    17    8   89 1    
    18    8   90 1    
    19    9   10 ar   
    20    9   14 ar   
    21   10   11 ar   
    22   10   91 1    
    23   11   12 ar   
    24   11   58 1    
    25   12   13 ar   
    26   12   92 1    
    27   13   14 ar   
    28   13   15 1    
    29   14   93 1    
    30   15   16 1    
    31   15   94 1    
    32   15   95 1    
    33   16   17 1    
    34   17   18 1    
    35   17   96 1    
    36   17   97 1    
    37   18   19 1    
    38   18   22 1    
    39   18   98 1    
    40   19   20 am   BACKBONE|DICT|INTERRES
    41   19   21 2    
    42   20   99 1    
    43   20  100 1    
    44   22   23 am   BACKBONE|DICT|INTERRES
    45   22  101 1    
    46   23   24 2    
    47   23   25 1    
    48   25   26 1    
    49   25   27 1    
    50   25  102 1    
    51   26  103 1    
    52   26  104 1    
    53   26  105 1    
    54   27   28 am   BACKBONE|DICT|INTERRES
    55   27  106 1    
    56   28   29 2    
    57   28   30 1    
    58   30   31 1    
    59   30   32 1    
    60   30  107 1    
    61   31  108 1    
    62   31  109 1    
    63   31  110 1    
    64   32   33 am   BACKBONE|DICT|INTERRES
    65   32  111 1    
    66   33   34 2    
    67   33   35 1    
    68   35   36 1    
    69   35   37 1    
    70   35  112 1    
    71   36  113 1    
    72   36  114 1    
    73   36  115 1    
    74   37   38 am   BACKBONE|DICT|INTERRES
    75   37  116 1    
    76   38   39 2    
    77   38   40 1    
    78   40   41 1    
    79   40   42 1    
    80   40  117 1    
    81   41  118 1    
    82   41  119 1    
    83   41  120 1    
    84   42   43 am   BACKBONE|DICT|INTERRES
    85   42  121 1    
    86   43   44 2    
    87   43   45 1    
    88   45   46 1    
    89   45   47 1    
    90   45  122 1    
    91   46  123 1    
    92   46  124 1    
    93   46  125 1    
    94   47   48 am   BACKBONE|DICT|INTERRES
    95   47  126 1    
    96   48   49 2    
    97   48   50 1    
    98   50   51 1    
    99   50   52 1    
   100   50  127 1    
   101   51  128 1    
   102   51  129 1    
   103   51  130 1    
   104   52   53 am   BACKBONE|DICT|INTERRES
   105   52  131 1    
   106   53   54 2    
   107   53   55 1    
   108   55   56 1    
   109   55   59 1    
   110   55  132 1    
   111   56   57 1    
   112   56  133 1    
   113   56  134 1    
   114   57   58 1    
   115   58  135 1    
   116   58  136 1    
   117   59   60 am   BACKBONE|DICT|INTERRES
   118   59  137 1    
   119   60   61 2    
   120   60   62 1    
   121   62   63 1    
   122   62   64 1    
   123   62  138 1    
   124   63  139 1    
   125   63  140 1    
   126   63  141 1    
   127   64   65 am   BACKBONE|DICT|INTERRES
   128   64  142 1    
   129   65   66 2    
   130   65   67 1    
   131   67   68 1    
   132   67   69 1    
   133   67  143 1    
   134   68  144 1    
   135   68  145 1    
   136   68  146 1    
   137   69   70 am   BACKBONE|DICT|INTERRES
   138   69  147 1    
   139   70   71 2    
   140   70   72 1    
   141   72   73 1    
   142   72   74 1    
   143   72  148 1    
   144   73  149 1    
   145   73  150 1    
   146   73  151 1    
   147   74   75 am   BACKBONE|DICT|INTERRES
   148   74  152 1    
   149   75   76 2    
   150   75   77 1    
   151   77   78 1    
   152   77   79 1    
   153   77  153 1    
   154   78  154 1    
   155   78  155 1    
   156   78  156 1    
   157   79   80 am   BACKBONE|DICT|INTERRES
   158   79  157 1    
   159   80   81 2    
@<TRIPOS>SUBSTRUCTURE
     1 UNK         1 GROUP             0       ****    0 ROOT    
