@<TRIPOS>MOLECULE
3R207
157   159    1
SMALL
USER_CHARGES


@<TRIPOS>ATOM
      1 CA        -46.8185  -29.2619   10.8247 C.3       0 UNK        -0.1975 
      2 C         -47.4339  -28.2916    9.8281 C.2       0 UNK         0.4852 
      3 O         -47.2962  -27.0771    9.9893 O.2       0 UNK        -0.5216 
      4 N         -48.1142  -28.8361    8.8098 N.am      1 UNK        -0.4461 
      5 CA        -48.7992  -28.1231    7.7195 C.3       1 UNK         0.0864 
      6 C6        -49.8968  -27.1323    8.1969 C.3       14 UNK        -0.0898 
      7 S7        -51.1338  -27.9858    9.2360 S.3       14 UNK        -0.2598 
      8 C8        -52.7089  -27.3298    8.6110 C.3       14 UNK         0.0286 
      9 C9        -53.1513  -26.1231    9.4215 C.ar      14 UNK        -0.0844 
     10 C10       -52.6289  -24.8569    9.1518 C.ar      14 UNK        -0.0881 
     11 C11       -53.0293  -23.7491    9.9057 C.ar      14 UNK        -0.0643 
     12 C12       -53.9808  -23.9192   10.9184 C.ar      14 UNK        -0.0930 
     13 C13       -54.5288  -25.1784   11.1906 C.ar      14 UNK        -0.0827 
     14 C14       -54.0952  -26.2765   10.4397 C.ar      14 UNK        -0.1249 
     15 C15       -55.6176  -25.2996   12.2607 C.3       14 UNK         0.0141 
     16 S16       -55.6947  -26.9079   13.1280 S.3       14 UNK        -0.2313 
     17 C17       -56.8628  -27.8441   12.0817 C.3       14 UNK        -0.0915 
     18 CA        -56.7279  -29.3869   12.2037 C.3       13 UNK         0.0968 
     19 C         -55.4449  -29.9436   11.5159 C.2       13 UNK         0.5732 
     20 N         -54.5541  -30.6452   12.2077 N.am      13 UNK        -0.7310 
     21 O         -55.2705  -29.7584   10.3140 O.2       13 UNK        -0.5035 
     22 N         -56.9367  -29.8428   13.5860 N.am      13 UNK        -0.4233 
     23 C         -57.3708  -31.0622   13.9294 C.2       13 UNK         0.4989 
     24 O         -57.7424  -31.9074   13.1126 O.2       13 UNK        -0.4996 
     25 CA        -57.3931  -31.3892   15.4387 C.3       12 UNK         0.0216 
     26 CB        -57.4487  -32.9070   15.7154 C.3       12 UNK        -0.1964 
     27 N         -56.2939  -30.7747   16.1986 N.am      12 UNK        -0.4276 
     28 C         -54.9772  -30.9067   15.9779 C.2       12 UNK         0.5020 
     29 O         -54.4971  -31.5517   15.0440 O.2       12 UNK        -0.5489 
     30 CA        -54.0592  -30.1373   16.9421 C.3       11 UNK         0.0294 
     31 CB        -52.5677  -30.4672   16.7412 C.3       11 UNK        -0.2019 
     32 N         -54.2747  -28.6966   16.7811 N.am      11 UNK        -0.4493 
     33 C         -55.2006  -27.9921   17.4503 C.2       11 UNK         0.4932 
     34 O         -55.9462  -28.5067   18.2855 O.2       11 UNK        -0.5029 
     35 CA        -55.4012  -26.5008   17.1121 C.3       10 UNK         0.0280 
     36 CB        -55.3836  -25.6123   18.3738 C.3       10 UNK        -0.1976 
     37 N         -54.5138  -25.9836   16.0652 N.am      10 UNK        -0.4242 
     38 C         -53.2007  -25.7308   16.1319 C.2       10 UNK         0.5072 
     39 O         -52.5110  -25.8376   17.1478 O.2       10 UNK        -0.5224 
     40 CA        -52.5417  -25.3174   14.8042 C.3       9 UNK         0.0343 
     41 CB        -52.0698  -23.8568   14.8610 C.3       9 UNK        -0.2003 
     42 N         -51.4305  -26.2022   14.4410 N.am      9 UNK        -0.4272 
     43 C         -51.5435  -27.5327   14.2849 C.2       9 UNK         0.4988 
     44 O         -52.6174  -28.1261   14.3899 O.2       9 UNK        -0.5108 
     45 CA        -50.2757  -28.3499   13.9606 C.3       8 UNK         0.0248 
     46 CB        -50.5577  -29.4213   12.8920 C.3       8 UNK        -0.2001 
     47 N         -49.1664  -27.5093   13.5091 N.am      8 UNK        -0.4140 
     48 C         -48.1946  -27.0146   14.2884 C.2       8 UNK         0.5028 
     49 O         -48.0656  -27.2888   15.4815 O.2       8 UNK        -0.5428 
     50 CA        -47.2233  -26.0107   13.6383 C.3       7 UNK         0.0264 
     51 CB        -45.8361  -26.6276   13.4028 C.3       7 UNK        -0.1988 
     52 N         -47.7357  -25.4497   12.3827 N.am      7 UNK        -0.4454 
     53 C         -48.7114  -24.5303   12.3274 C.2       7 UNK         0.5027 
     54 O         -49.2603  -24.0832   13.3346 O.2       7 UNK        -0.5083 
     55 CA        -49.1488  -24.0505   10.9263 C.3       6 UNK         0.0844 
     56 C56       -50.0335  -22.7736   10.9790 C.3       14 UNK        -0.0967 
     57 S57       -50.6786  -22.3075    9.3357 S.3       14 UNK        -0.2604 
     58 C58       -52.4835  -22.3562    9.6027 C.3       14 UNK         0.0134 
     59 N         -48.0031  -23.9298   10.0153 N.am      6 UNK        -0.4116 
     60 C         -46.9512  -23.1083   10.1549 C.2       5 UNK         0.5034 
     61 O         -46.7883  -22.3375   11.1017 O.2       5 UNK        -0.5045 
     62 CA        -45.8950  -23.1540    9.0389 C.3       5 UNK         0.0224 
     63 CB        -44.8240  -24.2082    9.3619 C.3       5 UNK        -0.1978 
     64 N         -46.4661  -23.4222    7.7147 N.am      5 UNK        -0.4737 
     65 C         -47.2799  -22.5798    7.0572 C.2       4 UNK         0.5027 
     66 O         -47.5914  -21.4671    7.4841 O.2       4 UNK        -0.5211 
     67 CA        -47.8268  -23.0605    5.6972 C.3       4 UNK         0.0297 
     68 CB        -48.4102  -21.9190    4.8371 C.3       4 UNK        -0.1993 
     69 N         -46.8454  -23.8465    4.9424 N.am      4 UNK        -0.4486 
     70 C         -45.6353  -23.4444    4.5187 C.2       3 UNK         0.4961 
     71 O         -45.2347  -22.2819    4.5954 O.2       3 UNK        -0.5105 
     72 CA        -44.7062  -24.5217    3.9153 C.3       3 UNK         0.0299 
     73 CB        -43.2218  -24.2588    4.2489 C.3       3 UNK        -0.1972 
     74 N         -45.0700  -25.9039    4.2629 N.am      3 UNK        -0.4305 
     75 C         -45.1609  -26.4355    5.4912 C.2       2 UNK         0.5006 
     76 O         -44.9381  -25.8217    6.5361 O.2       2 UNK        -0.5106 
     77 CA        -45.6026  -27.9048    5.5537 C.3       2 UNK         0.0296 
     78 CB        -44.3942  -28.8129    5.8342 C.3       2 UNK        -0.2002 
     79 N         -46.6390  -28.1610    6.5579 N.am      2 UNK        -0.4032 
     80 C         -47.8152  -27.5245    6.6876 C.2       1 UNK         0.5000 
     81 O         -48.1511  -26.5552    6.0015 O.2       1 UNK        -0.5238 
     82 H82       -47.2819  -29.1417   11.8029 H         1 UNK         0.0889 
     83 H83       -45.7495  -29.0738   10.9197 H         1 UNK         0.0889 
     84 H84       -46.9491  -30.2995   10.5181 H         1 UNK         0.0889 
     85 H85       -48.2032  -29.8423    8.7731 H         1 UNK         0.3028 
     86 H86       -49.3173  -28.9030    7.1588 H         1 UNK         0.0864 
     87 H87       -50.3986  -26.6825    7.3391 H         1 UNK         0.0720 
     88 H88       -49.4644  -26.3064    8.7587 H         1 UNK         0.0720 
     89 H89       -53.4599  -28.1189    8.6785 H         1 UNK         0.0814 
     90 H90       -52.6372  -27.0767    7.5526 H         1 UNK         0.0814 
     91 H91       -51.9057  -24.7354    8.3573 H         1 UNK         0.1469 
     92 H92       -54.3128  -23.0602   11.4857 H         1 UNK         0.1381 
     93 H93       -54.4950  -27.2594   10.6332 H         1 UNK         0.1206 
     94 H94       -56.5859  -25.0862   11.8061 H         1 UNK         0.0813 
     95 H95       -55.4652  -24.5287   13.0174 H         1 UNK         0.0813 
     96 H96       -56.7579  -27.5325   11.0413 H         1 UNK         0.0638 
     97 H97       -57.8716  -27.5466   12.3715 H         1 UNK         0.0638 
     98 H98       -57.5482  -29.7996   11.6133 H         1 UNK         0.0568 
     99 H99       -54.6759  -30.8354   13.1970 H         1 UNK         0.3450 
    100 H100      -53.7395  -30.9956   11.7324 H         1 UNK         0.3450 
    101 H101      -56.6235  -29.2114   14.3072 H         1 UNK         0.2987 
    102 H102      -58.3142  -30.9503   15.8251 H         1 UNK         0.0766 
    103 H103      -58.3332  -33.3580   15.2636 H         1 UNK         0.0798 
    104 H104      -57.4934  -33.1146   16.7845 H         1 UNK         0.0798 
    105 H105      -56.5771  -33.4222   15.3099 H         1 UNK         0.0798 
    106 H106      -56.5684  -30.1840   16.9764 H         1 UNK         0.3198 
    107 H107      -54.3204  -30.4391   17.9590 H         1 UNK         0.0843 
    108 H108      -52.2434  -30.2968   15.7153 H         1 UNK         0.0831 
    109 H109      -52.3726  -31.5162   16.9664 H         1 UNK         0.0831 
    110 H110      -51.9351  -29.8699   17.3978 H         1 UNK         0.0831 
    111 H111      -53.7407  -28.2505   16.0398 H         1 UNK         0.3133 
    112 H112      -56.4045  -26.4333   16.6888 H         1 UNK         0.0566 
    113 H113      -55.5449  -24.5635   18.1247 H         1 UNK         0.0814 
    114 H114      -54.4402  -25.6893   18.9147 H         1 UNK         0.0814 
    115 H115      -56.1737  -25.9042   19.0667 H         1 UNK         0.0814 
    116 H116      -54.9457  -25.9182   15.1517 H         1 UNK         0.3091 
    117 H117      -53.2781  -25.3931   14.0037 H         1 UNK         0.0702 
    118 H118      -51.7728  -23.5009   13.8753 H         1 UNK         0.0785 
    119 H119      -51.2230  -23.7317   15.5370 H         1 UNK         0.0785 
    120 H120      -52.8676  -23.1992   15.2090 H         1 UNK         0.0785 
    121 H121      -50.5222  -25.7684   14.3478 H         1 UNK         0.2998 
    122 H122      -49.9914  -28.8660   14.8799 H         1 UNK         0.0697 
    123 H123      -50.9297  -28.9778   11.9691 H         1 UNK         0.0825 
    124 H124      -51.3134  -30.1290   13.2359 H         1 UNK         0.0825 
    125 H125      -49.6629  -29.9966   12.6549 H         1 UNK         0.0825 
    126 H126      -49.1942  -27.2124   12.5443 H         1 UNK         0.3029 
    127 H127      -47.0989  -25.1909   14.3497 H         1 UNK         0.0897 
    128 H128      -45.8648  -27.4304   12.6703 H         1 UNK         0.0792 
    129 H129      -45.4308  -27.0426   14.3267 H         1 UNK         0.0792 
    130 H130      -45.1278  -25.8789   13.0473 H         1 UNK         0.0792 
    131 H131      -47.3667  -25.8294   11.5135 H         1 UNK         0.3086 
    132 H132      -49.7699  -24.8552   10.5322 H         1 UNK         0.0583 
    133 H133      -50.8760  -22.9230   11.6561 H         1 UNK         0.1020 
    134 H134      -49.4714  -21.9303   11.3836 H         1 UNK         0.1020 
    135 H135      -52.7337  -21.6591   10.4041 H         1 UNK         0.0694 
    136 H136      -52.9763  -21.9817    8.7048 H         1 UNK         0.0694 
    137 H137      -48.0089  -24.5444    9.2147 H         1 UNK         0.2989 
    138 H138      -45.4137  -22.1741    9.0045 H         1 UNK         0.1055 
    139 H139      -45.2388  -25.2174    9.3664 H         1 UNK         0.0806 
    140 H140      -44.3823  -24.0317   10.3436 H         1 UNK         0.0806 
    141 H141      -44.0136  -24.1847    8.6331 H         1 UNK         0.0806 
    142 H142      -46.1919  -24.2928    7.2694 H         1 UNK         0.3061 
    143 H143      -48.6450  -23.7436    5.9309 H         1 UNK         0.0734 
    144 H144      -47.6652  -21.1537    4.6178 H         1 UNK         0.0832 
    145 H145      -48.7976  -22.2932    3.8897 H         1 UNK         0.0832 
    146 H146      -49.2364  -21.4276    5.3525 H         1 UNK         0.0832 
    147 H147      -47.0678  -24.8315    4.8608 H         1 UNK         0.3156 
    148 H148      -44.8203  -24.4421    2.8333 H         1 UNK         0.0589 
    149 H149      -42.5747  -25.0166    3.8073 H         1 UNK         0.0808 
    150 H150      -42.8958  -23.2929    3.8610 H         1 UNK         0.0808 
    151 H151      -43.0452  -24.2522    5.3251 H         1 UNK         0.0808 
    152 H152      -45.2924  -26.4977    3.4750 H         1 UNK         0.3098 
    153 H153      -46.0249  -28.1847    4.5865 H         1 UNK         0.0720 
    154 H154      -43.6105  -28.6631    5.0901 H         1 UNK         0.0791 
    155 H155      -44.6705  -29.8670    5.8026 H         1 UNK         0.0791 
    156 H156      -43.9570  -28.6079    6.8126 H         1 UNK         0.0791 
    157 H157      -46.4571  -28.9214    7.1953 H         1 UNK         0.3028 
@<TRIPOS>BOND
     1    1    2 1    
     2    1   82 1    
     3    1   83 1    
     4    1   84 1    
     5    2    3 2    
     6    2    4 am   BACKBONE|DICT|INTERRES
     7    4    5 1    
     8    4   85 1    
     9    5    6 1    
    10    5   80 1    
    11    5   86 1    
    12    6    7 1    
    13    6   87 1    
    14    6   88 1    
    15    7    8 1    
    16    8    9 1    
    17    8   89 1    
    18    8   90 1    
    19    9   10 ar   
    20    9   14 ar   
    21   10   11 ar   
    22   10   91 1    
    23   11   12 ar   
    24   11   58 1    
    25   12   13 ar   
    26   12   92 1    
    27   13   14 ar   
    28   13   15 1    
    29   14   93 1    
    30   15   16 1    
    31   15   94 1    
    32   15   95 1    
    33   16   17 1    
    34   17   18 1    
    35   17   96 1    
    36   17   97 1    
    37   18   19 1    
    38   18   22 1    
    39   18   98 1    
    40   19   20 am   BACKBONE|DICT|INTERRES
    41   19   21 2    
    42   20   99 1    
    43   20  100 1    
    44   22   23 am   BACKBONE|DICT|INTERRES
    45   22  101 1    
    46   23   24 2    
    47   23   25 1    
    48   25   26 1    
    49   25   27 1    
    50   25  102 1    
    51   26  103 1    
    52   26  104 1    
    53   26  105 1    
    54   27   28 am   BACKBONE|DICT|INTERRES
    55   27  106 1    
    56   28   29 2    
    57   28   30 1    
    58   30   31 1    
    59   30   32 1    
    60   30  107 1    
    61   31  108 1    
    62   31  109 1    
    63   31  110 1    
    64   32   33 am   BACKBONE|DICT|INTERRES
    65   32  111 1    
    66   33   34 2    
    67   33   35 1    
    68   35   36 1    
    69   35   37 1    
    70   35  112 1    
    71   36  113 1    
    72   36  114 1    
    73   36  115 1    
    74   37   38 am   BACKBONE|DICT|INTERRES
    75   37  116 1    
    76   38   39 2    
    77   38   40 1    
    78   40   41 1    
    79   40   42 1    
    80   40  117 1    
    81   41  118 1    
    82   41  119 1    
    83   41  120 1    
    84   42   43 am   BACKBONE|DICT|INTERRES
    85   42  121 1    
    86   43   44 2    
    87   43   45 1    
    88   45   46 1    
    89   45   47 1    
    90   45  122 1    
    91   46  123 1    
    92   46  124 1    
    93   46  125 1    
    94   47   48 am   BACKBONE|DICT|INTERRES
    95   47  126 1    
    96   48   49 2    
    97   48   50 1    
    98   50   51 1    
    99   50   52 1    
   100   50  127 1    
   101   51  128 1    
   102   51  129 1    
   103   51  130 1    
   104   52   53 am   BACKBONE|DICT|INTERRES
   105   52  131 1    
   106   53   54 2    
   107   53   55 1    
   108   55   56 1    
   109   55   59 1    
   110   55  132 1    
   111   56   57 1    
   112   56  133 1    
   113   56  134 1    
   114   57   58 1    
   115   58  135 1    
   116   58  136 1    
   117   59   60 am   BACKBONE|DICT|INTERRES
   118   59  137 1    
   119   60   61 2    
   120   60   62 1    
   121   62   63 1    
   122   62   64 1    
   123   62  138 1    
   124   63  139 1    
   125   63  140 1    
   126   63  141 1    
   127   64   65 am   BACKBONE|DICT|INTERRES
   128   64  142 1    
   129   65   66 2    
   130   65   67 1    
   131   67   68 1    
   132   67   69 1    
   133   67  143 1    
   134   68  144 1    
   135   68  145 1    
   136   68  146 1    
   137   69   70 am   BACKBONE|DICT|INTERRES
   138   69  147 1    
   139   70   71 2    
   140   70   72 1    
   141   72   73 1    
   142   72   74 1    
   143   72  148 1    
   144   73  149 1    
   145   73  150 1    
   146   73  151 1    
   147   74   75 am   BACKBONE|DICT|INTERRES
   148   74  152 1    
   149   75   76 2    
   150   75   77 1    
   151   77   78 1    
   152   77   79 1    
   153   77  153 1    
   154   78  154 1    
   155   78  155 1    
   156   78  156 1    
   157   79   80 am   BACKBONE|DICT|INTERRES
   158   79  157 1    
   159   80   81 2    
@<TRIPOS>SUBSTRUCTURE
     1 UNK         1 GROUP             0       ****    0 ROOT    
