@<TRIPOS>MOLECULE
3R207
157   159    1
SMALL
USER_CHARGES


@<TRIPOS>ATOM
      1 CA        -49.5411  -21.8549    3.9162 C.3       0 UNK        -0.1975 
      2 C         -49.2944  -22.8889    5.0052 C.2       0 UNK         0.4852 
      3 O         -48.3271  -23.6477    4.9181 O.2       0 UNK        -0.5216 
      4 N         -50.1452  -22.9095    6.0441 N.am      1 UNK        -0.4461 
      5 CA        -50.1324  -23.8719    7.1608 C.3       1 UNK         0.0864 
      6 C6        -50.6257  -25.2800    6.7285 C.3       14 UNK        -0.0898 
      7 S7        -52.3957  -25.2400    6.2944 S.3       14 UNK        -0.2598 
      8 C8        -52.7060  -26.9718    5.8258 C.3       14 UNK         0.0286 
      9 C9        -52.6232  -27.9307    7.0075 C.ar      14 UNK        -0.0844 
     10 C10       -51.6551  -28.9374    7.0266 C.ar      14 UNK        -0.0881 
     11 C11       -51.6011  -29.8490    8.0838 C.ar      14 UNK        -0.0643 
     12 C12       -52.5080  -29.7347    9.1395 C.ar      14 UNK        -0.0930 
     13 C13       -53.4887  -28.7333    9.1393 C.ar      14 UNK        -0.0827 
     14 C14       -53.5385  -27.8407    8.0619 C.ar      14 UNK        -0.1249 
     15 C15       -54.5075  -28.5707   10.2719 C.3       14 UNK         0.0141 
     16 S16       -54.8849  -30.0891   11.2175 S.3       14 UNK        -0.2313 
     17 C17       -53.5920  -30.0709   12.5077 C.3       14 UNK        -0.0915 
     18 CA        -54.0376  -30.7992   13.8082 C.3       13 UNK         0.0968 
     19 C         -52.9198  -30.9830   14.8804 C.2       13 UNK         0.5732 
     20 N         -51.6676  -30.6361   14.6127 N.am      13 UNK        -0.7310 
     21 O         -53.1841  -31.5015   15.9638 O.2       13 UNK        -0.5035 
     22 N         -55.2703  -30.2521   14.3982 N.am      13 UNK        -0.4233 
     23 C         -55.3898  -29.0482   14.9693 C.2       13 UNK         0.4989 
     24 O         -54.5095  -28.1829   14.9568 O.2       13 UNK        -0.4996 
     25 CA        -56.7101  -28.7694   15.7014 C.3       12 UNK         0.0216 
     26 CB        -56.9654  -29.7895   16.8311 C.3       12 UNK        -0.1964 
     27 N         -56.6258  -27.4249   16.2570 N.am      12 UNK        -0.4276 
     28 C         -57.6321  -26.6508   16.6698 C.2       12 UNK         0.5020 
     29 O         -58.8155  -26.9925   16.6473 O.2       12 UNK        -0.5489 
     30 CA        -57.2565  -25.2596   17.2118 C.3       11 UNK         0.0294 
     31 CB        -57.3363  -25.2431   18.7474 C.3       11 UNK        -0.2019 
     32 N         -55.9189  -24.8175   16.8031 N.am      11 UNK        -0.4493 
     33 C         -55.5936  -24.3649   15.5874 C.2       11 UNK         0.4932 
     34 O         -56.3964  -24.2744   14.6582 O.2       11 UNK        -0.5029 
     35 CA        -54.1374  -23.9186   15.3686 C.3       10 UNK         0.0280 
     36 CB        -53.8616  -22.5695   16.0606 C.3       10 UNK        -0.1976 
     37 N         -53.1064  -24.9093   15.7100 N.am      10 UNK        -0.4242 
     38 C         -52.7855  -25.4327   16.9055 C.2       10 UNK         0.5072 
     39 O         -53.4228  -25.2200   17.9388 O.2       10 UNK        -0.5224 
     40 CA        -51.5259  -26.3234   16.9866 C.3       9 UNK         0.0343 
     41 CB        -51.8940  -27.8101   17.1056 C.3       9 UNK        -0.2003 
     42 N         -50.6010  -26.1442   15.8636 N.am      9 UNK        -0.4272 
     43 C         -49.8667  -25.0423   15.6541 C.2       9 UNK         0.4988 
     44 O         -49.7977  -24.1099   16.4561 O.2       9 UNK        -0.5108 
     45 CA        -49.0947  -24.9354   14.3236 C.3       8 UNK         0.0248 
     46 CB        -47.5948  -25.1783   14.5578 C.3       8 UNK        -0.2001 
     47 N         -49.5712  -25.7946   13.2264 N.am      8 UNK        -0.4140 
     48 C         -50.8116  -25.7706   12.7078 C.2       8 UNK         0.5028 
     49 O         -51.7256  -25.0980   13.1854 O.2       8 UNK        -0.5428 
     50 CA        -51.1078  -26.6019   11.4454 C.3       7 UNK         0.0264 
     51 CB        -51.4595  -25.6705   10.2774 C.3       7 UNK        -0.1988 
     52 N         -50.0166  -27.4885   11.0362 N.am      7 UNK        -0.4454 
     53 C         -49.7686  -28.6838   11.5892 C.2       7 UNK         0.5027 
     54 O         -50.4742  -29.1763   12.4697 O.2       7 UNK        -0.5083 
     55 CA        -48.5043  -29.4493   11.1376 C.3       6 UNK         0.0844 
     56 C56       -48.8434  -30.7103   10.2976 C.3       14 UNK        -0.0967 
     57 S57       -48.9233  -30.4287    8.4918 S.3       14 UNK        -0.2604 
     58 C58       -50.5943  -30.9875    8.0522 C.3       14 UNK         0.0134 
     59 N         -47.4815  -28.6105   10.5012 N.am      6 UNK        -0.4116 
     60 C         -46.8391  -27.5821   11.0644 C.2       5 UNK         0.5034 
     61 O         -47.0319  -27.2263   12.2258 O.2       5 UNK        -0.5045 
     62 CA        -45.8685  -26.7709   10.1906 C.3       5 UNK         0.0224 
     63 CB        -44.4018  -27.1419   10.4810 C.3       5 UNK        -0.1978 
     64 N         -46.1677  -26.7972    8.7512 N.am      5 UNK        -0.4737 
     65 C         -46.0043  -27.7812    7.8547 C.2       4 UNK         0.5027 
     66 O         -45.6032  -28.9089    8.1371 O.2       4 UNK        -0.5211 
     67 CA        -46.3651  -27.4479    6.3948 C.3       4 UNK         0.0297 
     68 CB        -47.8337  -27.7945    6.1047 C.3       4 UNK        -0.1993 
     69 N         -46.1256  -26.0366    6.0805 N.am      4 UNK        -0.4486 
     70 C         -44.9084  -25.5041    5.8880 C.2       3 UNK         0.4961 
     71 O         -43.8695  -26.1639    5.8355 O.2       3 UNK        -0.5105 
     72 CA        -44.8312  -23.9745    5.7561 C.3       3 UNK         0.0299 
     73 CB        -45.0030  -23.5403    4.2909 C.3       3 UNK        -0.1972 
     74 N         -45.8257  -23.3067    6.6012 N.am      3 UNK        -0.4305 
     75 C         -45.6874  -23.1464    7.9278 C.2       2 UNK         0.5006 
     76 O         -44.6794  -23.4784    8.5522 O.2       2 UNK        -0.5106 
     77 CA        -46.8615  -22.5230    8.7071 C.3       2 UNK         0.0296 
     78 CB        -46.6214  -21.0202    8.9249 C.3       2 UNK        -0.2002 
     79 N         -48.1709  -22.7155    8.0788 N.am      2 UNK        -0.4032 
     80 C         -48.7767  -23.8993    7.9068 C.2       1 UNK         0.5000 
     81 O         -48.2891  -24.9664    8.2838 O.2       1 UNK        -0.5238 
     82 H82       -50.4183  -21.2415    4.1255 H         1 UNK         0.0889 
     83 H83       -49.6945  -22.3521    2.9583 H         1 UNK         0.0889 
     84 H84       -48.6784  -21.1956    3.8228 H         1 UNK         0.0889 
     85 H85       -50.9154  -22.2539    6.0555 H         1 UNK         0.3028 
     86 H86       -50.8404  -23.4897    7.8989 H         1 UNK         0.0864 
     87 H87       -50.0540  -25.6482    5.8754 H         1 UNK         0.0720 
     88 H88       -50.4937  -26.0140    7.5235 H         1 UNK         0.0720 
     89 H89       -52.0073  -27.2574    5.0378 H         1 UNK         0.0814 
     90 H90       -53.7026  -27.0414    5.3879 H         1 UNK         0.0814 
     91 H91       -50.9519  -29.0279    6.2099 H         1 UNK         0.1469 
     92 H92       -52.4503  -30.4478    9.9453 H         1 UNK         0.1381 
     93 H93       -54.2899  -27.0628    8.0431 H         1 UNK         0.1206 
     94 H94       -54.1771  -27.7826   10.9484 H         1 UNK         0.0813 
     95 H95       -55.4499  -28.2219    9.8469 H         1 UNK         0.0813 
     96 H96       -53.3004  -29.0429   12.7251 H         1 UNK         0.0638 
     97 H97       -52.7117  -30.5649   12.0989 H         1 UNK         0.0638 
     98 H98       -54.2916  -31.8193   13.5183 H         1 UNK         0.0568 
     99 H99       -50.9653  -30.7940   15.3161 H         1 UNK         0.3450 
    100 H100      -51.4067  -30.1755   13.7448 H         1 UNK         0.3450 
    101 H101      -56.0394  -30.9013   14.4686 H         1 UNK         0.2987 
    102 H102      -57.5222  -28.8050   14.9723 H         1 UNK         0.0766 
    103 H103      -57.8799  -29.5599   17.3779 H         1 UNK         0.0798 
    104 H104      -56.1440  -29.8054   17.5489 H         1 UNK         0.0798 
    105 H105      -57.0776  -30.8011   16.4400 H         1 UNK         0.0798 
    106 H106      -55.6880  -27.0405   16.2357 H         1 UNK         0.3198 
    107 H107      -57.9891  -24.5492   16.8221 H         1 UNK         0.0843 
    108 H108      -56.6139  -25.9268   19.1958 H         1 UNK         0.0831 
    109 H109      -58.3273  -25.5435   19.0908 H         1 UNK         0.0831 
    110 H110      -57.1462  -24.2456   19.1441 H         1 UNK         0.0831 
    111 H111      -55.1641  -24.8962   17.4838 H         1 UNK         0.3133 
    112 H112      -54.0246  -23.7555   14.2955 H         1 UNK         0.0566 
    113 H113      -52.8665  -22.1976   15.8160 H         1 UNK         0.0814 
    114 H114      -54.5786  -21.8130   15.7389 H         1 UNK         0.0814 
    115 H115      -53.9330  -22.6428   17.1462 H         1 UNK         0.0814 
    116 H116      -52.5249  -25.1694   14.9156 H         1 UNK         0.3091 
    117 H117      -51.0030  -26.0380   17.9020 H         1 UNK         0.0702 
    118 H118      -51.0268  -28.4098   17.3824 H         1 UNK         0.0785 
    119 H119      -52.2797  -28.2040   16.1669 H         1 UNK         0.0785 
    120 H120      -52.6566  -27.9721   17.8689 H         1 UNK         0.0785 
    121 H121      -50.5979  -26.8627   15.1541 H         1 UNK         0.2998 
    122 H122      -49.2141  -23.9041   13.9845 H         1 UNK         0.0697 
    123 H123      -47.3923  -26.2165   14.8248 H         1 UNK         0.0825 
    124 H124      -47.2143  -24.5532   15.3671 H         1 UNK         0.0825 
    125 H125      -47.0107  -24.9382   13.6691 H         1 UNK         0.0825 
    126 H126      -48.8708  -26.3835   12.7889 H         1 UNK         0.3029 
    127 H127      -51.9858  -27.2110   11.6666 H         1 UNK         0.0897 
    128 H128      -51.7491  -26.2410    9.3982 H         1 UNK         0.0792 
    129 H129      -52.3010  -25.0229   10.5268 H         1 UNK         0.0792 
    130 H130      -50.6202  -25.0294   10.0102 H         1 UNK         0.0792 
    131 H131      -49.3987  -27.1531   10.3110 H         1 UNK         0.3086 
    132 H132      -48.0554  -29.8078   12.0666 H         1 UNK         0.0583 
    133 H133      -48.0604  -31.4531   10.4574 H         1 UNK         0.1020 
    134 H134      -49.7580  -31.1898   10.6522 H         1 UNK         0.1020 
    135 H135      -50.5625  -31.4027    7.0438 H         1 UNK         0.0694 
    136 H136      -50.9043  -31.8082    8.7008 H         1 UNK         0.0694 
    137 H137      -47.2382  -28.8558    9.5488 H         1 UNK         0.2989 
    138 H138      -46.0020  -25.7291   10.4878 H         1 UNK         0.1055 
    139 H139      -44.1658  -26.9916   11.5354 H         1 UNK         0.0806 
    140 H140      -43.7162  -26.5212    9.9037 H         1 UNK         0.0806 
    141 H141      -44.1887  -28.1856   10.2493 H         1 UNK         0.0806 
    142 H142      -46.6509  -25.9673    8.4164 H         1 UNK         0.3061 
    143 H143      -45.7360  -28.0578    5.7428 H         1 UNK         0.0734 
    144 H144      -48.1357  -27.4695    5.1089 H         1 UNK         0.0832 
    145 H145      -47.9889  -28.8724    6.1511 H         1 UNK         0.0832 
    146 H146      -48.5083  -27.3393    6.8298 H         1 UNK         0.0832 
    147 H147      -46.9278  -25.4194    6.0916 H         1 UNK         0.3156 
    148 H148      -43.8356  -23.6605    6.0787 H         1 UNK         0.0589 
    149 H149      -45.9516  -23.8777    3.8718 H         1 UNK         0.0808 
    150 H150      -44.9560  -22.4560    4.1890 H         1 UNK         0.0808 
    151 H151      -44.2102  -23.9585    3.6689 H         1 UNK         0.0808 
    152 H152      -46.7018  -23.0577    6.1560 H         1 UNK         0.3098 
    153 H153      -46.8920  -23.0080    9.6854 H         1 UNK         0.0720 
    154 H154      -46.6038  -20.4728    7.9814 H         1 UNK         0.0791 
    155 H155      -45.6651  -20.8453    9.4209 H         1 UNK         0.0791 
    156 H156      -47.3950  -20.5813    9.5556 H         1 UNK         0.0791 
    157 H157      -48.6340  -21.8888    7.7291 H         1 UNK         0.3028 
@<TRIPOS>BOND
     1    1    2 1    
     2    1   82 1    
     3    1   83 1    
     4    1   84 1    
     5    2    3 2    
     6    2    4 am   BACKBONE|DICT|INTERRES
     7    4    5 1    
     8    4   85 1    
     9    5    6 1    
    10    5   80 1    
    11    5   86 1    
    12    6    7 1    
    13    6   87 1    
    14    6   88 1    
    15    7    8 1    
    16    8    9 1    
    17    8   89 1    
    18    8   90 1    
    19    9   10 ar   
    20    9   14 ar   
    21   10   11 ar   
    22   10   91 1    
    23   11   12 ar   
    24   11   58 1    
    25   12   13 ar   
    26   12   92 1    
    27   13   14 ar   
    28   13   15 1    
    29   14   93 1    
    30   15   16 1    
    31   15   94 1    
    32   15   95 1    
    33   16   17 1    
    34   17   18 1    
    35   17   96 1    
    36   17   97 1    
    37   18   19 1    
    38   18   22 1    
    39   18   98 1    
    40   19   20 am   BACKBONE|DICT|INTERRES
    41   19   21 2    
    42   20   99 1    
    43   20  100 1    
    44   22   23 am   BACKBONE|DICT|INTERRES
    45   22  101 1    
    46   23   24 2    
    47   23   25 1    
    48   25   26 1    
    49   25   27 1    
    50   25  102 1    
    51   26  103 1    
    52   26  104 1    
    53   26  105 1    
    54   27   28 am   BACKBONE|DICT|INTERRES
    55   27  106 1    
    56   28   29 2    
    57   28   30 1    
    58   30   31 1    
    59   30   32 1    
    60   30  107 1    
    61   31  108 1    
    62   31  109 1    
    63   31  110 1    
    64   32   33 am   BACKBONE|DICT|INTERRES
    65   32  111 1    
    66   33   34 2    
    67   33   35 1    
    68   35   36 1    
    69   35   37 1    
    70   35  112 1    
    71   36  113 1    
    72   36  114 1    
    73   36  115 1    
    74   37   38 am   BACKBONE|DICT|INTERRES
    75   37  116 1    
    76   38   39 2    
    77   38   40 1    
    78   40   41 1    
    79   40   42 1    
    80   40  117 1    
    81   41  118 1    
    82   41  119 1    
    83   41  120 1    
    84   42   43 am   BACKBONE|DICT|INTERRES
    85   42  121 1    
    86   43   44 2    
    87   43   45 1    
    88   45   46 1    
    89   45   47 1    
    90   45  122 1    
    91   46  123 1    
    92   46  124 1    
    93   46  125 1    
    94   47   48 am   BACKBONE|DICT|INTERRES
    95   47  126 1    
    96   48   49 2    
    97   48   50 1    
    98   50   51 1    
    99   50   52 1    
   100   50  127 1    
   101   51  128 1    
   102   51  129 1    
   103   51  130 1    
   104   52   53 am   BACKBONE|DICT|INTERRES
   105   52  131 1    
   106   53   54 2    
   107   53   55 1    
   108   55   56 1    
   109   55   59 1    
   110   55  132 1    
   111   56   57 1    
   112   56  133 1    
   113   56  134 1    
   114   57   58 1    
   115   58  135 1    
   116   58  136 1    
   117   59   60 am   BACKBONE|DICT|INTERRES
   118   59  137 1    
   119   60   61 2    
   120   60   62 1    
   121   62   63 1    
   122   62   64 1    
   123   62  138 1    
   124   63  139 1    
   125   63  140 1    
   126   63  141 1    
   127   64   65 am   BACKBONE|DICT|INTERRES
   128   64  142 1    
   129   65   66 2    
   130   65   67 1    
   131   67   68 1    
   132   67   69 1    
   133   67  143 1    
   134   68  144 1    
   135   68  145 1    
   136   68  146 1    
   137   69   70 am   BACKBONE|DICT|INTERRES
   138   69  147 1    
   139   70   71 2    
   140   70   72 1    
   141   72   73 1    
   142   72   74 1    
   143   72  148 1    
   144   73  149 1    
   145   73  150 1    
   146   73  151 1    
   147   74   75 am   BACKBONE|DICT|INTERRES
   148   74  152 1    
   149   75   76 2    
   150   75   77 1    
   151   77   78 1    
   152   77   79 1    
   153   77  153 1    
   154   78  154 1    
   155   78  155 1    
   156   78  156 1    
   157   79   80 am   BACKBONE|DICT|INTERRES
   158   79  157 1    
   159   80   81 2    
@<TRIPOS>SUBSTRUCTURE
     1 UNK         1 GROUP             0       ****    0 ROOT    
