@<TRIPOS>MOLECULE
3R207
157   159    1
SMALL
USER_CHARGES


@<TRIPOS>ATOM
      1 CA        -50.2064  -31.2938    8.6829 C.3       0 UNK        -0.1975 
      2 C         -49.5411  -30.9735    7.3545 C.2       0 UNK         0.4852 
      3 O         -48.5954  -31.6565    6.9607 O.2       0 UNK        -0.5216 
      4 N         -50.0162  -29.9252    6.6691 N.am      1 UNK        -0.4461 
      5 CA        -49.5081  -29.4743    5.3638 C.3       1 UNK         0.0864 
      6 C6        -50.5837  -28.7229    4.5365 C.3       14 UNK        -0.0898 
      7 S7        -52.0887  -29.7222    4.2596 S.3       14 UNK        -0.2598 
      8 C8        -53.3671  -28.7598    5.1311 C.3       14 UNK         0.0286 
      9 C9        -53.1701  -28.7878    6.6390 C.ar      14 UNK        -0.0844 
     10 C10       -52.5027  -27.7424    7.2796 C.ar      14 UNK        -0.0881 
     11 C11       -52.2903  -27.7762    8.6585 C.ar      14 UNK        -0.0643 
     12 C12       -52.7828  -28.8470    9.4099 C.ar      14 UNK        -0.0930 
     13 C13       -53.4798  -29.8849    8.7834 C.ar      14 UNK        -0.0827 
     14 C14       -53.6569  -29.8563    7.3962 C.ar      14 UNK        -0.1249 
     15 C15       -54.0376  -31.0469    9.5915 C.3       14 UNK         0.0141 
     16 S16       -55.8534  -30.9643    9.7039 S.3       14 UNK        -0.2313 
     17 C17       -56.1117  -29.9400   11.1945 C.3       14 UNK        -0.0915 
     18 CA        -55.9801  -28.3936   11.0372 C.3       13 UNK         0.0968 
     19 C         -56.7381  -27.8047    9.8177 C.2       13 UNK         0.5732 
     20 N         -56.0964  -27.7167    8.6612 N.am      13 UNK        -0.7310 
     21 O         -57.9047  -27.4242    9.9149 O.2       13 UNK        -0.5035 
     22 N         -56.4290  -27.6983   12.2475 N.am      13 UNK        -0.4233 
     23 C         -55.8336  -27.7283   13.4423 C.2       13 UNK         0.4989 
     24 O         -54.7870  -28.3368   13.6797 O.2       13 UNK        -0.4996 
     25 CA        -56.5447  -26.9680   14.5703 C.3       12 UNK         0.0216 
     26 CB        -57.9152  -27.5986   14.8950 C.3       12 UNK        -0.1964 
     27 N         -55.6961  -26.9856   15.7588 N.am      12 UNK        -0.4276 
     28 C         -55.7773  -26.1523   16.8021 C.2       12 UNK         0.5020 
     29 O         -56.5973  -25.2358   16.8792 O.2       12 UNK        -0.5489 
     30 CA        -54.8015  -26.3810   17.9734 C.3       11 UNK         0.0294 
     31 CB        -55.5346  -27.0310   19.1591 C.3       11 UNK        -0.2019 
     32 N         -53.6382  -27.2041   17.6243 N.am      11 UNK        -0.4493 
     33 C         -52.5901  -26.7674   16.9151 C.2       11 UNK         0.4932 
     34 O         -52.4901  -25.6197   16.4807 O.2       11 UNK        -0.5029 
     35 CA        -51.5005  -27.8076   16.6208 C.3       10 UNK         0.0280 
     36 CB        -51.9157  -28.7008   15.4396 C.3       10 UNK        -0.1976 
     37 N         -50.2278  -27.1618   16.2997 N.am      10 UNK        -0.4242 
     38 C         -49.2832  -26.8529   17.1964 C.2       10 UNK         0.5072 
     39 O         -49.3881  -27.0678   18.4054 O.2       10 UNK        -0.5224 
     40 CA        -47.9819  -26.2375   16.6548 C.3       9 UNK         0.0343 
     41 CB        -47.1571  -27.2903   15.8951 C.3       9 UNK        -0.2003 
     42 N         -48.1962  -25.0722   15.7958 N.am      9 UNK        -0.4272 
     43 C         -48.5864  -23.8648   16.2304 C.2       9 UNK         0.4988 
     44 O         -48.8348  -23.6052   17.4084 O.2       9 UNK        -0.5108 
     45 CA        -48.6936  -22.7477   15.1774 C.3       8 UNK         0.0248 
     46 CB        -47.3075  -22.1720   14.8432 C.3       8 UNK        -0.2001 
     47 N         -49.3389  -23.2159   13.9522 N.am      8 UNK        -0.4140 
     48 C         -50.6558  -23.4286   13.8287 C.2       8 UNK         0.5028 
     49 O         -51.4836  -23.0983   14.6773 O.2       8 UNK        -0.5428 
     50 CA        -51.1375  -24.1271   12.5455 C.3       7 UNK         0.0264 
     51 CB        -51.5922  -23.0984   11.4973 C.3       7 UNK        -0.1988 
     52 N         -50.1281  -25.0089   11.9545 N.am      7 UNK        -0.4454 
     53 C         -49.7294  -26.1766   12.4808 C.2       7 UNK         0.5027 
     54 O         -50.1516  -26.6286   13.5425 O.2       7 UNK        -0.5083 
     55 CA        -48.6482  -26.9582   11.7067 C.3       6 UNK         0.0844 
     56 C56       -49.2691  -27.8242   10.5794 C.3       14 UNK        -0.0967 
     57 S57       -49.7297  -26.8639    9.0942 S.3       14 UNK        -0.2604 
     58 C58       -51.5229  -26.6469    9.3177 C.3       14 UNK         0.0134 
     59 N         -47.5806  -26.0793   11.2214 N.am      6 UNK        -0.4116 
     60 C         -46.7897  -25.3282   11.9994 C.2       5 UNK         0.5034 
     61 O         -46.7993  -25.3629   13.2294 O.2       5 UNK        -0.5045 
     62 CA        -45.8975  -24.3083   11.2795 C.3       5 UNK         0.0224 
     63 CB        -44.5741  -24.9524   10.8378 C.3       5 UNK        -0.1978 
     64 N         -46.5783  -23.7007   10.1290 N.am      5 UNK        -0.4737 
     65 C         -47.6037  -22.8414   10.2430 C.2       4 UNK         0.5027 
     66 O         -48.0660  -22.5023   11.3319 O.2       4 UNK        -0.5211 
     67 CA        -48.2352  -22.2639    8.9632 C.3       4 UNK         0.0297 
     68 CB        -48.0678  -20.7353    8.9259 C.3       4 UNK        -0.1993 
     69 N         -47.6532  -22.8320    7.7463 N.am      4 UNK        -0.4486 
     70 C         -48.2802  -23.6589    6.9001 C.2       3 UNK         0.4961 
     71 O         -49.4631  -23.9848    7.0013 O.2       3 UNK        -0.5105 
     72 CA        -47.4429  -24.2399    5.7419 C.3       3 UNK         0.0299 
     73 CB        -46.1347  -23.4655    5.4590 C.3       3 UNK        -0.1972 
     74 N         -47.1554  -25.6651    5.9405 N.am      3 UNK        -0.4305 
     75 C         -46.5813  -26.2336    7.0108 C.2       2 UNK         0.5006 
     76 O         -46.1986  -25.6014    7.9970 O.2       2 UNK        -0.5106 
     77 CA        -46.4142  -27.7643    6.9750 C.3       2 UNK         0.0296 
     78 CB        -45.8314  -28.3235    8.2875 C.3       2 UNK        -0.2002 
     79 N         -47.6739  -28.4541    6.6863 N.am      2 UNK        -0.4032 
     80 C         -48.2048  -28.6458    5.4704 C.2       1 UNK         0.5000 
     81 O         -47.7000  -28.1810    4.4458 O.2       1 UNK        -0.5238 
     82 H82       -50.4534  -30.3831    9.2257 H         1 UNK         0.0889 
     83 H83       -49.5438  -31.8878    9.3120 H         1 UNK         0.0889 
     84 H84       -51.1215  -31.8617    8.5185 H         1 UNK         0.0889 
     85 H85       -50.8183  -29.4188    7.0237 H         1 UNK         0.3028 
     86 H86       -49.2378  -30.3648    4.7919 H         1 UNK         0.0864 
     87 H87       -50.8388  -27.7719    5.0034 H         1 UNK         0.0720 
     88 H88       -50.1913  -28.4689    3.5500 H         1 UNK         0.0720 
     89 H89       -54.3466  -29.1722    4.8846 H         1 UNK         0.0814 
     90 H90       -53.3696  -27.7337    4.7598 H         1 UNK         0.0814 
     91 H91       -52.1293  -26.9044    6.7066 H         1 UNK         0.1469 
     92 H92       -52.6255  -28.8713   10.4798 H         1 UNK         0.1381 
     93 H93       -54.1830  -30.6648    6.9064 H         1 UNK         0.1206 
     94 H94       -53.7610  -31.9827    9.1037 H         1 UNK         0.0813 
     95 H95       -53.5984  -31.0836   10.5896 H         1 UNK         0.0813 
     96 H96       -57.1128  -30.1772   11.5587 H         1 UNK         0.0638 
     97 H97       -55.4304  -30.2958   11.9681 H         1 UNK         0.0638 
     98 H98       -54.9269  -28.1463   10.9102 H         1 UNK         0.0568 
     99 H99       -56.5786  -27.3371    7.8627 H         1 UNK         0.3450 
    100 H100      -55.1584  -28.0771    8.5592 H         1 UNK         0.3450 
    101 H101      -57.2813  -27.1679   12.1199 H         1 UNK         0.2987 
    102 H102      -56.6808  -25.9339   14.2467 H         1 UNK         0.0766 
    103 H103      -58.4238  -27.0593   15.6943 H         1 UNK         0.0798 
    104 H104      -57.8133  -28.6385   15.2082 H         1 UNK         0.0798 
    105 H105      -58.5790  -27.5812   14.0300 H         1 UNK         0.0798 
    106 H106      -54.9541  -27.6739   15.7245 H         1 UNK         0.3198 
    107 H107      -54.4451  -25.3988   18.2924 H         1 UNK         0.0843 
    108 H108      -56.3871  -26.4252   19.4699 H         1 UNK         0.0831 
    109 H109      -54.8801  -27.1316   20.0252 H         1 UNK         0.0831 
    110 H110      -55.9154  -28.0213   18.9062 H         1 UNK         0.0831 
    111 H111      -53.6470  -28.1628   17.9441 H         1 UNK         0.3133 
    112 H112      -51.3739  -28.4416   17.5011 H         1 UNK         0.0566 
    113 H113      -51.1340  -29.4180   15.1890 H         1 UNK         0.0814 
    114 H114      -52.8152  -29.2719   15.6718 H         1 UNK         0.0814 
    115 H115      -52.1288  -28.1140   14.5450 H         1 UNK         0.0814 
    116 H116      -50.0997  -26.8951   15.3242 H         1 UNK         0.3091 
    117 H117      -47.3908  -25.9127   17.5139 H         1 UNK         0.0702 
    118 H118      -46.1844  -26.8940   15.6027 H         1 UNK         0.0785 
    119 H119      -47.6645  -27.6264   14.9901 H         1 UNK         0.0785 
    120 H120      -46.9762  -28.1690   16.5156 H         1 UNK         0.0785 
    121 H121      -47.9504  -25.1819   14.8167 H         1 UNK         0.2998 
    122 H122      -49.2978  -21.9425   15.6010 H         1 UNK         0.0697 
    123 H123      -46.6425  -22.9271   14.4234 H         1 UNK         0.0825 
    124 H124      -46.8257  -21.7747   15.7375 H         1 UNK         0.0825 
    125 H125      -47.3810  -21.3564   14.1234 H         1 UNK         0.0825 
    126 H126      -48.7412  -23.4102   13.1574 H         1 UNK         0.3029 
    127 H127      -51.9992  -24.7414   12.8170 H         1 UNK         0.0897 
    128 H128      -51.9819  -23.5850   10.6030 H         1 UNK         0.0792 
    129 H129      -52.3883  -22.4672   11.8946 H         1 UNK         0.0792 
    130 H130      -50.7777  -22.4395   11.1955 H         1 UNK         0.0792 
    131 H131      -49.7116  -24.7080   11.0856 H         1 UNK         0.3086 
    132 H132      -48.1886  -27.6420   12.4236 H         1 UNK         0.0583 
    133 H133      -48.5451  -28.5785   10.2702 H         1 UNK         0.1020 
    134 H134      -50.1275  -28.3910   10.9453 H         1 UNK         0.1020 
    135 H135      -51.7802  -26.5750   10.3746 H         1 UNK         0.0694 
    136 H136      -51.8161  -25.6963    8.8692 H         1 UNK         0.0694 
    137 H137      -47.5106  -25.9691   10.2186 H         1 UNK         0.2989 
    138 H138      -45.6648  -23.5139   11.9926 H         1 UNK         0.1055 
    139 H139      -44.0224  -25.3319   11.6989 H         1 UNK         0.0806 
    140 H140      -43.9305  -24.2321   10.3327 H         1 UNK         0.0806 
    141 H141      -44.7332  -25.7923   10.1613 H         1 UNK         0.0806 
    142 H142      -46.3193  -24.0542    9.2120 H         1 UNK         0.3061 
    143 H143      -49.3032  -22.4861    9.0126 H         1 UNK         0.0734 
    144 H144      -48.5199  -20.2701    9.8032 H         1 UNK         0.0832 
    145 H145      -47.0171  -20.4434    8.9072 H         1 UNK         0.0832 
    146 H146      -48.5519  -20.3055    8.0489 H         1 UNK         0.0832 
    147 H147      -46.6774  -22.6327    7.5772 H         1 UNK         0.3156 
    148 H148      -48.0662  -24.1703    4.8491 H         1 UNK         0.0589 
    149 H149      -45.4142  -23.5501    6.2734 H         1 UNK         0.0808 
    150 H150      -45.6499  -23.8422    4.5583 H         1 UNK         0.0808 
    151 H151      -46.3307  -22.4052    5.2923 H         1 UNK         0.0808 
    152 H152      -47.4503  -26.2894    5.1966 H         1 UNK         0.3098 
    153 H153      -45.7017  -27.9875    6.1781 H         1 UNK         0.0720 
    154 H154      -45.7033  -29.4050    8.2370 H         1 UNK         0.0791 
    155 H155      -46.4690  -28.0993    9.1424 H         1 UNK         0.0791 
    156 H156      -44.8505  -27.8927    8.4928 H         1 UNK         0.0791 
    157 H157      -48.1828  -28.8158    7.4789 H         1 UNK         0.3028 
@<TRIPOS>BOND
     1    1    2 1    
     2    1   82 1    
     3    1   83 1    
     4    1   84 1    
     5    2    3 2    
     6    2    4 am   BACKBONE|DICT|INTERRES
     7    4    5 1    
     8    4   85 1    
     9    5    6 1    
    10    5   80 1    
    11    5   86 1    
    12    6    7 1    
    13    6   87 1    
    14    6   88 1    
    15    7    8 1    
    16    8    9 1    
    17    8   89 1    
    18    8   90 1    
    19    9   10 ar   
    20    9   14 ar   
    21   10   11 ar   
    22   10   91 1    
    23   11   12 ar   
    24   11   58 1    
    25   12   13 ar   
    26   12   92 1    
    27   13   14 ar   
    28   13   15 1    
    29   14   93 1    
    30   15   16 1    
    31   15   94 1    
    32   15   95 1    
    33   16   17 1    
    34   17   18 1    
    35   17   96 1    
    36   17   97 1    
    37   18   19 1    
    38   18   22 1    
    39   18   98 1    
    40   19   20 am   BACKBONE|DICT|INTERRES
    41   19   21 2    
    42   20   99 1    
    43   20  100 1    
    44   22   23 am   BACKBONE|DICT|INTERRES
    45   22  101 1    
    46   23   24 2    
    47   23   25 1    
    48   25   26 1    
    49   25   27 1    
    50   25  102 1    
    51   26  103 1    
    52   26  104 1    
    53   26  105 1    
    54   27   28 am   BACKBONE|DICT|INTERRES
    55   27  106 1    
    56   28   29 2    
    57   28   30 1    
    58   30   31 1    
    59   30   32 1    
    60   30  107 1    
    61   31  108 1    
    62   31  109 1    
    63   31  110 1    
    64   32   33 am   BACKBONE|DICT|INTERRES
    65   32  111 1    
    66   33   34 2    
    67   33   35 1    
    68   35   36 1    
    69   35   37 1    
    70   35  112 1    
    71   36  113 1    
    72   36  114 1    
    73   36  115 1    
    74   37   38 am   BACKBONE|DICT|INTERRES
    75   37  116 1    
    76   38   39 2    
    77   38   40 1    
    78   40   41 1    
    79   40   42 1    
    80   40  117 1    
    81   41  118 1    
    82   41  119 1    
    83   41  120 1    
    84   42   43 am   BACKBONE|DICT|INTERRES
    85   42  121 1    
    86   43   44 2    
    87   43   45 1    
    88   45   46 1    
    89   45   47 1    
    90   45  122 1    
    91   46  123 1    
    92   46  124 1    
    93   46  125 1    
    94   47   48 am   BACKBONE|DICT|INTERRES
    95   47  126 1    
    96   48   49 2    
    97   48   50 1    
    98   50   51 1    
    99   50   52 1    
   100   50  127 1    
   101   51  128 1    
   102   51  129 1    
   103   51  130 1    
   104   52   53 am   BACKBONE|DICT|INTERRES
   105   52  131 1    
   106   53   54 2    
   107   53   55 1    
   108   55   56 1    
   109   55   59 1    
   110   55  132 1    
   111   56   57 1    
   112   56  133 1    
   113   56  134 1    
   114   57   58 1    
   115   58  135 1    
   116   58  136 1    
   117   59   60 am   BACKBONE|DICT|INTERRES
   118   59  137 1    
   119   60   61 2    
   120   60   62 1    
   121   62   63 1    
   122   62   64 1    
   123   62  138 1    
   124   63  139 1    
   125   63  140 1    
   126   63  141 1    
   127   64   65 am   BACKBONE|DICT|INTERRES
   128   64  142 1    
   129   65   66 2    
   130   65   67 1    
   131   67   68 1    
   132   67   69 1    
   133   67  143 1    
   134   68  144 1    
   135   68  145 1    
   136   68  146 1    
   137   69   70 am   BACKBONE|DICT|INTERRES
   138   69  147 1    
   139   70   71 2    
   140   70   72 1    
   141   72   73 1    
   142   72   74 1    
   143   72  148 1    
   144   73  149 1    
   145   73  150 1    
   146   73  151 1    
   147   74   75 am   BACKBONE|DICT|INTERRES
   148   74  152 1    
   149   75   76 2    
   150   75   77 1    
   151   77   78 1    
   152   77   79 1    
   153   77  153 1    
   154   78  154 1    
   155   78  155 1    
   156   78  156 1    
   157   79   80 am   BACKBONE|DICT|INTERRES
   158   79  157 1    
   159   80   81 2    
@<TRIPOS>SUBSTRUCTURE
     1 UNK         1 GROUP             0       ****    0 ROOT    
