@<TRIPOS>MOLECULE
3R207
157   159    1
SMALL
USER_CHARGES


@<TRIPOS>ATOM
      1 CA        -51.7397  -25.9046    3.7024 C.3       0 UNK        -0.1975 
      2 C         -50.9120  -26.7617    4.6477 C.2       0 UNK         0.4852 
      3 O         -50.4648  -26.2719    5.6856 O.2       0 UNK        -0.5216 
      4 N         -50.7014  -28.0381    4.3006 N.am      1 UNK        -0.4461 
      5 CA        -49.9177  -28.9990    5.0839 C.3       1 UNK         0.0864 
      6 C6        -50.0253  -30.4443    4.5330 C.3       14 UNK        -0.0898 
      7 S7        -51.7456  -31.0124    4.2959 S.3       14 UNK        -0.2598 
      8 C8        -52.0511  -31.9860    5.8037 C.3       14 UNK         0.0286 
      9 C9        -52.2931  -31.0910    7.0097 C.ar      14 UNK        -0.0844 
     10 C10       -51.2627  -30.8349    7.9187 C.ar      14 UNK        -0.0881 
     11 C11       -51.4800  -30.0035    9.0215 C.ar      14 UNK        -0.0643 
     12 C12       -52.7438  -29.4427    9.2236 C.ar      14 UNK        -0.0930 
     13 C13       -53.7855  -29.7040    8.3285 C.ar      14 UNK        -0.0827 
     14 C14       -53.5543  -30.5251    7.2212 C.ar      14 UNK        -0.1249 
     15 C15       -55.1613  -29.1076    8.5737 C.3       14 UNK         0.0141 
     16 S16       -56.0983  -30.1486    9.7316 S.3       14 UNK        -0.2313 
     17 C17       -57.3617  -28.9805   10.3409 C.3       14 UNK        -0.0915 
     18 CA        -56.8282  -27.9487   11.3763 C.3       13 UNK         0.0968 
     19 C         -57.9905  -27.0970   11.9677 C.2       13 UNK         0.5732 
     20 N         -58.2392  -27.1090   13.2728 N.am      13 UNK        -0.7310 
     21 O         -58.6799  -26.4046   11.2225 O.2       13 UNK        -0.5035 
     22 N         -55.9517  -28.5697   12.3804 N.am      13 UNK        -0.4233 
     23 C         -55.0476  -27.9124   13.1129 C.2       13 UNK         0.4989 
     24 O         -54.8247  -26.7038   13.0201 O.2       13 UNK        -0.4996 
     25 CA        -54.2660  -28.7578   14.1321 C.3       12 UNK         0.0216 
     26 CB        -52.7530  -28.6738   13.8645 C.3       12 UNK        -0.1964 
     27 N         -54.5317  -28.3568   15.5151 N.am      12 UNK        -0.4276 
     28 C         -55.7273  -28.2322   16.1057 C.2       12 UNK         0.5020 
     29 O         -56.7965  -28.4519   15.5322 O.2       12 UNK        -0.5489 
     30 CA        -55.7617  -27.7926   17.5853 C.3       11 UNK         0.0294 
     31 CB        -55.9873  -29.0090   18.5053 C.3       11 UNK        -0.2019 
     32 N         -54.6235  -26.9818   18.0566 N.am      11 UNK        -0.4493 
     33 C         -53.3331  -27.3261   18.1677 C.2       11 UNK         0.4932 
     34 O         -52.8770  -28.4191   17.8255 O.2       11 UNK        -0.5029 
     35 CA        -52.3935  -26.2717   18.7726 C.3       10 UNK         0.0280 
     36 CB        -52.2334  -26.5010   20.2842 C.3       10 UNK        -0.1976 
     37 N         -51.0772  -26.3223   18.1351 N.am      10 UNK        -0.4242 
     38 C         -50.8180  -25.8614   16.9053 C.2       10 UNK         0.5072 
     39 O         -51.6466  -25.2773   16.2039 O.2       10 UNK        -0.5224 
     40 CA        -49.4031  -26.1323   16.3632 C.3       9 UNK         0.0343 
     41 CB        -49.3980  -27.3905   15.4795 C.3       9 UNK        -0.2003 
     42 N         -48.8741  -25.0025   15.5966 N.am      9 UNK        -0.4272 
     43 C         -48.5831  -23.7993   16.1115 C.2       9 UNK         0.4988 
     44 O         -48.6785  -23.5257   17.3092 O.2       9 UNK        -0.5108 
     45 CA        -48.0769  -22.7188   15.1403 C.3       8 UNK         0.0248 
     46 CB        -46.5451  -22.7805   15.0263 C.3       8 UNK        -0.2001 
     47 N         -48.6721  -22.8098   13.8045 N.am      8 UNK        -0.4140 
     48 C         -49.9470  -22.5081   13.5160 C.2       8 UNK         0.5028 
     49 O         -50.7483  -22.0619   14.3380 O.2       8 UNK        -0.5428 
     50 CA        -50.4104  -22.7376   12.0653 C.3       7 UNK         0.0264 
     51 CB        -50.0568  -21.5306   11.1821 C.3       7 UNK        -0.1988 
     52 N         -49.8541  -23.9580   11.4759 N.am      7 UNK        -0.4454 
     53 C         -50.1658  -25.2004   11.8747 C.2       7 UNK         0.5027 
     54 O         -51.0166  -25.4499   12.7262 O.2       7 UNK        -0.5083 
     55 CA        -49.3776  -26.3636   11.2452 C.3       6 UNK         0.0844 
     56 C56       -50.0830  -26.8981    9.9762 C.3       14 UNK        -0.0967 
     57 S57       -49.2637  -28.4033    9.3572 S.3       14 UNK        -0.2604 
     58 C58       -50.3445  -29.7197    9.9900 C.3       14 UNK         0.0134 
     59 N         -47.9812  -25.9898   11.0020 N.am      6 UNK        -0.4116 
     60 C         -47.0577  -25.8417   11.9610 C.2       5 UNK         0.5034 
     61 O         -47.2752  -26.0282   13.1578 O.2       5 UNK        -0.5045 
     62 CA        -45.6679  -25.3587   11.5133 C.3       5 UNK         0.0224 
     63 CB        -44.8083  -26.5329   11.0228 C.3       5 UNK        -0.1978 
     64 N         -45.7374  -24.3295   10.4723 N.am      5 UNK        -0.4737 
     65 C         -46.2220  -23.0972   10.6803 C.2       4 UNK         0.5027 
     66 O         -46.6231  -22.7004   11.7725 O.2       4 UNK        -0.5211 
     67 CA        -46.3247  -22.1629    9.4641 C.3       4 UNK         0.0297 
     68 CB        -45.0177  -21.3760    9.2819 C.3       4 UNK        -0.1993 
     69 N         -46.6644  -22.8437    8.2119 N.am      4 UNK        -0.4486 
     70 C         -47.7417  -23.6138    8.0042 C.2       3 UNK         0.4961 
     71 O         -48.5733  -23.8796    8.8732 O.2       3 UNK        -0.5105 
     72 CA        -47.9253  -24.1984    6.5940 C.3       3 UNK         0.0299 
     73 CB        -47.0725  -23.5094    5.5038 C.3       3 UNK        -0.1972 
     74 N         -47.7197  -25.6492    6.5642 N.am      3 UNK        -0.4305 
     75 C         -46.6102  -26.3260    6.9081 C.2       2 UNK         0.5006 
     76 O         -45.6160  -25.7910    7.4030 O.2       2 UNK        -0.5106 
     77 CA        -46.5842  -27.8483    6.6494 C.3       2 UNK         0.0296 
     78 CB        -45.9363  -28.6228    7.8114 C.3       2 UNK        -0.2002 
     79 N         -47.9154  -28.4002    6.3780 N.am      2 UNK        -0.4032 
     80 C         -48.4432  -28.5507    5.1564 C.2       1 UNK         0.5000 
     81 O         -47.8294  -28.3245    4.1101 O.2       1 UNK        -0.5238 
     82 H82       -52.0731  -26.4657    2.8297 H         1 UNK         0.0889 
     83 H83       -51.1520  -25.0549    3.3564 H         1 UNK         0.0889 
     84 H84       -52.6205  -25.5232    4.2179 H         1 UNK         0.0889 
     85 H85       -51.0848  -28.3943    3.4370 H         1 UNK         0.3028 
     86 H86       -50.3310  -28.9885    6.0940 H         1 UNK         0.0864 
     87 H87       -49.5032  -31.1420    5.1902 H         1 UNK         0.0720 
     88 H88       -49.5276  -30.5181    3.5639 H         1 UNK         0.0720 
     89 H89       -51.2190  -32.6688    5.9826 H         1 UNK         0.0814 
     90 H90       -52.9269  -32.6160    5.6413 H         1 UNK         0.0814 
     91 H91       -50.2857  -31.2718    7.7631 H         1 UNK         0.1469 
     92 H92       -52.9226  -28.8101   10.0822 H         1 UNK         0.1381 
     93 H93       -54.3566  -30.7280    6.5247 H         1 UNK         0.1206 
     94 H94       -55.0520  -28.0994    8.9742 H         1 UNK         0.0813 
     95 H95       -55.7160  -29.0116    7.6391 H         1 UNK         0.0813 
     96 H96       -58.1603  -29.5777   10.7849 H         1 UNK         0.0638 
     97 H97       -57.8063  -28.4695    9.4848 H         1 UNK         0.0638 
     98 H98       -56.2123  -27.2365   10.8250 H         1 UNK         0.0568 
     99 H99       -57.6767  -27.6619   13.9118 H         1 UNK         0.3450 
    100 H100      -58.9952  -26.5486   13.6318 H         1 UNK         0.3450 
    101 H101      -56.0901  -29.5577   12.5317 H         1 UNK         0.2987 
    102 H102      -54.5699  -29.8019   14.0354 H         1 UNK         0.0766 
    103 H103      -52.1907  -29.3183   14.5405 H         1 UNK         0.0798 
    104 H104      -52.3818  -27.6548   13.9866 H         1 UNK         0.0798 
    105 H105      -52.5177  -28.9858   12.8462 H         1 UNK         0.0798 
    106 H106      -53.7224  -28.2167   16.1114 H         1 UNK         0.3198 
    107 H107      -56.6362  -27.1468   17.6818 H         1 UNK         0.0843 
    108 H108      -56.1074  -28.7043   19.5449 H         1 UNK         0.0831 
    109 H109      -55.1596  -29.7170   18.4559 H         1 UNK         0.0831 
    110 H110      -56.8911  -29.5497   18.2206 H         1 UNK         0.0831 
    111 H111      -54.8709  -26.0415   18.3357 H         1 UNK         0.3133 
    112 H112      -52.8191  -25.2781   18.6152 H         1 UNK         0.0566 
    113 H113      -51.5851  -25.7487   20.7340 H         1 UNK         0.0814 
    114 H114      -53.1969  -26.4421   20.7925 H         1 UNK         0.0814 
    115 H115      -51.8110  -27.4831   20.5021 H         1 UNK         0.0814 
    116 H116      -50.3579  -26.8328   18.6266 H         1 UNK         0.3091 
    117 H117      -48.7310  -26.3022   17.2070 H         1 UNK         0.0702 
    118 H118      -48.3877  -27.6469   15.1598 H         1 UNK         0.0785 
    119 H119      -50.0062  -27.2536   14.5851 H         1 UNK         0.0785 
    120 H120      -49.7975  -28.2514   16.0174 H         1 UNK         0.0785 
    121 H121      -48.7332  -25.1533   14.6059 H         1 UNK         0.2998 
    122 H122      -48.3447  -21.7474   15.5614 H         1 UNK         0.0697 
    123 H123      -46.1596  -21.9604   14.4203 H         1 UNK         0.0825 
    124 H124      -46.0754  -22.7059   16.0080 H         1 UNK         0.0825 
    125 H125      -46.2124  -23.7157   14.5740 H         1 UNK         0.0825 
    126 H126      -48.0468  -23.0660   13.0452 H         1 UNK         0.3029 
    127 H127      -51.4976  -22.8416   12.0787 H         1 UNK         0.0897 
    128 H128      -50.3930  -21.6755   10.1551 H         1 UNK         0.0792 
    129 H129      -50.5334  -20.6236   11.5561 H         1 UNK         0.0792 
    130 H130      -48.9828  -21.3472   11.1615 H         1 UNK         0.0792 
    131 H131      -49.2027  -23.8466   10.7030 H         1 UNK         0.3086 
    132 H132      -49.3763  -27.1710   11.9815 H         1 UNK         0.0583 
    133 H133      -51.1338  -27.1138   10.1765 H         1 UNK         0.1020 
    134 H134      -50.0760  -26.1490    9.1817 H         1 UNK         0.1020 
    135 H135      -49.7502  -30.6241   10.1288 H         1 UNK         0.0694 
    136 H136      -50.7249  -29.4527   10.9772 H         1 UNK         0.0694 
    137 H137      -47.7395  -25.7532   10.0505 H         1 UNK         0.2989 
    138 H138      -45.1793  -24.9229   12.3879 H         1 UNK         0.1055 
    139 H139      -44.7556  -27.3216   11.7748 H         1 UNK         0.0806 
    140 H140      -43.7865  -26.2153   10.8145 H         1 UNK         0.0806 
    141 H141      -45.2120  -26.9738   10.1125 H         1 UNK         0.0806 
    142 H142      -45.4560  -24.5907    9.5351 H         1 UNK         0.3061 
    143 H143      -47.1241  -21.4486    9.6678 H         1 UNK         0.0734 
    144 H144      -45.1077  -20.6314    8.4908 H         1 UNK         0.0832 
    145 H145      -44.7538  -20.8427   10.1965 H         1 UNK         0.0832 
    146 H146      -44.1818  -22.0318    9.0349 H         1 UNK         0.0832 
    147 H147      -46.0250  -22.7173    7.4408 H         1 UNK         0.3156 
    148 H148      -48.9728  -24.0332    6.3380 H         1 UNK         0.0589 
    149 H149      -46.0036  -23.6762    5.6411 H         1 UNK         0.0808 
    150 H150      -47.3348  -23.8847    4.5145 H         1 UNK         0.0808 
    151 H151      -47.2447  -22.4322    5.4888 H         1 UNK         0.0808 
    152 H152      -48.5251  -26.1704    6.2311 H         1 UNK         0.3098 
    153 H153      -45.9479  -27.9961    5.7745 H         1 UNK         0.0720 
    154 H154      -46.4623  -28.4652    8.7517 H         1 UNK         0.0791 
    155 H155      -44.9021  -28.3103    7.9612 H         1 UNK         0.0791 
    156 H156      -45.9204  -29.6945    7.6129 H         1 UNK         0.0791 
    157 H157      -48.4939  -28.5721    7.1922 H         1 UNK         0.3028 
@<TRIPOS>BOND
     1    1    2 1    
     2    1   82 1    
     3    1   83 1    
     4    1   84 1    
     5    2    3 2    
     6    2    4 am   BACKBONE|DICT|INTERRES
     7    4    5 1    
     8    4   85 1    
     9    5    6 1    
    10    5   80 1    
    11    5   86 1    
    12    6    7 1    
    13    6   87 1    
    14    6   88 1    
    15    7    8 1    
    16    8    9 1    
    17    8   89 1    
    18    8   90 1    
    19    9   10 ar   
    20    9   14 ar   
    21   10   11 ar   
    22   10   91 1    
    23   11   12 ar   
    24   11   58 1    
    25   12   13 ar   
    26   12   92 1    
    27   13   14 ar   
    28   13   15 1    
    29   14   93 1    
    30   15   16 1    
    31   15   94 1    
    32   15   95 1    
    33   16   17 1    
    34   17   18 1    
    35   17   96 1    
    36   17   97 1    
    37   18   19 1    
    38   18   22 1    
    39   18   98 1    
    40   19   20 am   BACKBONE|DICT|INTERRES
    41   19   21 2    
    42   20   99 1    
    43   20  100 1    
    44   22   23 am   BACKBONE|DICT|INTERRES
    45   22  101 1    
    46   23   24 2    
    47   23   25 1    
    48   25   26 1    
    49   25   27 1    
    50   25  102 1    
    51   26  103 1    
    52   26  104 1    
    53   26  105 1    
    54   27   28 am   BACKBONE|DICT|INTERRES
    55   27  106 1    
    56   28   29 2    
    57   28   30 1    
    58   30   31 1    
    59   30   32 1    
    60   30  107 1    
    61   31  108 1    
    62   31  109 1    
    63   31  110 1    
    64   32   33 am   BACKBONE|DICT|INTERRES
    65   32  111 1    
    66   33   34 2    
    67   33   35 1    
    68   35   36 1    
    69   35   37 1    
    70   35  112 1    
    71   36  113 1    
    72   36  114 1    
    73   36  115 1    
    74   37   38 am   BACKBONE|DICT|INTERRES
    75   37  116 1    
    76   38   39 2    
    77   38   40 1    
    78   40   41 1    
    79   40   42 1    
    80   40  117 1    
    81   41  118 1    
    82   41  119 1    
    83   41  120 1    
    84   42   43 am   BACKBONE|DICT|INTERRES
    85   42  121 1    
    86   43   44 2    
    87   43   45 1    
    88   45   46 1    
    89   45   47 1    
    90   45  122 1    
    91   46  123 1    
    92   46  124 1    
    93   46  125 1    
    94   47   48 am   BACKBONE|DICT|INTERRES
    95   47  126 1    
    96   48   49 2    
    97   48   50 1    
    98   50   51 1    
    99   50   52 1    
   100   50  127 1    
   101   51  128 1    
   102   51  129 1    
   103   51  130 1    
   104   52   53 am   BACKBONE|DICT|INTERRES
   105   52  131 1    
   106   53   54 2    
   107   53   55 1    
   108   55   56 1    
   109   55   59 1    
   110   55  132 1    
   111   56   57 1    
   112   56  133 1    
   113   56  134 1    
   114   57   58 1    
   115   58  135 1    
   116   58  136 1    
   117   59   60 am   BACKBONE|DICT|INTERRES
   118   59  137 1    
   119   60   61 2    
   120   60   62 1    
   121   62   63 1    
   122   62   64 1    
   123   62  138 1    
   124   63  139 1    
   125   63  140 1    
   126   63  141 1    
   127   64   65 am   BACKBONE|DICT|INTERRES
   128   64  142 1    
   129   65   66 2    
   130   65   67 1    
   131   67   68 1    
   132   67   69 1    
   133   67  143 1    
   134   68  144 1    
   135   68  145 1    
   136   68  146 1    
   137   69   70 am   BACKBONE|DICT|INTERRES
   138   69  147 1    
   139   70   71 2    
   140   70   72 1    
   141   72   73 1    
   142   72   74 1    
   143   72  148 1    
   144   73  149 1    
   145   73  150 1    
   146   73  151 1    
   147   74   75 am   BACKBONE|DICT|INTERRES
   148   74  152 1    
   149   75   76 2    
   150   75   77 1    
   151   77   78 1    
   152   77   79 1    
   153   77  153 1    
   154   78  154 1    
   155   78  155 1    
   156   78  156 1    
   157   79   80 am   BACKBONE|DICT|INTERRES
   158   79  157 1    
   159   80   81 2    
@<TRIPOS>SUBSTRUCTURE
     1 UNK         1 GROUP             0       ****    0 ROOT    
