@<TRIPOS>MOLECULE
3R207
157   159    1
SMALL
USER_CHARGES


@<TRIPOS>ATOM
      1 CA        -48.9939  -24.9760    4.3939 C.3       0 UNK        -0.1975 
      2 C         -49.7994  -26.0238    5.1478 C.2       0 UNK         0.4852 
      3 O         -51.0219  -26.0552    5.0267 O.2       0 UNK        -0.5216 
      4 N         -49.1192  -26.8790    5.9155 N.am      1 UNK        -0.4461 
      5 CA        -49.6741  -27.9364    6.7583 C.3       1 UNK         0.0864 
      6 C6        -50.2660  -29.0991    5.9158 C.3       14 UNK        -0.0898 
      7 S7        -51.3894  -30.1835    6.8598 S.3       14 UNK        -0.2598 
      8 C8        -53.0059  -29.8817    6.0718 C.3       14 UNK         0.0286 
      9 C9        -53.8270  -28.8193    6.7922 C.ar      14 UNK        -0.0844 
     10 C10       -53.9511  -27.5281    6.2682 C.ar      14 UNK        -0.0881 
     11 C11       -54.7808  -26.5863    6.8884 C.ar      14 UNK        -0.0643 
     12 C12       -55.4860  -26.9442    8.0414 C.ar      14 UNK        -0.0930 
     13 C13       -55.3413  -28.2197    8.5971 C.ar      14 UNK        -0.0827 
     14 C14       -54.5157  -29.1526    7.9624 C.ar      14 UNK        -0.1249 
     15 C15       -56.0647  -28.5977    9.8870 C.3       14 UNK         0.0141 
     16 S16       -55.7486  -27.4597   11.2845 S.3       14 UNK        -0.2313 
     17 C17       -53.9687  -27.1076   11.1260 C.3       14 UNK        -0.0915 
     18 CA        -53.0557  -28.2772   11.5639 C.3       13 UNK         0.0968 
     19 C         -51.6383  -28.0920   10.9686 C.2       13 UNK         0.5732 
     20 N         -50.6879  -27.5044   11.6841 N.am      13 UNK        -0.7310 
     21 O         -51.3967  -28.4998    9.8386 O.2       13 UNK        -0.5035 
     22 N         -53.0199  -28.4241   13.0233 N.am      13 UNK        -0.4233 
     23 C         -53.4222  -29.5026   13.7021 C.2       13 UNK         0.4989 
     24 O         -53.9908  -30.4700   13.1919 O.2       13 UNK        -0.4996 
     25 CA        -53.1210  -29.4914   15.2148 C.3       12 UNK         0.0216 
     26 CB        -53.2808  -30.8790   15.8737 C.3       12 UNK        -0.1964 
     27 N         -51.8066  -28.9089   15.5312 N.am      12 UNK        -0.4276 
     28 C         -50.6110  -29.3462   15.1018 C.2       12 UNK         0.5020 
     29 O         -50.4631  -30.3426   14.3930 O.2       12 UNK        -0.5489 
     30 CA        -49.3637  -28.5604   15.5385 C.3       11 UNK         0.0294 
     31 CB        -48.3938  -28.3054   14.3680 C.3       11 UNK        -0.2019 
     32 N         -49.6753  -27.2785   16.1833 N.am      11 UNK        -0.4493 
     33 C         -49.1295  -26.8845   17.3433 C.2       11 UNK         0.4932 
     34 O         -48.4342  -27.6099   18.0557 O.2       11 UNK        -0.5029 
     35 CA        -49.3507  -25.4300   17.7800 C.3       10 UNK         0.0280 
     36 CB        -48.3264  -24.5093   17.0973 C.3       10 UNK        -0.1976 
     37 N         -50.7068  -24.9410   17.5237 N.am      10 UNK        -0.4242 
     38 C         -51.7118  -25.0531   18.4042 C.2       10 UNK         0.5072 
     39 O         -51.6362  -25.6852   19.4588 O.2       10 UNK        -0.5224 
     40 CA        -53.0116  -24.3004   18.0760 C.3       9 UNK         0.0343 
     41 CB        -52.9068  -22.8296   18.5122 C.3       9 UNK        -0.2003 
     42 N         -53.3687  -24.3632   16.6586 N.am      9 UNK        -0.4272 
     43 C         -53.8969  -25.4453   16.0728 C.2       9 UNK         0.4988 
     44 O         -54.1217  -26.5022   16.6603 O.2       9 UNK        -0.5108 
     45 CA        -54.2183  -25.3334   14.5751 C.3       8 UNK         0.0248 
     46 CB        -55.5924  -24.6816   14.3571 C.3       8 UNK        -0.2001 
     47 N         -53.2020  -24.6017   13.8145 N.am      8 UNK        -0.4140 
     48 C         -51.9367  -25.0016   13.6419 C.2       8 UNK         0.5028 
     49 O         -51.4775  -26.0513   14.1067 O.2       8 UNK        -0.5428 
     50 CA        -51.0661  -24.1095   12.7445 C.3       7 UNK         0.0264 
     51 CB        -49.5637  -24.2830   13.0251 C.3       7 UNK        -0.1988 
     52 N         -51.3082  -24.3985   11.3331 N.am      7 UNK        -0.4454 
     53 C         -52.3342  -23.9513   10.5974 C.2       7 UNK         0.5027 
     54 O         -53.2484  -23.2686   11.0639 O.2       7 UNK        -0.5083 
     55 CA        -52.2937  -24.2815    9.0846 C.3       6 UNK         0.0844 
     56 C56       -53.5497  -23.7659    8.3321 C.3       14 UNK        -0.0967 
     57 S57       -53.4969  -24.1304    6.5427 S.3       14 UNK        -0.2604 
     58 C58       -54.9520  -25.1967    6.2894 C.3       14 UNK         0.0134 
     59 N         -51.0465  -23.7666    8.5030 N.am      6 UNK        -0.4116 
     60 C         -49.8579  -24.3727    8.6003 C.2       5 UNK         0.5034 
     61 O         -49.7002  -25.4720    9.1328 O.2       5 UNK        -0.5045 
     62 CA        -48.6394  -23.5997    8.0888 C.3       5 UNK         0.0224 
     63 CB        -48.3235  -22.4037    9.0089 C.3       5 UNK        -0.1978 
     64 N         -47.4947  -24.5062    8.0519 N.am      5 UNK        -0.4737 
     65 C         -46.3935  -24.3380    7.3143 C.2       4 UNK         0.5027 
     66 O         -46.2253  -23.3731    6.5672 O.2       4 UNK        -0.5211 
     67 CA        -45.3184  -25.4408    7.3835 C.3       4 UNK         0.0297 
     68 CB        -43.8969  -24.9024    7.1120 C.3       4 UNK        -0.1993 
     69 N         -45.3508  -26.2517    8.6086 N.am      4 UNK        -0.4486 
     70 C         -45.0853  -25.8619    9.8673 C.2       3 UNK         0.4961 
     71 O         -44.8143  -24.7027   10.1830 O.2       3 UNK        -0.5105 
     72 CA        -45.0779  -26.9676   10.9485 C.3       3 UNK         0.0299 
     73 CB        -45.4096  -26.4355   12.3614 C.3       3 UNK        -0.1972 
     74 N         -45.9027  -28.1308   10.5891 N.am      3 UNK        -0.4305 
     75 C         -47.2386  -28.1566   10.4937 C.2       2 UNK         0.5006 
     76 O         -47.9795  -27.2464   10.8641 O.2       2 UNK        -0.5106 
     77 CA        -47.8506  -29.3996    9.8313 C.3       2 UNK         0.0296 
     78 CB        -48.5025  -30.3264   10.8701 C.3       2 UNK        -0.2002 
     79 N         -48.8348  -28.9932    8.8250 N.am      2 UNK        -0.4032 
     80 C         -48.5176  -28.3995    7.6676 C.2       1 UNK         0.5000 
     81 O         -47.3493  -28.2124    7.3027 O.2       1 UNK        -0.5238 
     82 H82       -49.3458  -23.9770    4.6491 H         1 UNK         0.0889 
     83 H83       -49.1132  -25.1142    3.3197 H         1 UNK         0.0889 
     84 H84       -47.9307  -25.0303    4.6272 H         1 UNK         0.0889 
     85 H85       -48.1095  -26.8299    5.9840 H         1 UNK         0.3028 
     86 H86       -50.4550  -27.4936    7.3815 H         1 UNK         0.0864 
     87 H87       -49.4713  -29.7103    5.4836 H         1 UNK         0.0720 
     88 H88       -50.8157  -28.7032    5.0623 H         1 UNK         0.0720 
     89 H89       -53.5650  -30.8185    6.0792 H         1 UNK         0.0814 
     90 H90       -52.8801  -29.6283    5.0184 H         1 UNK         0.0814 
     91 H91       -53.4153  -27.2568    5.3684 H         1 UNK         0.1469 
     92 H92       -56.1328  -26.2241    8.5238 H         1 UNK         0.1381 
     93 H93       -54.4089  -30.1467    8.3748 H         1 UNK         0.1206 
     94 H94       -57.1379  -28.6299    9.6957 H         1 UNK         0.0813 
     95 H95       -55.7823  -29.6036   10.2017 H         1 UNK         0.0813 
     96 H96       -53.7614  -26.2231   11.7225 H         1 UNK         0.0638 
     97 H97       -53.7613  -26.8069   10.1007 H         1 UNK         0.0638 
     98 H98       -53.4393  -29.1924   11.1097 H         1 UNK         0.0568 
     99 H99       -49.7622  -27.3921   11.2749 H         1 UNK         0.3450 
    100 H100      -50.8718  -27.1301   12.6049 H         1 UNK         0.3450 
    101 H101      -52.5273  -27.6961   13.5268 H         1 UNK         0.2987 
    102 H102      -53.8697  -28.8383   15.6610 H         1 UNK         0.0766 
    103 H103      -52.6063  -31.6160   15.4368 H         1 UNK         0.0798 
    104 H104      -54.2968  -31.2558   15.7498 H         1 UNK         0.0798 
    105 H105      -53.0819  -30.8346   16.9444 H         1 UNK         0.0798 
    106 H106      -51.8233  -28.0816   16.1118 H         1 UNK         0.3198 
    107 H107      -48.8564  -29.2241   16.2415 H         1 UNK         0.0843 
    108 H108      -48.8149  -27.6173   13.6370 H         1 UNK         0.0831 
    109 H109      -48.1457  -29.2284   13.8431 H         1 UNK         0.0831 
    110 H110      -47.4561  -27.8766   14.7207 H         1 UNK         0.0831 
    111 H111      -50.2392  -26.6325   15.6387 H         1 UNK         0.3133 
    112 H112      -49.1568  -25.3777   18.8540 H         1 UNK         0.0566 
    113 H113      -48.3858  -24.5671   16.0120 H         1 UNK         0.0814 
    114 H114      -47.3100  -24.7910   17.3759 H         1 UNK         0.0814 
    115 H115      -48.4640  -23.4686   17.3912 H         1 UNK         0.0814 
    116 H116      -50.8598  -24.4152   16.6767 H         1 UNK         0.3091 
    117 H117      -53.8151  -24.7629   18.6541 H         1 UNK         0.0702 
    118 H118      -53.8503  -22.3040   18.3634 H         1 UNK         0.0785 
    119 H119      -52.1333  -22.2946   17.9598 H         1 UNK         0.0785 
    120 H120      -52.6605  -22.7545   19.5724 H         1 UNK         0.0785 
    121 H121      -53.2283  -23.5302   16.1058 H         1 UNK         0.2998 
    122 H122      -54.2718  -26.3473   14.1791 H         1 UNK         0.0697 
    123 H123      -55.6115  -23.6463   14.6996 H         1 UNK         0.0825 
    124 H124      -56.3701  -25.2204   14.9004 H         1 UNK         0.0825 
    125 H125      -55.8711  -24.6928   13.3029 H         1 UNK         0.0825 
    126 H126      -53.5090  -23.7743   13.3181 H         1 UNK         0.3029 
    127 H127      -51.3243  -23.0670   12.9435 H         1 UNK         0.0897 
    128 H128      -49.2231  -25.3035   12.8468 H         1 UNK         0.0792 
    129 H129      -49.3355  -24.0325   14.0590 H         1 UNK         0.0792 
    130 H130      -48.9656  -23.6232   12.3964 H         1 UNK         0.0792 
    131 H131      -50.6196  -24.9816   10.8642 H         1 UNK         0.3086 
    132 H132      -52.2892  -25.3699    8.9938 H         1 UNK         0.0583 
    133 H133      -54.4522  -24.2011    8.7647 H         1 UNK         0.1020 
    134 H134      -53.6521  -22.6854    8.4500 H         1 UNK         0.1020 
    135 H135      -55.8364  -24.7022    6.6942 H         1 UNK         0.0694 
    136 H136      -55.1260  -25.2941    5.2168 H         1 UNK         0.0694 
    137 H137      -51.1050  -22.8580    8.0676 H         1 UNK         0.2989 
    138 H138      -48.8559  -23.2465    7.0784 H         1 UNK         0.1055 
    139 H139      -48.1034  -22.7302   10.0263 H         1 UNK         0.0806 
    140 H140      -49.1612  -21.7075    9.0621 H         1 UNK         0.0806 
    141 H141      -47.4629  -21.8401    8.6482 H         1 UNK         0.0806 
    142 H142      -47.6016  -25.3359    8.6260 H         1 UNK         0.3061 
    143 H143      -45.5590  -26.1297    6.5726 H         1 UNK         0.0734 
    144 H144      -43.6056  -24.1438    7.8389 H         1 UNK         0.0832 
    145 H145      -43.1559  -25.7011    7.1435 H         1 UNK         0.0832 
    146 H146      -43.8329  -24.4441    6.1243 H         1 UNK         0.0832 
    147 H147      -45.6283  -27.2149    8.4638 H         1 UNK         0.3156 
    148 H148      -44.0520  -27.3370   10.9805 H         1 UNK         0.0589 
    149 H149      -45.4261  -27.2402   13.0960 H         1 UNK         0.0808 
    150 H150      -44.6620  -25.7127   12.6897 H         1 UNK         0.0808 
    151 H151      -46.3761  -25.9315   12.3931 H         1 UNK         0.0808 
    152 H152      -45.3880  -28.9448   10.2805 H         1 UNK         0.3098 
    153 H153      -47.0647  -29.9622    9.3230 H         1 UNK         0.0720 
    154 H154      -49.2669  -29.8169   11.4556 H         1 UNK         0.0791 
    155 H155      -47.7596  -30.7034   11.5737 H         1 UNK         0.0791 
    156 H156      -48.9679  -31.1899   10.3948 H         1 UNK         0.0791 
    157 H157      -49.8143  -29.0031    9.1085 H         1 UNK         0.3028 
@<TRIPOS>BOND
     1    1    2 1    
     2    1   82 1    
     3    1   83 1    
     4    1   84 1    
     5    2    3 2    
     6    2    4 am   BACKBONE|DICT|INTERRES
     7    4    5 1    
     8    4   85 1    
     9    5    6 1    
    10    5   80 1    
    11    5   86 1    
    12    6    7 1    
    13    6   87 1    
    14    6   88 1    
    15    7    8 1    
    16    8    9 1    
    17    8   89 1    
    18    8   90 1    
    19    9   10 ar   
    20    9   14 ar   
    21   10   11 ar   
    22   10   91 1    
    23   11   12 ar   
    24   11   58 1    
    25   12   13 ar   
    26   12   92 1    
    27   13   14 ar   
    28   13   15 1    
    29   14   93 1    
    30   15   16 1    
    31   15   94 1    
    32   15   95 1    
    33   16   17 1    
    34   17   18 1    
    35   17   96 1    
    36   17   97 1    
    37   18   19 1    
    38   18   22 1    
    39   18   98 1    
    40   19   20 am   BACKBONE|DICT|INTERRES
    41   19   21 2    
    42   20   99 1    
    43   20  100 1    
    44   22   23 am   BACKBONE|DICT|INTERRES
    45   22  101 1    
    46   23   24 2    
    47   23   25 1    
    48   25   26 1    
    49   25   27 1    
    50   25  102 1    
    51   26  103 1    
    52   26  104 1    
    53   26  105 1    
    54   27   28 am   BACKBONE|DICT|INTERRES
    55   27  106 1    
    56   28   29 2    
    57   28   30 1    
    58   30   31 1    
    59   30   32 1    
    60   30  107 1    
    61   31  108 1    
    62   31  109 1    
    63   31  110 1    
    64   32   33 am   BACKBONE|DICT|INTERRES
    65   32  111 1    
    66   33   34 2    
    67   33   35 1    
    68   35   36 1    
    69   35   37 1    
    70   35  112 1    
    71   36  113 1    
    72   36  114 1    
    73   36  115 1    
    74   37   38 am   BACKBONE|DICT|INTERRES
    75   37  116 1    
    76   38   39 2    
    77   38   40 1    
    78   40   41 1    
    79   40   42 1    
    80   40  117 1    
    81   41  118 1    
    82   41  119 1    
    83   41  120 1    
    84   42   43 am   BACKBONE|DICT|INTERRES
    85   42  121 1    
    86   43   44 2    
    87   43   45 1    
    88   45   46 1    
    89   45   47 1    
    90   45  122 1    
    91   46  123 1    
    92   46  124 1    
    93   46  125 1    
    94   47   48 am   BACKBONE|DICT|INTERRES
    95   47  126 1    
    96   48   49 2    
    97   48   50 1    
    98   50   51 1    
    99   50   52 1    
   100   50  127 1    
   101   51  128 1    
   102   51  129 1    
   103   51  130 1    
   104   52   53 am   BACKBONE|DICT|INTERRES
   105   52  131 1    
   106   53   54 2    
   107   53   55 1    
   108   55   56 1    
   109   55   59 1    
   110   55  132 1    
   111   56   57 1    
   112   56  133 1    
   113   56  134 1    
   114   57   58 1    
   115   58  135 1    
   116   58  136 1    
   117   59   60 am   BACKBONE|DICT|INTERRES
   118   59  137 1    
   119   60   61 2    
   120   60   62 1    
   121   62   63 1    
   122   62   64 1    
   123   62  138 1    
   124   63  139 1    
   125   63  140 1    
   126   63  141 1    
   127   64   65 am   BACKBONE|DICT|INTERRES
   128   64  142 1    
   129   65   66 2    
   130   65   67 1    
   131   67   68 1    
   132   67   69 1    
   133   67  143 1    
   134   68  144 1    
   135   68  145 1    
   136   68  146 1    
   137   69   70 am   BACKBONE|DICT|INTERRES
   138   69  147 1    
   139   70   71 2    
   140   70   72 1    
   141   72   73 1    
   142   72   74 1    
   143   72  148 1    
   144   73  149 1    
   145   73  150 1    
   146   73  151 1    
   147   74   75 am   BACKBONE|DICT|INTERRES
   148   74  152 1    
   149   75   76 2    
   150   75   77 1    
   151   77   78 1    
   152   77   79 1    
   153   77  153 1    
   154   78  154 1    
   155   78  155 1    
   156   78  156 1    
   157   79   80 am   BACKBONE|DICT|INTERRES
   158   79  157 1    
   159   80   81 2    
@<TRIPOS>SUBSTRUCTURE
     1 UNK         1 GROUP             0       ****    0 ROOT    
