@<TRIPOS>MOLECULE
3R207
157   159    1
SMALL
USER_CHARGES


@<TRIPOS>ATOM
      1 CA        -49.8709  -30.3462    1.9483 C.3       0 UNK        -0.1975 
      2 C         -49.3733  -30.2470    3.3832 C.2       0 UNK         0.4852 
      3 O         -48.9391  -31.2538    3.9453 O.2       0 UNK        -0.5216 
      4 N         -49.4404  -29.0429    3.9699 N.am      1 UNK        -0.4461 
      5 CA        -48.9964  -28.7005    5.3291 C.3       1 UNK         0.0864 
      6 C6        -49.8264  -29.4082    6.4442 C.3       14 UNK        -0.0898 
      7 S7        -51.5087  -28.7182    6.5730 S.3       14 UNK        -0.2598 
      8 C8        -51.1891  -27.3878    7.7727 C.3       14 UNK         0.0286 
      9 C9        -52.4680  -26.7217    8.2489 C.ar      14 UNK        -0.0844 
     10 C10       -52.9394  -25.5628    7.6287 C.ar      14 UNK        -0.0881 
     11 C11       -54.0451  -24.8820    8.1492 C.ar      14 UNK        -0.0643 
     12 C12       -54.7116  -25.4033    9.2641 C.ar      14 UNK        -0.0930 
     13 C13       -54.2679  -26.5807    9.8774 C.ar      14 UNK        -0.0827 
     14 C14       -53.1392  -27.2275    9.3633 C.ar      14 UNK        -0.1249 
     15 C15       -54.9697  -27.0906   11.1351 C.3       14 UNK         0.0141 
     16 S16       -55.3537  -28.8734   11.1153 S.3       14 UNK        -0.2313 
     17 C17       -53.8107  -29.6157   11.7551 C.3       14 UNK        -0.0915 
     18 CA        -54.0400  -30.5083   13.0041 C.3       13 UNK         0.0968 
     19 C         -52.8011  -31.3964   13.3282 C.2       13 UNK         0.5732 
     20 N         -52.3978  -31.5659   14.5823 N.am      13 UNK        -0.7310 
     21 O         -52.1976  -31.9683   12.4234 O.2       13 UNK        -0.5035 
     22 N         -54.4944  -29.7193   14.1605 N.am      13 UNK        -0.4233 
     23 C         -55.5152  -30.0565   14.9587 C.2       13 UNK         0.4989 
     24 O         -56.2586  -31.0175   14.7495 O.2       13 UNK        -0.4996 
     25 CA        -55.7344  -29.1808   16.2111 C.3       12 UNK         0.0216 
     26 CB        -56.6563  -29.8476   17.2542 C.3       12 UNK        -0.1964 
     27 N         -54.4881  -28.7342   16.8483 N.am      12 UNK        -0.4276 
     28 C         -53.4750  -29.4986   17.2907 C.2       12 UNK         0.5020 
     29 O         -53.4702  -30.7277   17.2114 O.2       12 UNK        -0.5489 
     30 CA        -52.2401  -28.7885   17.8812 C.3       11 UNK         0.0294 
     31 CB        -50.9392  -29.3549   17.2827 C.3       11 UNK        -0.2019 
     32 N         -52.2745  -27.3478   17.6312 N.am      11 UNK        -0.4493 
     33 C         -52.6071  -26.4053   18.5240 C.2       11 UNK         0.4932 
     34 O         -52.8361  -26.6347   19.7114 O.2       11 UNK        -0.5029 
     35 CA        -52.7397  -24.9622   17.9969 C.3       10 UNK         0.0280 
     36 CB        -51.4655  -24.1604   18.3039 C.3       10 UNK        -0.1976 
     37 N         -53.0271  -24.8970   16.5584 N.am      10 UNK        -0.4242 
     38 C         -54.1657  -25.3391   15.9975 C.2       10 UNK         0.5072 
     39 O         -55.1158  -25.7729   16.6486 O.2       10 UNK        -0.5224 
     40 CA        -54.2380  -25.4005   14.4612 C.3       9 UNK         0.0343 
     41 CB        -54.9548  -24.1640   13.9004 C.3       9 UNK        -0.2003 
     42 N         -52.9246  -25.5451   13.8264 N.am      9 UNK        -0.4272 
     43 C         -52.1149  -26.6046   13.9915 C.2       9 UNK         0.4988 
     44 O         -52.4671  -27.6236   14.5871 O.2       9 UNK        -0.5108 
     45 CA        -50.6676  -26.5166   13.4623 C.3       8 UNK         0.0248 
     46 CB        -50.4789  -27.4377   12.2476 C.3       8 UNK        -0.2001 
     47 N         -50.2275  -25.1639   13.1070 N.am      8 UNK        -0.4140 
     48 C         -50.1781  -24.1099   13.9392 C.2       8 UNK         0.5028 
     49 O         -50.4175  -24.1833   15.1448 O.2       8 UNK        -0.5428 
     50 CA        -49.9137  -22.7281   13.3079 C.3       7 UNK         0.0264 
     51 CB        -48.4389  -22.3350   13.4737 C.3       7 UNK        -0.1988 
     52 N         -50.2927  -22.6635   11.8896 N.am      7 UNK        -0.4454 
     53 C         -51.5416  -22.8663   11.4344 C.2       7 UNK         0.5027 
     54 O         -52.5102  -22.9833   12.1851 O.2       7 UNK        -0.5083 
     55 CA        -51.7589  -23.0611    9.9192 C.3       6 UNK         0.0844 
     56 C56       -52.8285  -22.0869    9.3576 C.3       14 UNK        -0.0967 
     57 S57       -53.1439  -22.3072    7.5685 S.3       14 UNK        -0.2604 
     58 C58       -54.4806  -23.5533    7.5439 C.3       14 UNK         0.0134 
     59 N         -50.5260  -23.0820    9.1247 N.am      6 UNK        -0.4116 
     60 C         -49.6123  -24.0615    9.1425 C.2       5 UNK         0.5034 
     61 O         -49.6634  -25.0243    9.9122 O.2       5 UNK        -0.5045 
     62 CA        -48.4425  -23.9537    8.1431 C.3       5 UNK         0.0224 
     63 CB        -48.3621  -22.6037    7.3937 C.3       5 UNK        -0.1978 
     64 N         -47.1535  -24.2665    8.7671 N.am      5 UNK        -0.4737 
     65 C         -46.6033  -23.6682    9.8354 C.2       4 UNK         0.5027 
     66 O         -47.1208  -22.7215   10.4292 O.2       4 UNK        -0.5211 
     67 CA        -45.2539  -24.2180   10.3415 C.3       4 UNK         0.0297 
     68 CB        -45.4736  -25.0983   11.5831 C.3       4 UNK        -0.1993 
     69 N         -44.5193  -24.9918    9.3359 N.am      4 UNK        -0.4486 
     70 C         -43.9339  -24.4769    8.2451 C.2       3 UNK         0.4961 
     71 O         -43.8533  -23.2690    8.0202 O.2       3 UNK        -0.5105 
     72 CA        -43.3543  -25.4711    7.2163 C.3       3 UNK         0.0299 
     73 CB        -41.8285  -25.5732    7.3758 C.3       3 UNK        -0.1972 
     74 N         -43.9324  -26.8236    7.2494 N.am      3 UNK        -0.4305 
     75 C         -45.2288  -27.1234    7.0853 C.2       2 UNK         0.5006 
     76 O         -46.1127  -26.2738    6.9470 O.2       2 UNK        -0.5106 
     77 CA        -45.6007  -28.6164    7.1461 C.3       2 UNK         0.0296 
     78 CB        -45.4103  -29.1657    8.5716 C.3       2 UNK        -0.2002 
     79 N         -46.9972  -28.8154    6.7573 N.am      2 UNK        -0.4032 
     80 C         -47.4598  -28.8106    5.4998 C.2       1 UNK         0.5000 
     81 O         -46.7220  -28.8122    4.5091 O.2       1 UNK        -0.5238 
     82 H82       -50.2381  -29.3901    1.5758 H         1 UNK         0.0889 
     83 H83       -50.6831  -31.0696    1.8823 H         1 UNK         0.0889 
     84 H84       -49.0647  -30.6777    1.2943 H         1 UNK         0.0889 
     85 H85       -49.7890  -28.2625    3.4313 H         1 UNK         0.3028 
     86 H86       -49.1780  -27.6286    5.4210 H         1 UNK         0.0864 
     87 H87       -49.9039  -30.4795    6.2556 H         1 UNK         0.0720 
     88 H88       -49.3729  -29.3282    7.4315 H         1 UNK         0.0720 
     89 H89       -50.5272  -26.6464    7.3233 H         1 UNK         0.0814 
     90 H90       -50.6530  -27.7870    8.6355 H         1 UNK         0.0814 
     91 H91       -52.4130  -25.1556    6.7763 H         1 UNK         0.1469 
     92 H92       -55.5608  -24.8734    9.6734 H         1 UNK         0.1381 
     93 H93       -52.7589  -28.1189    9.8363 H         1 UNK         0.1206 
     94 H94       -55.9059  -26.5520   11.2884 H         1 UNK         0.0813 
     95 H95       -54.3479  -26.8668   11.9966 H         1 UNK         0.0813 
     96 H96       -53.3839  -30.1960   10.9353 H         1 UNK         0.0638 
     97 H97       -53.0856  -28.8366   11.9880 H         1 UNK         0.0638 
     98 H98       -54.8156  -31.2259   12.7321 H         1 UNK         0.0568 
     99 H99       -52.9039  -31.1657   15.3648 H         1 UNK         0.3450 
    100 H100      -51.5993  -32.1537   14.7573 H         1 UNK         0.3450 
    101 H101      -53.8894  -28.9465   14.4228 H         1 UNK         0.2987 
    102 H102      -56.2358  -28.2781   15.8588 H         1 UNK         0.0766 
    103 H103      -56.2364  -30.7843   17.6227 H         1 UNK         0.0798 
    104 H104      -56.8224  -29.1945   18.1110 H         1 UNK         0.0798 
    105 H105      -57.6345  -30.0737   16.8279 H         1 UNK         0.0798 
    106 H106      -54.4060  -27.7296   16.9560 H         1 UNK         0.3198 
    107 H107      -52.2381  -28.9873   18.9549 H         1 UNK         0.0843 
    108 H108      -50.8344  -30.4178   17.5041 H         1 UNK         0.0831 
    109 H109      -50.0626  -28.8539   17.6932 H         1 UNK         0.0831 
    110 H110      -50.9119  -29.2448   16.1977 H         1 UNK         0.0831 
    111 H111      -52.1298  -27.0744   16.6668 H         1 UNK         0.3133 
    112 H112      -53.5723  -24.4931   18.5253 H         1 UNK         0.0566 
    113 H113      -51.5528  -23.1279   17.9652 H         1 UNK         0.0814 
    114 H114      -51.2702  -24.1344   19.3769 H         1 UNK         0.0814 
    115 H115      -50.5884  -24.5972   17.8246 H         1 UNK         0.0814 
    116 H116      -52.2692  -24.5779   15.9611 H         1 UNK         0.3091 
    117 H117      -54.8316  -26.2807   14.2067 H         1 UNK         0.0702 
    118 H118      -55.0570  -24.2214   12.8164 H         1 UNK         0.0785 
    119 H119      -54.4174  -23.2450   14.1376 H         1 UNK         0.0785 
    120 H120      -55.9588  -24.0721   14.3169 H         1 UNK         0.0785 
    121 H121      -52.5880  -24.7395   13.3097 H         1 UNK         0.2998 
    122 H122      -50.0164  -26.8702   14.2640 H         1 UNK         0.0697 
    123 H123      -51.0967  -27.1222   11.4066 H         1 UNK         0.0825 
    124 H124      -50.7452  -28.4676   12.4892 H         1 UNK         0.0825 
    125 H125      -49.4416  -27.4445   11.9119 H         1 UNK         0.0825 
    126 H126      -50.0155  -25.0092   12.1277 H         1 UNK         0.3029 
    127 H127      -50.5252  -22.0012   13.8468 H         1 UNK         0.0897 
    128 H128      -48.2355  -21.3534   13.0453 H         1 UNK         0.0792 
    129 H129      -48.1644  -22.2927   14.5286 H         1 UNK         0.0792 
    130 H130      -47.7755  -23.0547   12.9950 H         1 UNK         0.0792 
    131 H131      -49.5362  -22.5934   11.2208 H         1 UNK         0.3086 
    132 H132      -52.1736  -24.0659    9.8524 H         1 UNK         0.0583 
    133 H133      -53.7720  -22.2023    9.8953 H         1 UNK         0.1020 
    134 H134      -52.5172  -21.0531    9.5179 H         1 UNK         0.1020 
    135 H135      -55.3511  -23.1509    8.0642 H         1 UNK         0.0694 
    136 H136      -54.7884  -23.7201    6.5108 H         1 UNK         0.0694 
    137 H137      -50.4099  -22.3232    8.4693 H         1 UNK         0.2989 
    138 H138      -48.6139  -24.7341    7.4001 H         1 UNK         0.1055 
    139 H139      -47.5170  -22.5929    6.7050 H         1 UNK         0.0806 
    140 H140      -48.2373  -21.7616    8.0757 H         1 UNK         0.0806 
    141 H141      -49.2560  -22.4237    6.7948 H         1 UNK         0.0806 
    142 H142      -46.6483  -25.0326    8.3301 H         1 UNK         0.3061 
    143 H143      -44.6390  -23.3628   10.6300 H         1 UNK         0.0734 
    144 H144      -45.9655  -24.5362   12.3774 H         1 UNK         0.0832 
    145 H145      -46.1014  -25.9623   11.3605 H         1 UNK         0.0832 
    146 H146      -44.5284  -25.4618   11.9867 H         1 UNK         0.0832 
    147 H147      -44.5219  -25.9953    9.4417 H         1 UNK         0.3156 
    148 H148      -43.5642  -25.0589    6.2272 H         1 UNK         0.0589 
    149 H149      -41.5514  -26.0138    8.3344 H         1 UNK         0.0808 
    150 H150      -41.3845  -26.1785    6.5852 H         1 UNK         0.0808 
    151 H151      -41.3627  -24.5878    7.3242 H         1 UNK         0.0808 
    152 H152      -43.2779  -27.5833    7.3731 H         1 UNK         0.3098 
    153 H153      -44.9536  -29.1664    6.4594 H         1 UNK         0.0720 
    154 H154      -45.6951  -30.2166    8.6307 H         1 UNK         0.0791 
    155 H155      -46.0076  -28.6172    9.3015 H         1 UNK         0.0791 
    156 H156      -44.3686  -29.1017    8.8881 H         1 UNK         0.0791 
    157 H157      -47.6681  -28.7685    7.5089 H         1 UNK         0.3028 
@<TRIPOS>BOND
     1    1    2 1    
     2    1   82 1    
     3    1   83 1    
     4    1   84 1    
     5    2    3 2    
     6    2    4 am   BACKBONE|DICT|INTERRES
     7    4    5 1    
     8    4   85 1    
     9    5    6 1    
    10    5   80 1    
    11    5   86 1    
    12    6    7 1    
    13    6   87 1    
    14    6   88 1    
    15    7    8 1    
    16    8    9 1    
    17    8   89 1    
    18    8   90 1    
    19    9   10 ar   
    20    9   14 ar   
    21   10   11 ar   
    22   10   91 1    
    23   11   12 ar   
    24   11   58 1    
    25   12   13 ar   
    26   12   92 1    
    27   13   14 ar   
    28   13   15 1    
    29   14   93 1    
    30   15   16 1    
    31   15   94 1    
    32   15   95 1    
    33   16   17 1    
    34   17   18 1    
    35   17   96 1    
    36   17   97 1    
    37   18   19 1    
    38   18   22 1    
    39   18   98 1    
    40   19   20 am   BACKBONE|DICT|INTERRES
    41   19   21 2    
    42   20   99 1    
    43   20  100 1    
    44   22   23 am   BACKBONE|DICT|INTERRES
    45   22  101 1    
    46   23   24 2    
    47   23   25 1    
    48   25   26 1    
    49   25   27 1    
    50   25  102 1    
    51   26  103 1    
    52   26  104 1    
    53   26  105 1    
    54   27   28 am   BACKBONE|DICT|INTERRES
    55   27  106 1    
    56   28   29 2    
    57   28   30 1    
    58   30   31 1    
    59   30   32 1    
    60   30  107 1    
    61   31  108 1    
    62   31  109 1    
    63   31  110 1    
    64   32   33 am   BACKBONE|DICT|INTERRES
    65   32  111 1    
    66   33   34 2    
    67   33   35 1    
    68   35   36 1    
    69   35   37 1    
    70   35  112 1    
    71   36  113 1    
    72   36  114 1    
    73   36  115 1    
    74   37   38 am   BACKBONE|DICT|INTERRES
    75   37  116 1    
    76   38   39 2    
    77   38   40 1    
    78   40   41 1    
    79   40   42 1    
    80   40  117 1    
    81   41  118 1    
    82   41  119 1    
    83   41  120 1    
    84   42   43 am   BACKBONE|DICT|INTERRES
    85   42  121 1    
    86   43   44 2    
    87   43   45 1    
    88   45   46 1    
    89   45   47 1    
    90   45  122 1    
    91   46  123 1    
    92   46  124 1    
    93   46  125 1    
    94   47   48 am   BACKBONE|DICT|INTERRES
    95   47  126 1    
    96   48   49 2    
    97   48   50 1    
    98   50   51 1    
    99   50   52 1    
   100   50  127 1    
   101   51  128 1    
   102   51  129 1    
   103   51  130 1    
   104   52   53 am   BACKBONE|DICT|INTERRES
   105   52  131 1    
   106   53   54 2    
   107   53   55 1    
   108   55   56 1    
   109   55   59 1    
   110   55  132 1    
   111   56   57 1    
   112   56  133 1    
   113   56  134 1    
   114   57   58 1    
   115   58  135 1    
   116   58  136 1    
   117   59   60 am   BACKBONE|DICT|INTERRES
   118   59  137 1    
   119   60   61 2    
   120   60   62 1    
   121   62   63 1    
   122   62   64 1    
   123   62  138 1    
   124   63  139 1    
   125   63  140 1    
   126   63  141 1    
   127   64   65 am   BACKBONE|DICT|INTERRES
   128   64  142 1    
   129   65   66 2    
   130   65   67 1    
   131   67   68 1    
   132   67   69 1    
   133   67  143 1    
   134   68  144 1    
   135   68  145 1    
   136   68  146 1    
   137   69   70 am   BACKBONE|DICT|INTERRES
   138   69  147 1    
   139   70   71 2    
   140   70   72 1    
   141   72   73 1    
   142   72   74 1    
   143   72  148 1    
   144   73  149 1    
   145   73  150 1    
   146   73  151 1    
   147   74   75 am   BACKBONE|DICT|INTERRES
   148   74  152 1    
   149   75   76 2    
   150   75   77 1    
   151   77   78 1    
   152   77   79 1    
   153   77  153 1    
   154   78  154 1    
   155   78  155 1    
   156   78  156 1    
   157   79   80 am   BACKBONE|DICT|INTERRES
   158   79  157 1    
   159   80   81 2    
@<TRIPOS>SUBSTRUCTURE
     1 UNK         1 GROUP             0       ****    0 ROOT    
