@<TRIPOS>MOLECULE
3R207
157   159    1
SMALL
USER_CHARGES


@<TRIPOS>ATOM
      1 CA        -46.0095  -30.3077    3.6323 C.3       0 UNK        -0.1975 
      2 C         -46.9874  -29.3475    4.2923 C.2       0 UNK         0.4852 
      3 O         -47.7155  -28.6374    3.5962 O.2       0 UNK        -0.5216 
      4 N         -47.0078  -29.3083    5.6316 N.am      1 UNK        -0.4461 
      5 CA        -47.8669  -28.4412    6.4441 C.3       1 UNK         0.0864 
      6 C6        -48.0664  -29.0374    7.8634 C.3       14 UNK        -0.0898 
      7 S7        -49.3813  -28.2080    8.8202 S.3       14 UNK        -0.2598 
      8 C8        -50.8374  -29.1937    8.3571 C.3       14 UNK         0.0286 
      9 C9        -52.0903  -28.6338    9.0104 C.ar      14 UNK        -0.0844 
     10 C10       -52.6889  -27.4794    8.4994 C.ar      14 UNK        -0.0881 
     11 C11       -53.8166  -26.9296    9.1165 C.ar      14 UNK        -0.0643 
     12 C12       -54.3572  -27.5567   10.2439 C.ar      14 UNK        -0.0930 
     13 C13       -53.7780  -28.7229   10.7534 C.ar      14 UNK        -0.0827 
     14 C14       -52.6456  -29.2572   10.1309 C.ar      14 UNK        -0.1249 
     15 C15       -54.3642  -29.4058   11.9796 C.3       14 UNK         0.0141 
     16 S16       -55.5452  -30.7026   11.4980 S.3       14 UNK        -0.2313 
     17 C17       -55.7305  -31.6209   13.0640 C.3       14 UNK        -0.0915 
     18 CA        -57.1680  -31.5408   13.6590 C.3       13 UNK         0.0968 
     19 C         -57.3746  -32.5192   14.8573 C.2       13 UNK         0.5732 
     20 N         -58.1877  -32.1857   15.8529 N.am      13 UNK        -0.7310 
     21 O         -56.8210  -33.6165   14.8725 O.2       13 UNK        -0.5035 
     22 N         -57.6259  -30.1599   13.9074 N.am      13 UNK        -0.4233 
     23 C         -57.0694  -29.2866   14.7559 C.2       13 UNK         0.4989 
     24 O         -56.0785  -29.5225   15.4498 O.2       13 UNK        -0.4996 
     25 CA        -57.7715  -27.9295   14.8868 C.3       12 UNK         0.0216 
     26 CB        -58.6055  -27.8742   16.1773 C.3       12 UNK        -0.1964 
     27 N         -56.7760  -26.8625   14.9161 N.am      12 UNK        -0.4276 
     28 C         -56.2984  -26.2295   13.8423 C.2       12 UNK         0.5020 
     29 O         -56.7099  -26.4272   12.6990 O.2       12 UNK        -0.5489 
     30 CA        -55.1863  -25.1890   14.0647 C.3       11 UNK         0.0294 
     31 CB        -55.7655  -23.8574   14.5785 C.3       11 UNK        -0.2019 
     32 N         -54.0530  -25.6292   14.8914 N.am      11 UNK        -0.4493 
     33 C         -54.0234  -25.9839   16.1845 C.2       11 UNK         0.4932 
     34 O         -55.0265  -26.0406   16.8986 O.2       11 UNK        -0.5029 
     35 CA        -52.6423  -26.2803   16.8035 C.3       10 UNK         0.0280 
     36 CB        -52.7159  -27.2879   17.9711 C.3       10 UNK        -0.1976 
     37 N         -51.6069  -26.6594   15.8334 N.am      10 UNK        -0.4242 
     38 C         -51.5248  -27.7863   15.1057 C.2       10 UNK         0.5072 
     39 O         -52.3629  -28.6870   15.1452 O.2       10 UNK        -0.5224 
     40 CA        -50.3032  -27.9522   14.1746 C.3       9 UNK         0.0343 
     41 CB        -50.7302  -28.3284   12.7477 C.3       9 UNK        -0.2003 
     42 N         -49.4671  -26.7543   14.1045 N.am      9 UNK        -0.4272 
     43 C         -48.4710  -26.4501   14.9463 C.2       9 UNK         0.4988 
     44 O         -48.0868  -27.1887   15.8530 O.2       9 UNK        -0.5108 
     45 CA        -47.8187  -25.0684   14.7684 C.3       8 UNK         0.0248 
     46 CB        -46.5719  -25.1751   13.8797 C.3       8 UNK        -0.2001 
     47 N         -48.7406  -24.0773   14.2026 N.am      8 UNK        -0.4140 
     48 C         -49.7934  -23.5691   14.8605 C.2       8 UNK         0.5028 
     49 O         -50.0760  -23.8599   16.0231 O.2       8 UNK        -0.5428 
     50 CA        -50.7210  -22.6241   14.0775 C.3       7 UNK         0.0264 
     51 CB        -50.1673  -21.1905   14.0862 C.3       7 UNK        -0.1988 
     52 N         -50.9570  -23.0504   12.6951 N.am      7 UNK        -0.4454 
     53 C         -51.5387  -24.2059   12.3388 C.2       7 UNK         0.5027 
     54 O         -51.9420  -25.0414   13.1459 O.2       7 UNK        -0.5083 
     55 CA        -51.6749  -24.4933   10.8311 C.3       6 UNK         0.0844 
     56 C56       -53.0370  -23.9596   10.3186 C.3       14 UNK        -0.0967 
     57 S57       -53.3007  -24.2541    8.5368 S.3       14 UNK        -0.2604 
     58 C58       -54.4544  -25.6654    8.5563 C.3       14 UNK         0.0134 
     59 N         -50.5438  -23.9972   10.0364 N.am      6 UNK        -0.4116 
     60 C         -49.2524  -24.3087   10.2188 C.2       5 UNK         0.5034 
     61 O         -48.8376  -24.9923   11.1580 O.2       5 UNK        -0.5045 
     62 CA        -48.2881  -23.7467    9.1594 C.3       5 UNK         0.0224 
     63 CB        -48.2026  -22.2063    9.2093 C.3       5 UNK        -0.1978 
     64 N         -46.9604  -24.3690    9.2016 N.am      5 UNK        -0.4737 
     65 C         -45.9662  -24.2030   10.0871 C.2       4 UNK         0.5027 
     66 O         -45.9862  -23.4001   11.0199 O.2       4 UNK        -0.5211 
     67 CA        -44.7143  -25.0729    9.8770 C.3       4 UNK         0.0297 
     68 CB        -44.8866  -26.4378   10.5639 C.3       4 UNK        -0.1993 
     69 N         -44.4548  -25.2911    8.4519 N.am      4 UNK        -0.4486 
     70 C         -43.4894  -24.6955    7.7393 C.2       3 UNK         0.4961 
     71 O         -42.6472  -23.9369    8.2210 O.2       3 UNK        -0.5105 
     72 CA        -43.4483  -24.9926    6.2261 C.3       3 UNK         0.0299 
     73 CB        -42.5103  -26.1759    5.9378 C.3       3 UNK        -0.1972 
     74 N         -44.7670  -25.2725    5.6510 N.am      3 UNK        -0.4305 
     75 C         -45.7598  -24.3776    5.5460 C.2       2 UNK         0.5006 
     76 O         -45.6324  -23.1840    5.8202 O.2       2 UNK        -0.5106 
     77 CA        -47.1372  -24.8881    5.0770 C.3       2 UNK         0.0296 
     78 CB        -47.3440  -24.5651    3.5882 C.3       2 UNK        -0.2002 
     79 N         -47.4198  -26.3144    5.2967 N.am      2 UNK        -0.4032 
     80 C         -47.3298  -26.9922    6.4501 C.2       1 UNK         0.5000 
     81 O         -46.8188  -26.5278    7.4697 O.2       1 UNK        -0.5238 
     82 H82       -45.4305  -30.8689    4.3655 H         1 UNK         0.0889 
     83 H83       -45.3138  -29.7578    2.9991 H         1 UNK         0.0889 
     84 H84       -46.5482  -31.0202    3.0082 H         1 UNK         0.0889 
     85 H85       -46.3697  -29.8962    6.1497 H         1 UNK         0.3028 
     86 H86       -48.8501  -28.4099    5.9691 H         1 UNK         0.0864 
     87 H87       -47.1394  -28.9903    8.4382 H         1 UNK         0.0720 
     88 H88       -48.3152  -30.0975    7.7923 H         1 UNK         0.0720 
     89 H89       -50.6822  -30.2329    8.6513 H         1 UNK         0.0814 
     90 H90       -50.9552  -29.1902    7.2725 H         1 UNK         0.0814 
     91 H91       -52.2625  -26.9929    7.6327 H         1 UNK         0.1469 
     92 H92       -55.2335  -27.1426   10.7222 H         1 UNK         0.1381 
     93 H93       -52.1904  -30.1543   10.5278 H         1 UNK         0.1206 
     94 H94       -54.8612  -28.6795   12.6239 H         1 UNK         0.0813 
     95 H95       -53.5615  -29.8425   12.5751 H         1 UNK         0.0813 
     96 H96       -54.9924  -31.2799   13.7911 H         1 UNK         0.0638 
     97 H97       -55.4694  -32.6573   12.8438 H         1 UNK         0.0638 
     98 H98       -57.8433  -31.9239   12.8934 H         1 UNK         0.0568 
     99 H99       -58.3227  -32.8314   16.6148 H         1 UNK         0.3450 
    100 H100      -58.6621  -31.2980   15.8525 H         1 UNK         0.3450 
    101 H101      -58.4497  -29.8820   13.3939 H         1 UNK         0.2987 
    102 H102      -58.4415  -27.7813   14.0369 H         1 UNK         0.0766 
    103 H103      -59.3750  -28.6472   16.1805 H         1 UNK         0.0798 
    104 H104      -59.1114  -26.9139   16.2803 H         1 UNK         0.0798 
    105 H105      -57.9877  -28.0230   17.0643 H         1 UNK         0.0798 
    106 H106      -56.3125  -26.6792   15.8051 H         1 UNK         0.3198 
    107 H107      -54.7576  -24.9933   13.0812 H         1 UNK         0.0843 
    108 H108      -56.2016  -23.9577   15.5728 H         1 UNK         0.0831 
    109 H109      -56.5515  -23.4935   13.9153 H         1 UNK         0.0831 
    110 H110      -54.9979  -23.0848   14.6252 H         1 UNK         0.0831 
    111 H111      -53.1620  -25.6126   14.3964 H         1 UNK         0.3133 
    112 H112      -52.3053  -25.3310   17.2219 H         1 UNK         0.0566 
    113 H113      -53.1348  -28.2438   17.6551 H         1 UNK         0.0814 
    114 H114      -53.3481  -26.9097   18.7753 H         1 UNK         0.0814 
    115 H115      -51.7306  -27.4757   18.3977 H         1 UNK         0.0814 
    116 H116      -50.8816  -25.9653   15.7000 H         1 UNK         0.3091 
    117 H117      -49.7076  -28.7763   14.5724 H         1 UNK         0.0702 
    118 H118      -49.8735  -28.4038   12.0775 H         1 UNK         0.0785 
    119 H119      -51.4203  -27.5972   12.3255 H         1 UNK         0.0785 
    120 H120      -51.2301  -29.2965   12.7382 H         1 UNK         0.0785 
    121 H121      -49.7131  -26.0817   13.3898 H         1 UNK         0.2998 
    122 H122      -47.5065  -24.7190   15.7548 H         1 UNK         0.0697 
    123 H123      -46.8293  -25.5151   12.8765 H         1 UNK         0.0825 
    124 H124      -45.8543  -25.8852   14.2928 H         1 UNK         0.0825 
    125 H125      -46.0637  -24.2151   13.7873 H         1 UNK         0.0825 
    126 H126      -48.6069  -23.8386   13.2281 H         1 UNK         0.3029 
    127 H127      -51.6866  -22.6202   14.5885 H         1 UNK         0.0897 
    128 H128      -49.2161  -21.1194   13.5570 H         1 UNK         0.0792 
    129 H129      -49.9989  -20.8442   15.1070 H         1 UNK         0.0792 
    130 H130      -50.8641  -20.4927   13.6212 H         1 UNK         0.0792 
    131 H131      -50.6507  -22.4234   11.9655 H         1 UNK         0.3086 
    132 H132      -51.6753  -25.5797   10.7186 H         1 UNK         0.0583 
    133 H133      -53.8584  -24.4121   10.8775 H         1 UNK         0.1020 
    134 H134      -53.1167  -22.8841   10.4900 H         1 UNK         0.1020 
    135 H135      -55.3472  -25.3916    9.1210 H         1 UNK         0.0694 
    136 H136      -54.7854  -25.8618    7.5357 H         1 UNK         0.0694 
    137 H137      -50.7995  -23.4429    9.2322 H         1 UNK         0.2989 
    138 H138      -48.6986  -24.0276    8.1881 H         1 UNK         0.1055 
    139 H139      -47.4791  -21.8281    8.4867 H         1 UNK         0.0806 
    140 H140      -47.9111  -21.8445   10.1957 H         1 UNK         0.0806 
    141 H141      -49.1626  -21.7479    8.9703 H         1 UNK         0.0806 
    142 H142      -46.8491  -25.1336    8.5374 H         1 UNK         0.3061 
    143 H143      -43.8682  -24.5626   10.3420 H         1 UNK         0.0734 
    144 H144      -45.7744  -26.9626   10.2067 H         1 UNK         0.0832 
    145 H145      -44.0241  -27.0811   10.3900 H         1 UNK         0.0832 
    146 H146      -44.9859  -26.3201   11.6425 H         1 UNK         0.0832 
    147 H147      -45.1351  -25.8660    7.9613 H         1 UNK         0.3156 
    148 H148      -43.0453  -24.1087    5.7271 H         1 UNK         0.0589 
    149 H149      -42.8692  -27.0982    6.3965 H         1 UNK         0.0808 
    150 H150      -41.5106  -25.9848    6.3308 H         1 UNK         0.0808 
    151 H151      -42.4069  -26.3499    4.8666 H         1 UNK         0.0808 
    152 H152      -44.9597  -26.2290    5.3930 H         1 UNK         0.3098 
    153 H153      -47.8828  -24.3324    5.6488 H         1 UNK         0.0720 
    154 H154      -47.1726  -23.5063    3.3876 H         1 UNK         0.0791 
    155 H155      -48.3619  -24.7910    3.2698 H         1 UNK         0.0791 
    156 H156      -46.6603  -25.1324    2.9552 H         1 UNK         0.0791 
    157 H157      -47.7636  -26.8349    4.4949 H         1 UNK         0.3028 
@<TRIPOS>BOND
     1    1    2 1    
     2    1   82 1    
     3    1   83 1    
     4    1   84 1    
     5    2    3 2    
     6    2    4 am   BACKBONE|DICT|INTERRES
     7    4    5 1    
     8    4   85 1    
     9    5    6 1    
    10    5   80 1    
    11    5   86 1    
    12    6    7 1    
    13    6   87 1    
    14    6   88 1    
    15    7    8 1    
    16    8    9 1    
    17    8   89 1    
    18    8   90 1    
    19    9   10 ar   
    20    9   14 ar   
    21   10   11 ar   
    22   10   91 1    
    23   11   12 ar   
    24   11   58 1    
    25   12   13 ar   
    26   12   92 1    
    27   13   14 ar   
    28   13   15 1    
    29   14   93 1    
    30   15   16 1    
    31   15   94 1    
    32   15   95 1    
    33   16   17 1    
    34   17   18 1    
    35   17   96 1    
    36   17   97 1    
    37   18   19 1    
    38   18   22 1    
    39   18   98 1    
    40   19   20 am   BACKBONE|DICT|INTERRES
    41   19   21 2    
    42   20   99 1    
    43   20  100 1    
    44   22   23 am   BACKBONE|DICT|INTERRES
    45   22  101 1    
    46   23   24 2    
    47   23   25 1    
    48   25   26 1    
    49   25   27 1    
    50   25  102 1    
    51   26  103 1    
    52   26  104 1    
    53   26  105 1    
    54   27   28 am   BACKBONE|DICT|INTERRES
    55   27  106 1    
    56   28   29 2    
    57   28   30 1    
    58   30   31 1    
    59   30   32 1    
    60   30  107 1    
    61   31  108 1    
    62   31  109 1    
    63   31  110 1    
    64   32   33 am   BACKBONE|DICT|INTERRES
    65   32  111 1    
    66   33   34 2    
    67   33   35 1    
    68   35   36 1    
    69   35   37 1    
    70   35  112 1    
    71   36  113 1    
    72   36  114 1    
    73   36  115 1    
    74   37   38 am   BACKBONE|DICT|INTERRES
    75   37  116 1    
    76   38   39 2    
    77   38   40 1    
    78   40   41 1    
    79   40   42 1    
    80   40  117 1    
    81   41  118 1    
    82   41  119 1    
    83   41  120 1    
    84   42   43 am   BACKBONE|DICT|INTERRES
    85   42  121 1    
    86   43   44 2    
    87   43   45 1    
    88   45   46 1    
    89   45   47 1    
    90   45  122 1    
    91   46  123 1    
    92   46  124 1    
    93   46  125 1    
    94   47   48 am   BACKBONE|DICT|INTERRES
    95   47  126 1    
    96   48   49 2    
    97   48   50 1    
    98   50   51 1    
    99   50   52 1    
   100   50  127 1    
   101   51  128 1    
   102   51  129 1    
   103   51  130 1    
   104   52   53 am   BACKBONE|DICT|INTERRES
   105   52  131 1    
   106   53   54 2    
   107   53   55 1    
   108   55   56 1    
   109   55   59 1    
   110   55  132 1    
   111   56   57 1    
   112   56  133 1    
   113   56  134 1    
   114   57   58 1    
   115   58  135 1    
   116   58  136 1    
   117   59   60 am   BACKBONE|DICT|INTERRES
   118   59  137 1    
   119   60   61 2    
   120   60   62 1    
   121   62   63 1    
   122   62   64 1    
   123   62  138 1    
   124   63  139 1    
   125   63  140 1    
   126   63  141 1    
   127   64   65 am   BACKBONE|DICT|INTERRES
   128   64  142 1    
   129   65   66 2    
   130   65   67 1    
   131   67   68 1    
   132   67   69 1    
   133   67  143 1    
   134   68  144 1    
   135   68  145 1    
   136   68  146 1    
   137   69   70 am   BACKBONE|DICT|INTERRES
   138   69  147 1    
   139   70   71 2    
   140   70   72 1    
   141   72   73 1    
   142   72   74 1    
   143   72  148 1    
   144   73  149 1    
   145   73  150 1    
   146   73  151 1    
   147   74   75 am   BACKBONE|DICT|INTERRES
   148   74  152 1    
   149   75   76 2    
   150   75   77 1    
   151   77   78 1    
   152   77   79 1    
   153   77  153 1    
   154   78  154 1    
   155   78  155 1    
   156   78  156 1    
   157   79   80 am   BACKBONE|DICT|INTERRES
   158   79  157 1    
   159   80   81 2    
@<TRIPOS>SUBSTRUCTURE
     1 UNK         1 GROUP             0       ****    0 ROOT    
