@<TRIPOS>MOLECULE
3R207
157   159    1
SMALL
USER_CHARGES


@<TRIPOS>ATOM
      1 CA        -53.2998  -22.6146    9.9377 C.3       0 UNK        -0.1975 
      2 C         -53.1637  -23.9781    9.2775 C.2       0 UNK         0.4852 
      3 O         -53.6992  -24.9584    9.7952 O.2       0 UNK        -0.5216 
      4 N         -52.4579  -24.0516    8.1439 N.am      1 UNK        -0.4461 
      5 CA        -52.2208  -25.2712    7.3755 C.3       1 UNK         0.0864 
      6 C6        -53.5004  -25.7540    6.6312 C.3       14 UNK        -0.0898 
      7 S7        -53.4748  -27.5323    6.2204 S.3       14 UNK        -0.2598 
      8 C8        -53.8754  -28.2699    7.8410 C.3       14 UNK         0.0286 
      9 C9        -52.8340  -29.2628    8.3495 C.ar      14 UNK        -0.0844 
     10 C10       -51.4661  -29.0859    8.1142 C.ar      14 UNK        -0.0881 
     11 C11       -50.5255  -29.9712    8.6436 C.ar      14 UNK        -0.0643 
     12 C12       -50.9564  -31.0461    9.4263 C.ar      14 UNK        -0.0930 
     13 C13       -52.3184  -31.2279    9.6833 C.ar      14 UNK        -0.0827 
     14 C14       -53.2498  -30.3448    9.1289 C.ar      14 UNK        -0.1249 
     15 C15       -52.7902  -32.3539   10.5911 C.3       14 UNK         0.0141 
     16 S16       -52.4926  -32.0080   12.3608 S.3       14 UNK        -0.2313 
     17 C17       -53.1036  -30.2990   12.5791 C.3       14 UNK        -0.0915 
     18 CA        -54.6465  -30.1469   12.4483 C.3       13 UNK         0.0968 
     19 C         -55.3873  -30.3625   13.8022 C.2       13 UNK         0.5732 
     20 N         -56.1164  -29.3862   14.3345 N.am      13 UNK        -0.7310 
     21 O         -55.3186  -31.4471   14.3745 O.2       13 UNK        -0.5035 
     22 N         -54.9909  -28.8862   11.7767 N.am      13 UNK        -0.4233 
     23 C         -56.1297  -28.6640   11.1045 C.2       13 UNK         0.4989 
     24 O         -56.9539  -29.5462   10.8593 O.2       13 UNK        -0.4996 
     25 CA        -56.3994  -27.2220   10.6183 C.3       12 UNK         0.0216 
     26 CB        -57.9037  -26.8753   10.6085 C.3       12 UNK        -0.1964 
     27 N         -55.6330  -26.1995   11.3432 N.am      12 UNK        -0.4276 
     28 C         -55.6873  -25.9345   12.6549 C.2       12 UNK         0.5020 
     29 O         -56.4519  -26.4957   13.4452 O.2       12 UNK        -0.5489 
     30 CA        -54.6778  -24.9018   13.1827 C.3       11 UNK         0.0294 
     31 CB        -55.3573  -23.5461   13.4288 C.3       11 UNK        -0.2019 
     32 N         -54.0427  -25.3688   14.4167 N.am      11 UNK        -0.4493 
     33 C         -53.2695  -26.4595   14.4935 C.2       11 UNK         0.4932 
     34 O         -52.9807  -27.1631   13.5240 O.2       11 UNK        -0.5029 
     35 CA        -52.7707  -26.8510   15.8869 C.3       10 UNK         0.0280 
     36 CB        -53.3874  -28.1908   16.3359 C.3       10 UNK        -0.1976 
     37 N         -51.3115  -26.9157   15.8712 N.am      10 UNK        -0.4242 
     38 C         -50.5376  -26.9518   16.9642 C.2       10 UNK         0.5072 
     39 O         -50.9732  -27.0172   18.1152 O.2       10 UNK        -0.5224 
     40 CA        -49.0176  -26.8584   16.7501 C.3       9 UNK         0.0343 
     41 CB        -48.4478  -28.1720   16.1897 C.3       9 UNK        -0.2003 
     42 N         -48.6473  -25.7309   15.8913 N.am      9 UNK        -0.4272 
     43 C         -48.8099  -24.4409   16.2258 C.2       9 UNK         0.4988 
     44 O         -49.2279  -24.0632   17.3212 O.2       9 UNK        -0.5108 
     45 CA        -48.4416  -23.3844   15.1716 C.3       8 UNK         0.0248 
     46 CB        -46.9544  -23.0130   15.2837 C.3       8 UNK        -0.2001 
     47 N         -48.7470  -23.8097   13.8042 N.am      8 UNK        -0.4140 
     48 C         -49.9875  -23.9564   13.3146 C.2       8 UNK         0.5028 
     49 O         -51.0090  -23.6698   13.9391 O.2       8 UNK        -0.5428 
     50 CA        -50.1133  -24.5430   11.8964 C.3       7 UNK         0.0264 
     51 CB        -49.8906  -23.4476   10.8428 C.3       7 UNK        -0.1988 
     52 N         -49.1969  -25.6613   11.6462 N.am      7 UNK        -0.4454 
     53 C         -49.1881  -26.8042   12.3529 C.2       7 UNK         0.5027 
     54 O         -49.9692  -27.0434   13.2728 O.2       7 UNK        -0.5083 
     55 CA        -48.0740  -27.8255   12.0537 C.3       6 UNK         0.0844 
     56 C56       -48.4762  -28.8731   10.9883 C.3       14 UNK        -0.0967 
     57 S57       -48.4390  -28.2687    9.2689 S.3       14 UNK        -0.2604 
     58 C58       -49.0454  -29.7377    8.3830 C.3       14 UNK         0.0134 
     59 N         -46.7915  -27.1719   11.7857 N.am      6 UNK        -0.4116 
     60 C         -46.0610  -26.5629   12.7302 C.2       5 UNK         0.5034 
     61 O         -46.3819  -26.5076   13.9179 O.2       5 UNK        -0.5045 
     62 CA        -44.7724  -25.8682   12.2651 C.3       5 UNK         0.0224 
     63 CB        -43.6922  -26.8978   11.8940 C.3       5 UNK        -0.1978 
     64 N         -44.9902  -24.9521   11.1429 N.am      5 UNK        -0.4737 
     65 C         -45.7677  -23.8611   11.1913 C.2       4 UNK         0.5027 
     66 O         -46.4104  -23.5208   12.1815 O.2       4 UNK        -0.5211 
     67 CA        -45.8601  -23.0119    9.9145 C.3       4 UNK         0.0297 
     68 CB        -44.7373  -21.9629    9.8871 C.3       4 UNK        -0.1993 
     69 N         -45.8253  -23.8013    8.6816 N.am      4 UNK        -0.4486 
     70 C         -46.7411  -24.7134    8.3328 C.2       3 UNK         0.4961 
     71 O         -47.7034  -25.0359    9.0341 O.2       3 UNK        -0.5105 
     72 CA        -46.5181  -25.3933    6.9811 C.3       3 UNK         0.0299 
     73 CB        -45.6081  -26.6256    7.1234 C.3       3 UNK        -0.1972 
     74 N         -47.8089  -25.7912    6.4276 N.am      3 UNK        -0.4305 
     75 C         -48.1444  -25.6938    5.1358 C.2       2 UNK         0.5006 
     76 O         -47.3738  -25.2951    4.2606 O.2       2 UNK        -0.5106 
     77 CA        -49.5630  -26.1223    4.7198 C.3       2 UNK         0.0296 
     78 CB        -49.5290  -27.5286    4.0976 C.3       2 UNK        -0.2002 
     79 N         -50.5679  -26.1093    5.7850 N.am      2 UNK        -0.4032 
     80 C         -51.0393  -25.0266    6.4167 C.2       1 UNK         0.5000 
     81 O         -50.6067  -23.8825    6.2480 O.2       1 UNK        -0.5238 
     82 H82       -52.6554  -21.8704    9.4703 H         1 UNK         0.0889 
     83 H83       -53.0362  -22.6792   10.9931 H         1 UNK         0.0889 
     84 H84       -54.3301  -22.2676    9.8667 H         1 UNK         0.0889 
     85 H85       -51.9933  -23.2375    7.7578 H         1 UNK         0.3028 
     86 H86       -51.9021  -26.0320    8.0912 H         1 UNK         0.0864 
     87 H87       -54.3931  -25.5755    7.2323 H         1 UNK         0.0720 
     88 H88       -53.6579  -25.1826    5.7143 H         1 UNK         0.0720 
     89 H89       -54.8516  -28.7510    7.7619 H         1 UNK         0.0814 
     90 H90       -53.9748  -27.4877    8.5934 H         1 UNK         0.0814 
     91 H91       -51.1147  -28.2471    7.5366 H         1 UNK         0.1469 
     92 H92       -50.2340  -31.7247    9.8590 H         1 UNK         0.1381 
     93 H93       -54.3023  -30.4813    9.3362 H         1 UNK         0.1206 
     94 H94       -52.2752  -33.2771   10.3220 H         1 UNK         0.0813 
     95 H95       -53.8525  -32.5492   10.4384 H         1 UNK         0.0813 
     96 H96       -52.5864  -29.6690   11.8541 H         1 UNK         0.0638 
     97 H97       -52.7551  -29.9352   13.5465 H         1 UNK         0.0638 
     98 H98       -55.0057  -30.9460   11.7991 H         1 UNK         0.0568 
     99 H99       -56.1889  -28.4774   13.8899 H         1 UNK         0.3450 
    100 H100      -56.5994  -29.5567   15.2012 H         1 UNK         0.3450 
    101 H101      -54.3756  -28.1080   11.9782 H         1 UNK         0.2987 
    102 H102      -56.0547  -27.1801    9.5857 H         1 UNK         0.0766 
    103 H103      -58.3484  -26.9694   11.5997 H         1 UNK         0.0798 
    104 H104      -58.0737  -25.8568   10.2597 H         1 UNK         0.0798 
    105 H105      -58.4553  -27.5396    9.9421 H         1 UNK         0.0798 
    106 H106      -54.9319  -25.7074   10.7831 H         1 UNK         0.3198 
    107 H107      -53.8861  -24.7627   12.4438 H         1 UNK         0.0843 
    108 H108      -56.1485  -23.6210   14.1760 H         1 UNK         0.0831 
    109 H109      -55.8097  -23.1668   12.5114 H         1 UNK         0.0831 
    110 H110      -54.6401  -22.7985   13.7682 H         1 UNK         0.0831 
    111 H111      -54.2623  -24.8617   15.2613 H         1 UNK         0.3133 
    112 H112      -53.0691  -26.0753   16.5955 H         1 UNK         0.0566 
    113 H113      -54.4759  -28.1502   16.2905 H         1 UNK         0.0814 
    114 H114      -53.0629  -29.0156   15.7019 H         1 UNK         0.0814 
    115 H115      -53.1211  -28.4361   17.3635 H         1 UNK         0.0814 
    116 H116      -50.8804  -26.8805   14.9467 H         1 UNK         0.3091 
    117 H117      -48.5557  -26.6895   17.7253 H         1 UNK         0.0702 
    118 H118      -47.3673  -28.1123   16.0578 H         1 UNK         0.0785 
    119 H119      -48.8892  -28.4333   15.2288 H         1 UNK         0.0785 
    120 H120      -48.6464  -29.0003   16.8710 H         1 UNK         0.0785 
    121 H121      -48.2505  -25.9542   14.9868 H         1 UNK         0.2998 
    122 H122      -49.0300  -22.4889   15.3825 H         1 UNK         0.0697 
    123 H123      -46.3087  -23.8587   15.0427 H         1 UNK         0.0825 
    124 H124      -46.7061  -22.6886   16.2952 H         1 UNK         0.0825 
    125 H125      -46.6989  -22.1952   14.6097 H         1 UNK         0.0825 
    126 H126      -47.9503  -23.9813   13.1948 H         1 UNK         0.3029 
    127 H127      -51.1312  -24.9253   11.7884 H         1 UNK         0.0897 
    128 H128      -48.8746  -23.0575   10.8816 H         1 UNK         0.0792 
    129 H129      -50.5634  -22.6051   11.0026 H         1 UNK         0.0792 
    130 H130      -50.0643  -23.8232    9.8345 H         1 UNK         0.0792 
    131 H131      -48.5395  -25.5492   10.8801 H         1 UNK         0.3086 
    132 H132      -47.9419  -28.3917   12.9784 H         1 UNK         0.0583 
    133 H133      -47.7988  -29.7259   11.0536 H         1 UNK         0.1020 
    134 H134      -49.4690  -29.2709   11.2096 H         1 UNK         0.1020 
    135 H135      -48.8862  -29.5951    7.3132 H         1 UNK         0.0694 
    136 H136      -48.4530  -30.6083    8.6690 H         1 UNK         0.0694 
    137 H137      -46.4930  -27.1389   10.8219 H         1 UNK         0.2989 
    138 H138      -44.4034  -25.2770   13.1065 H         1 UNK         0.1055 
    139 H139      -43.5145  -27.5903   12.7182 H         1 UNK         0.0806 
    140 H140      -42.7417  -26.4117   11.6732 H         1 UNK         0.0806 
    141 H141      -43.9746  -27.4920   11.0241 H         1 UNK         0.0806 
    142 H142      -44.5042  -25.1529   10.2812 H         1 UNK         0.3061 
    143 H143      -46.8139  -22.4822    9.9385 H         1 UNK         0.0734 
    144 H144      -43.7508  -22.4249    9.8312 H         1 UNK         0.0832 
    145 H145      -44.8427  -21.2887    9.0370 H         1 UNK         0.0832 
    146 H146      -44.7576  -21.3483   10.7885 H         1 UNK         0.0832 
    147 H147      -45.0652  -23.6103    8.0441 H         1 UNK         0.3156 
    148 H148      -46.0364  -24.6702    6.3192 H         1 UNK         0.0589 
    149 H149      -46.0373  -27.3719    7.7917 H         1 UNK         0.0808 
    150 H150      -45.4374  -27.1029    6.1584 H         1 UNK         0.0808 
    151 H151      -44.6321  -26.3505    7.5247 H         1 UNK         0.0808 
    152 H152      -48.4987  -26.0694    7.1134 H         1 UNK         0.3098 
    153 H153      -49.8947  -25.4196    3.9526 H         1 UNK         0.0720 
    154 H154      -50.5035  -27.8116    3.6985 H         1 UNK         0.0791 
    155 H155      -49.2306  -28.2843    4.8256 H         1 UNK         0.0791 
    156 H156      -48.8184  -27.5745    3.2710 H         1 UNK         0.0791 
    157 H157      -51.0450  -26.9848    5.9455 H         1 UNK         0.3028 
@<TRIPOS>BOND
     1    1    2 1    
     2    1   82 1    
     3    1   83 1    
     4    1   84 1    
     5    2    3 2    
     6    2    4 am   BACKBONE|DICT|INTERRES
     7    4    5 1    
     8    4   85 1    
     9    5    6 1    
    10    5   80 1    
    11    5   86 1    
    12    6    7 1    
    13    6   87 1    
    14    6   88 1    
    15    7    8 1    
    16    8    9 1    
    17    8   89 1    
    18    8   90 1    
    19    9   10 ar   
    20    9   14 ar   
    21   10   11 ar   
    22   10   91 1    
    23   11   12 ar   
    24   11   58 1    
    25   12   13 ar   
    26   12   92 1    
    27   13   14 ar   
    28   13   15 1    
    29   14   93 1    
    30   15   16 1    
    31   15   94 1    
    32   15   95 1    
    33   16   17 1    
    34   17   18 1    
    35   17   96 1    
    36   17   97 1    
    37   18   19 1    
    38   18   22 1    
    39   18   98 1    
    40   19   20 am   BACKBONE|DICT|INTERRES
    41   19   21 2    
    42   20   99 1    
    43   20  100 1    
    44   22   23 am   BACKBONE|DICT|INTERRES
    45   22  101 1    
    46   23   24 2    
    47   23   25 1    
    48   25   26 1    
    49   25   27 1    
    50   25  102 1    
    51   26  103 1    
    52   26  104 1    
    53   26  105 1    
    54   27   28 am   BACKBONE|DICT|INTERRES
    55   27  106 1    
    56   28   29 2    
    57   28   30 1    
    58   30   31 1    
    59   30   32 1    
    60   30  107 1    
    61   31  108 1    
    62   31  109 1    
    63   31  110 1    
    64   32   33 am   BACKBONE|DICT|INTERRES
    65   32  111 1    
    66   33   34 2    
    67   33   35 1    
    68   35   36 1    
    69   35   37 1    
    70   35  112 1    
    71   36  113 1    
    72   36  114 1    
    73   36  115 1    
    74   37   38 am   BACKBONE|DICT|INTERRES
    75   37  116 1    
    76   38   39 2    
    77   38   40 1    
    78   40   41 1    
    79   40   42 1    
    80   40  117 1    
    81   41  118 1    
    82   41  119 1    
    83   41  120 1    
    84   42   43 am   BACKBONE|DICT|INTERRES
    85   42  121 1    
    86   43   44 2    
    87   43   45 1    
    88   45   46 1    
    89   45   47 1    
    90   45  122 1    
    91   46  123 1    
    92   46  124 1    
    93   46  125 1    
    94   47   48 am   BACKBONE|DICT|INTERRES
    95   47  126 1    
    96   48   49 2    
    97   48   50 1    
    98   50   51 1    
    99   50   52 1    
   100   50  127 1    
   101   51  128 1    
   102   51  129 1    
   103   51  130 1    
   104   52   53 am   BACKBONE|DICT|INTERRES
   105   52  131 1    
   106   53   54 2    
   107   53   55 1    
   108   55   56 1    
   109   55   59 1    
   110   55  132 1    
   111   56   57 1    
   112   56  133 1    
   113   56  134 1    
   114   57   58 1    
   115   58  135 1    
   116   58  136 1    
   117   59   60 am   BACKBONE|DICT|INTERRES
   118   59  137 1    
   119   60   61 2    
   120   60   62 1    
   121   62   63 1    
   122   62   64 1    
   123   62  138 1    
   124   63  139 1    
   125   63  140 1    
   126   63  141 1    
   127   64   65 am   BACKBONE|DICT|INTERRES
   128   64  142 1    
   129   65   66 2    
   130   65   67 1    
   131   67   68 1    
   132   67   69 1    
   133   67  143 1    
   134   68  144 1    
   135   68  145 1    
   136   68  146 1    
   137   69   70 am   BACKBONE|DICT|INTERRES
   138   69  147 1    
   139   70   71 2    
   140   70   72 1    
   141   72   73 1    
   142   72   74 1    
   143   72  148 1    
   144   73  149 1    
   145   73  150 1    
   146   73  151 1    
   147   74   75 am   BACKBONE|DICT|INTERRES
   148   74  152 1    
   149   75   76 2    
   150   75   77 1    
   151   77   78 1    
   152   77   79 1    
   153   77  153 1    
   154   78  154 1    
   155   78  155 1    
   156   78  156 1    
   157   79   80 am   BACKBONE|DICT|INTERRES
   158   79  157 1    
   159   80   81 2    
@<TRIPOS>SUBSTRUCTURE
     1 UNK         1 GROUP             0       ****    0 ROOT    
