@<TRIPOS>MOLECULE
3R207
157   159    1
SMALL
USER_CHARGES


@<TRIPOS>ATOM
      1 CA        -46.9025  -32.4480    4.3559 C.3       0 UNK        -0.1975 
      2 C         -47.5671  -31.0933    4.1601 C.2       0 UNK         0.4852 
      3 O         -47.4899  -30.5284    3.0685 O.2       0 UNK        -0.5216 
      4 N         -48.2219  -30.5748    5.2080 N.am      1 UNK        -0.4461 
      5 CA        -48.9127  -29.2793    5.2210 C.3       1 UNK         0.0864 
      6 C6        -49.7396  -29.0899    6.5181 C.3       14 UNK        -0.0898 
      7 S7        -51.3226  -29.9904    6.4477 S.3       14 UNK        -0.2598 
      8 C8        -51.9832  -29.7193    8.1320 C.3       14 UNK         0.0286 
      9 C9        -52.6073  -28.3480    8.4173 C.ar      14 UNK        -0.0844 
     10 C10       -52.4967  -27.2525    7.5499 C.ar      14 UNK        -0.0881 
     11 C11       -53.0350  -26.0081    7.8889 C.ar      14 UNK        -0.0643 
     12 C12       -53.7568  -25.8724    9.0770 C.ar      14 UNK        -0.0930 
     13 C13       -53.8874  -26.9545    9.9505 C.ar      14 UNK        -0.0827 
     14 C14       -53.3042  -28.1814    9.6186 C.ar      14 UNK        -0.1249 
     15 C15       -54.6346  -26.7935   11.2643 C.3       14 UNK         0.0141 
     16 S16       -56.3145  -27.4819   11.1496 S.3       14 UNK        -0.2313 
     17 C17       -56.8652  -27.3529   12.8868 C.3       14 UNK        -0.0915 
     18 CA        -56.8574  -28.7055   13.6503 C.3       13 UNK         0.0968 
     19 C         -58.0207  -29.6471   13.2215 C.2       13 UNK         0.5732 
     20 N         -57.7587  -30.8625   12.7549 N.am      13 UNK        -0.7310 
     21 O         -59.1863  -29.2736   13.3328 O.2       13 UNK        -0.5035 
     22 N         -55.5219  -29.3189   13.6262 N.am      13 UNK        -0.4233 
     23 C         -55.0110  -30.1028   14.5807 C.2       13 UNK         0.4989 
     24 O         -55.6227  -30.4401   15.5952 O.2       13 UNK        -0.4996 
     25 CA        -53.5640  -30.5770   14.3906 C.3       12 UNK         0.0216 
     26 CB        -53.0168  -30.4273   12.9542 C.3       12 UNK        -0.1964 
     27 N         -52.7226  -29.8185   15.3099 N.am      12 UNK        -0.4276 
     28 C         -51.7098  -30.3208   16.0278 C.2       12 UNK         0.5020 
     29 O         -51.3635  -31.5026   15.9807 O.2       12 UNK        -0.5489 
     30 CA        -50.9305  -29.3583   16.9468 C.3       11 UNK         0.0294 
     31 CB        -49.5166  -29.1156   16.3921 C.3       11 UNK        -0.2019 
     32 N         -51.5993  -28.0682   17.1403 N.am      11 UNK        -0.4493 
     33 C         -52.6603  -27.8811   17.9410 C.2       11 UNK         0.4932 
     34 O         -53.1269  -28.7629   18.6623 O.2       11 UNK        -0.5029 
     35 CA        -53.3354  -26.4939   17.9383 C.3       10 UNK         0.0280 
     36 CB        -52.9313  -25.7012   19.1920 C.3       10 UNK        -0.1976 
     37 N         -53.0586  -25.6800   16.7511 N.am      10 UNK        -0.4242 
     38 C         -53.3614  -26.0096   15.4872 C.2       10 UNK         0.5072 
     39 O         -53.9506  -27.0426   15.1724 O.2       10 UNK        -0.5224 
     40 CA        -52.8677  -25.0589   14.3828 C.3       9 UNK         0.0343 
     41 CB        -53.9557  -24.0320   14.0331 C.3       9 UNK        -0.2003 
     42 N         -51.6134  -24.3573   14.6896 N.am      9 UNK        -0.4272 
     43 C         -50.4556  -24.9365   15.0431 C.2       9 UNK         0.4988 
     44 O         -50.3317  -26.1460   15.2432 O.2       9 UNK        -0.5108 
     45 CA        -49.2450  -24.0030   15.2170 C.3       8 UNK         0.0248 
     46 CB        -47.9592  -24.7675   15.5852 C.3       8 UNK        -0.2001 
     47 N         -49.0106  -23.2238   13.9997 N.am      8 UNK        -0.4140 
     48 C         -49.5904  -22.0484   13.7219 C.2       8 UNK         0.5028 
     49 O         -50.3815  -21.4857   14.4802 O.2       8 UNK        -0.5428 
     50 CA        -49.2749  -21.4197   12.3549 C.3       7 UNK         0.0264 
     51 CB        -47.8043  -20.9790   12.2651 C.3       7 UNK        -0.1988 
     52 N         -49.5904  -22.3247   11.2492 N.am      7 UNK        -0.4454 
     53 C         -50.8272  -22.7261   10.9172 C.2       7 UNK         0.5027 
     54 O         -51.8510  -22.3088   11.4592 O.2       7 UNK        -0.5083 
     55 CA        -50.9432  -23.7807    9.8001 C.3       6 UNK         0.0844 
     56 C56       -51.0153  -23.1105    8.4048 C.3       14 UNK        -0.0967 
     57 S57       -51.0619  -24.2805    7.0021 S.3       14 UNK        -0.2604 
     58 C58       -52.8076  -24.8138    6.9729 C.3       14 UNK         0.0134 
     59 N         -49.8886  -24.7891    9.9167 N.am      6 UNK        -0.4116 
     60 C         -49.8579  -25.7345   10.8671 C.2       5 UNK         0.5034 
     61 O         -50.7551  -25.9149   11.6879 O.2       5 UNK        -0.5045 
     62 CA        -48.6003  -26.6131   10.9354 C.3       5 UNK         0.0224 
     63 CB        -48.7897  -27.8839   10.0925 C.3       5 UNK        -0.1978 
     64 N         -47.3978  -25.8963   10.4984 N.am      5 UNK        -0.4737 
     65 C         -46.7891  -24.9486   11.2280 C.2       4 UNK         0.5027 
     66 O         -47.1602  -24.6135   12.3511 O.2       4 UNK        -0.5211 
     67 CA        -45.5958  -24.2136   10.5913 C.3       4 UNK         0.0297 
     68 CB        -44.2891  -24.9726   10.8692 C.3       4 UNK        -0.1993 
     69 N         -45.7425  -24.0060    9.1500 N.am      4 UNK        -0.4486 
     70 C         -46.7336  -23.3154    8.5693 C.2       3 UNK         0.4961 
     71 O         -47.5970  -22.7024    9.1968 O.2       3 UNK        -0.5105 
     72 CA        -46.8113  -23.3616    7.0320 C.3       3 UNK         0.0299 
     73 CB        -46.1419  -22.1181    6.4267 C.3       3 UNK        -0.1972 
     74 N         -46.2407  -24.5720    6.4212 N.am      3 UNK        -0.4305 
     75 C         -46.6222  -25.8280    6.6946 C.2       2 UNK         0.5006 
     76 O         -47.4416  -26.1205    7.5687 O.2       2 UNK        -0.5106 
     77 CA        -45.9324  -26.9510    5.8997 C.3       2 UNK         0.0296 
     78 CB        -44.6474  -27.3988    6.6153 C.3       2 UNK        -0.2002 
     79 N         -46.8223  -28.1043    5.7494 N.am      2 UNK        -0.4032 
     80 C         -47.9541  -28.0874    5.0308 C.2       1 UNK         0.5000 
     81 O         -48.2665  -27.1741    4.2633 O.2       1 UNK        -0.5238 
     82 H82       -47.3110  -33.1715    3.6509 H         1 UNK         0.0889 
     83 H83       -47.0527  -32.8351    5.3636 H         1 UNK         0.0889 
     84 H84       -45.8301  -32.3685    4.1799 H         1 UNK         0.0889 
     85 H85       -48.2732  -31.1049    6.0662 H         1 UNK         0.3028 
     86 H86       -49.5934  -29.2617    4.3666 H         1 UNK         0.0864 
     87 H87       -49.1743  -29.4289    7.3878 H         1 UNK         0.0720 
     88 H88       -49.9487  -28.0354    6.7006 H         1 UNK         0.0720 
     89 H89       -51.1903  -29.9051    8.8577 H         1 UNK         0.0814 
     90 H90       -52.7412  -30.4837    8.3094 H         1 UNK         0.0814 
     91 H91       -51.9762  -27.3379    6.6092 H         1 UNK         0.1469 
     92 H92       -54.1905  -24.9165    9.3369 H         1 UNK         0.1381 
     93 H93       -53.3991  -29.0155   10.2993 H         1 UNK         0.1206 
     94 H94       -54.0795  -27.2856   12.0634 H         1 UNK         0.0813 
     95 H95       -54.6965  -25.7400   11.5411 H         1 UNK         0.0813 
     96 H96       -57.8614  -26.9072   12.8998 H         1 UNK         0.0638 
     97 H97       -56.2261  -26.6406   13.4105 H         1 UNK         0.0638 
     98 H98       -57.0745  -28.4620   14.6922 H         1 UNK         0.0568 
     99 H99       -56.8084  -31.1812   12.6628 H         1 UNK         0.3450 
    100 H100      -58.5224  -31.4633   12.4880 H         1 UNK         0.3450 
    101 H101      -54.9603  -29.1017   12.8184 H         1 UNK         0.2987 
    102 H102      -53.5519  -31.6366   14.6548 H         1 UNK         0.0766 
    103 H103      -53.6691  -30.9093   12.2246 H         1 UNK         0.0798 
    104 H104      -52.0383  -30.8997   12.8644 H         1 UNK         0.0798 
    105 H105      -52.8962  -29.3818   12.6689 H         1 UNK         0.0798 
    106 H106      -52.9853  -28.8448   15.4379 H         1 UNK         0.3198 
    107 H107      -50.8323  -29.8454   17.9194 H         1 UNK         0.0843 
    108 H108      -48.9481  -28.4375   17.0286 H         1 UNK         0.0831 
    109 H109      -49.5450  -28.6897   15.3884 H         1 UNK         0.0831 
    110 H110      -48.9565  -30.0497   16.3311 H         1 UNK         0.0831 
    111 H111      -51.2663  -27.3000   16.5627 H         1 UNK         0.3133 
    112 H112      -54.4137  -26.6618   17.9720 H         1 UNK         0.0566 
    113 H113      -53.4731  -24.7575   19.2587 H         1 UNK         0.0814 
    114 H114      -51.8634  -25.4792   19.2022 H         1 UNK         0.0814 
    115 H115      -53.1551  -26.2642   20.0994 H         1 UNK         0.0814 
    116 H116      -52.5606  -24.8151   16.9022 H         1 UNK         0.3091 
    117 H117      -52.6819  -25.6713   13.4992 H         1 UNK         0.0702 
    118 H118      -53.6796  -23.4472   13.1556 H         1 UNK         0.0785 
    119 H119      -54.1365  -23.3393   14.8558 H         1 UNK         0.0785 
    120 H120      -54.9026  -24.5237   13.8067 H         1 UNK         0.0785 
    121 H121      -51.6069  -23.3541   14.5484 H         1 UNK         0.2998 
    122 H122      -49.4718  -23.3275   16.0445 H         1 UNK         0.0697 
    123 H123      -47.6975  -25.5060   14.8264 H         1 UNK         0.0825 
    124 H124      -48.0788  -25.3008   16.5291 H         1 UNK         0.0825 
    125 H125      -47.1127  -24.0905   15.6993 H         1 UNK         0.0825 
    126 H126      -48.3905  -23.6506   13.3123 H         1 UNK         0.3029 
    127 H127      -49.8999  -20.5305   12.2468 H         1 UNK         0.0897 
    128 H128      -47.1192  -21.8226   12.3489 H         1 UNK         0.0792 
    129 H129      -47.5583  -20.2783   13.0640 H         1 UNK         0.0792 
    130 H130      -47.5992  -20.4778   11.3188 H         1 UNK         0.0792 
    131 H131      -48.8092  -22.6520   10.6862 H         1 UNK         0.3086 
    132 H132      -51.8913  -24.2867    9.9687 H         1 UNK         0.0583 
    133 H133      -51.8874  -22.4567    8.3439 H         1 UNK         0.1020 
    134 H134      -50.1501  -22.4624    8.2527 H         1 UNK         0.1020 
    135 H135      -53.4596  -23.9802    7.2376 H         1 UNK         0.0694 
    136 H136      -53.0704  -25.0953    5.9522 H         1 UNK         0.0694 
    137 H137      -49.1176  -24.7212    9.2678 H         1 UNK         0.2989 
    138 H138      -48.4638  -26.9107   11.9780 H         1 UNK         0.1055 
    139 H139      -48.9954  -27.6443    9.0496 H         1 UNK         0.0806 
    140 H140      -47.9079  -28.5235   10.1266 H         1 UNK         0.0806 
    141 H141      -49.6335  -28.4693   10.4606 H         1 UNK         0.0806 
    142 H142      -47.0961  -26.0603    9.5426 H         1 UNK         0.3061 
    143 H143      -45.5260  -23.2298   11.0597 H         1 UNK         0.0734 
    144 H144      -44.2850  -25.9575   10.4002 H         1 UNK         0.0832 
    145 H145      -43.4227  -24.4211   10.5037 H         1 UNK         0.0832 
    146 H146      -44.1469  -25.1219   11.9406 H         1 UNK         0.0832 
    147 H147      -45.0806  -24.4763    8.5508 H         1 UNK         0.3156 
    148 H148      -47.8707  -23.3395    6.7676 H         1 UNK         0.0589 
    149 H149      -46.2886  -22.0724    5.3475 H         1 UNK         0.0808 
    150 H150      -46.5650  -21.2041    6.8467 H         1 UNK         0.0808 
    151 H151      -45.0691  -22.1003    6.6230 H         1 UNK         0.0808 
    152 H152      -45.5459  -24.4256    5.7024 H         1 UNK         0.3098 
    153 H153      -45.6769  -26.5796    4.9050 H         1 UNK         0.0720 
    154 H154      -43.9420  -26.5722    6.7103 H         1 UNK         0.0791 
    155 H155      -44.1413  -28.1907    6.0626 H         1 UNK         0.0791 
    156 H156      -44.8525  -27.7695    7.6208 H         1 UNK         0.0791 
    157 H157      -46.6566  -28.8884    6.3622 H         1 UNK         0.3028 
@<TRIPOS>BOND
     1    1    2 1    
     2    1   82 1    
     3    1   83 1    
     4    1   84 1    
     5    2    3 2    
     6    2    4 am   BACKBONE|DICT|INTERRES
     7    4    5 1    
     8    4   85 1    
     9    5    6 1    
    10    5   80 1    
    11    5   86 1    
    12    6    7 1    
    13    6   87 1    
    14    6   88 1    
    15    7    8 1    
    16    8    9 1    
    17    8   89 1    
    18    8   90 1    
    19    9   10 ar   
    20    9   14 ar   
    21   10   11 ar   
    22   10   91 1    
    23   11   12 ar   
    24   11   58 1    
    25   12   13 ar   
    26   12   92 1    
    27   13   14 ar   
    28   13   15 1    
    29   14   93 1    
    30   15   16 1    
    31   15   94 1    
    32   15   95 1    
    33   16   17 1    
    34   17   18 1    
    35   17   96 1    
    36   17   97 1    
    37   18   19 1    
    38   18   22 1    
    39   18   98 1    
    40   19   20 am   BACKBONE|DICT|INTERRES
    41   19   21 2    
    42   20   99 1    
    43   20  100 1    
    44   22   23 am   BACKBONE|DICT|INTERRES
    45   22  101 1    
    46   23   24 2    
    47   23   25 1    
    48   25   26 1    
    49   25   27 1    
    50   25  102 1    
    51   26  103 1    
    52   26  104 1    
    53   26  105 1    
    54   27   28 am   BACKBONE|DICT|INTERRES
    55   27  106 1    
    56   28   29 2    
    57   28   30 1    
    58   30   31 1    
    59   30   32 1    
    60   30  107 1    
    61   31  108 1    
    62   31  109 1    
    63   31  110 1    
    64   32   33 am   BACKBONE|DICT|INTERRES
    65   32  111 1    
    66   33   34 2    
    67   33   35 1    
    68   35   36 1    
    69   35   37 1    
    70   35  112 1    
    71   36  113 1    
    72   36  114 1    
    73   36  115 1    
    74   37   38 am   BACKBONE|DICT|INTERRES
    75   37  116 1    
    76   38   39 2    
    77   38   40 1    
    78   40   41 1    
    79   40   42 1    
    80   40  117 1    
    81   41  118 1    
    82   41  119 1    
    83   41  120 1    
    84   42   43 am   BACKBONE|DICT|INTERRES
    85   42  121 1    
    86   43   44 2    
    87   43   45 1    
    88   45   46 1    
    89   45   47 1    
    90   45  122 1    
    91   46  123 1    
    92   46  124 1    
    93   46  125 1    
    94   47   48 am   BACKBONE|DICT|INTERRES
    95   47  126 1    
    96   48   49 2    
    97   48   50 1    
    98   50   51 1    
    99   50   52 1    
   100   50  127 1    
   101   51  128 1    
   102   51  129 1    
   103   51  130 1    
   104   52   53 am   BACKBONE|DICT|INTERRES
   105   52  131 1    
   106   53   54 2    
   107   53   55 1    
   108   55   56 1    
   109   55   59 1    
   110   55  132 1    
   111   56   57 1    
   112   56  133 1    
   113   56  134 1    
   114   57   58 1    
   115   58  135 1    
   116   58  136 1    
   117   59   60 am   BACKBONE|DICT|INTERRES
   118   59  137 1    
   119   60   61 2    
   120   60   62 1    
   121   62   63 1    
   122   62   64 1    
   123   62  138 1    
   124   63  139 1    
   125   63  140 1    
   126   63  141 1    
   127   64   65 am   BACKBONE|DICT|INTERRES
   128   64  142 1    
   129   65   66 2    
   130   65   67 1    
   131   67   68 1    
   132   67   69 1    
   133   67  143 1    
   134   68  144 1    
   135   68  145 1    
   136   68  146 1    
   137   69   70 am   BACKBONE|DICT|INTERRES
   138   69  147 1    
   139   70   71 2    
   140   70   72 1    
   141   72   73 1    
   142   72   74 1    
   143   72  148 1    
   144   73  149 1    
   145   73  150 1    
   146   73  151 1    
   147   74   75 am   BACKBONE|DICT|INTERRES
   148   74  152 1    
   149   75   76 2    
   150   75   77 1    
   151   77   78 1    
   152   77   79 1    
   153   77  153 1    
   154   78  154 1    
   155   78  155 1    
   156   78  156 1    
   157   79   80 am   BACKBONE|DICT|INTERRES
   158   79  157 1    
   159   80   81 2    
@<TRIPOS>SUBSTRUCTURE
     1 UNK         1 GROUP             0       ****    0 ROOT    
