@<TRIPOS>MOLECULE
3R207
157   159    1
SMALL
USER_CHARGES


@<TRIPOS>ATOM
      1 CA        -49.7545  -23.2532    3.6662 C.3       0 UNK        -0.1975 
      2 C         -50.1426  -23.4818    5.1190 C.2       0 UNK         0.4852 
      3 O         -50.3766  -22.5206    5.8520 O.2       0 UNK        -0.5216 
      4 N         -50.1862  -24.7470    5.5555 N.am      1 UNK        -0.4461 
      5 CA        -50.5689  -25.2101    6.8988 C.3       1 UNK         0.0864 
      6 C6        -51.0412  -26.6847    6.8564 C.3       14 UNK        -0.0898 
      7 S7        -49.8391  -27.8249    6.0798 S.3       14 UNK        -0.2598 
      8 C8        -50.8954  -29.2642    5.7135 C.3       14 UNK         0.0286 
      9 C9        -51.6241  -29.7538    6.9559 C.ar      14 UNK        -0.0844 
     10 C10       -50.9199  -30.4021    7.9731 C.ar      14 UNK        -0.0881 
     11 C11       -51.5662  -30.7775    9.1538 C.ar      14 UNK        -0.0643 
     12 C12       -52.9383  -30.5482    9.2903 C.ar      14 UNK        -0.0930 
     13 C13       -53.6556  -29.9072    8.2756 C.ar      14 UNK        -0.0827 
     14 C14       -52.9927  -29.5144    7.1099 C.ar      14 UNK        -0.1249 
     15 C15       -55.1419  -29.6224    8.4351 C.3       14 UNK         0.0141 
     16 S16       -55.4367  -27.9981    9.2081 S.3       14 UNK        -0.2313 
     17 C17       -55.3140  -28.4095   10.9822 C.3       14 UNK        -0.0915 
     18 CA        -56.6751  -28.4383   11.7268 C.3       13 UNK         0.0968 
     19 C         -57.6012  -29.5926   11.2372 C.2       13 UNK         0.5732 
     20 N         -57.6303  -30.7394   11.9078 N.am      13 UNK        -0.7310 
     21 O         -58.3188  -29.4398   10.2516 O.2       13 UNK        -0.5035 
     22 N         -56.4432  -28.4647   13.1759 N.am      13 UNK        -0.4233 
     23 C         -57.3487  -28.1912   14.1189 C.2       13 UNK         0.4989 
     24 O         -58.4761  -27.7594   13.8751 O.2       13 UNK        -0.4996 
     25 CA        -56.9452  -28.4371   15.5877 C.3       12 UNK         0.0216 
     26 CB        -57.4159  -29.8299   16.0507 C.3       12 UNK        -0.1964 
     27 N         -55.5225  -28.2317   15.9109 N.am      12 UNK        -0.4276 
     28 C         -54.4362  -28.8810   15.4684 C.2       12 UNK         0.5020 
     29 O         -54.4750  -29.7803   14.6259 O.2       12 UNK        -0.5489 
     30 CA        -53.0811  -28.4094   16.0315 C.3       11 UNK         0.0294 
     31 CB        -51.8948  -29.2148   15.4675 C.3       11 UNK        -0.2019 
     32 N         -52.8392  -26.9871   15.7790 N.am      11 UNK        -0.4493 
     33 C         -53.3982  -25.9604   16.4332 C.2       11 UNK         0.4932 
     34 O         -54.2480  -26.0984   17.3159 O.2       11 UNK        -0.5029 
     35 CA        -52.9148  -24.5576   16.0223 C.3       10 UNK         0.0280 
     36 CB        -53.4812  -23.4295   16.9099 C.3       10 UNK        -0.1976 
     37 N         -51.4516  -24.4931   15.9470 N.am      10 UNK        -0.4242 
     38 C         -50.5651  -24.6934   16.9355 C.2       10 UNK         0.5072 
     39 O         -50.8711  -24.8773   18.1144 O.2       10 UNK        -0.5224 
     40 CA        -49.0754  -24.7226   16.5439 C.3       9 UNK         0.0343 
     41 CB        -48.5565  -26.1704   16.5593 C.3       9 UNK        -0.2003 
     42 N         -48.8102  -24.1439   15.2248 N.am      9 UNK        -0.4272 
     43 C         -48.8226  -22.8336   14.9422 C.2       9 UNK         0.4988 
     44 O         -48.9753  -21.9495   15.7852 O.2       9 UNK        -0.5108 
     45 CA        -48.6835  -22.4523   13.4588 C.3       8 UNK         0.0248 
     46 CB        -47.2135  -22.5018   13.0095 C.3       8 UNK        -0.2001 
     47 N         -49.5011  -23.3082   12.5934 N.am      8 UNK        -0.4140 
     48 C         -50.8415  -23.2782   12.5427 C.2       8 UNK         0.5028 
     49 O         -51.5341  -22.5003   13.1975 O.2       8 UNK        -0.5428 
     50 CA        -51.5349  -24.3006   11.6266 C.3       7 UNK         0.0264 
     51 CB        -51.8385  -23.6758   10.2574 C.3       7 UNK        -0.1988 
     52 N         -50.7599  -25.5373   11.4661 N.am      7 UNK        -0.4454 
     53 C         -50.6930  -26.4789   12.4205 C.2       7 UNK         0.5027 
     54 O         -51.2785  -26.3950   13.5012 O.2       7 UNK        -0.5083 
     55 CA        -49.7905  -27.6953   12.1472 C.3       6 UNK         0.0844 
     56 C56       -50.5103  -28.7154   11.2335 C.3       14 UNK        -0.0967 
     57 S57       -49.5250  -30.2293   10.9634 S.3       14 UNK        -0.2604 
     58 C58       -50.7736  -31.3845   10.3031 C.3       14 UNK         0.0134 
     59 N         -48.4751  -27.3045   11.6311 N.am      6 UNK        -0.4116 
     60 C         -47.5764  -26.5517   12.2795 C.2       5 UNK         0.5034 
     61 O         -47.8042  -26.0155   13.3633 O.2       5 UNK        -0.5045 
     62 CA        -46.2102  -26.3012   11.6139 C.3       5 UNK         0.0224 
     63 CB        -45.0422  -26.7059   12.5372 C.3       5 UNK        -0.1978 
     64 N         -46.0668  -26.8742   10.2690 N.am      5 UNK        -0.4737 
     65 C         -45.9796  -28.1612    9.8994 C.2       4 UNK         0.5027 
     66 O         -45.9314  -29.0997   10.6930 O.2       4 UNK        -0.5211 
     67 CA        -46.0088  -28.4600    8.3877 C.3       4 UNK         0.0297 
     68 CB        -47.2237  -29.3383    8.0478 C.3       4 UNK        -0.1993 
     69 N         -46.0744  -27.2388    7.5776 N.am      4 UNK        -0.4486 
     70 C         -45.0084  -26.5696    7.1168 C.2       3 UNK         0.4961 
     71 O         -43.8467  -26.9557    7.2438 O.2       3 UNK        -0.5105 
     72 CA        -45.2837  -25.2204    6.4267 C.3       3 UNK         0.0299 
     73 CB        -45.5615  -25.4295    4.9287 C.3       3 UNK        -0.1972 
     74 N         -46.3969  -24.4761    7.0250 N.am      3 UNK        -0.4305 
     75 C         -46.4388  -24.0137    8.2851 C.2       2 UNK         0.5006 
     76 O         -45.5135  -24.1338    9.0855 O.2       2 UNK        -0.5106 
     77 CA        -47.7444  -23.3469    8.7540 C.3       2 UNK         0.0296 
     78 CB        -47.6130  -21.8168    8.7406 C.3       2 UNK        -0.2002 
     79 N         -48.8965  -23.7428    7.9437 N.am      2 UNK        -0.4032 
     80 C         -49.4881  -24.9432    7.9777 C.2       1 UNK         0.5000 
     81 O         -49.2024  -25.8023    8.8178 O.2       1 UNK        -0.5238 
     82 H82       -49.5530  -24.1893    3.1457 H         1 UNK         0.0889 
     83 H83       -48.8598  -22.6340    3.6092 H         1 UNK         0.0889 
     84 H84       -50.5588  -22.7391    3.1407 H         1 UNK         0.0889 
     85 H85       -49.9583  -25.4948    4.9142 H         1 UNK         0.3028 
     86 H86       -51.4309  -24.6157    7.2088 H         1 UNK         0.0864 
     87 H87       -51.9718  -26.7403    6.2895 H         1 UNK         0.0720 
     88 H88       -51.2877  -27.0489    7.8560 H         1 UNK         0.0720 
     89 H89       -50.2772  -30.0679    5.3112 H         1 UNK         0.0814 
     90 H90       -51.6039  -28.9982    4.9276 H         1 UNK         0.0814 
     91 H91       -49.8577  -30.5711    7.8671 H         1 UNK         0.1469 
     92 H92       -53.4407  -30.8521   10.1971 H         1 UNK         0.1381 
     93 H93       -53.5401  -29.0017    6.3308 H         1 UNK         0.1206 
     94 H94       -55.6240  -30.4104    9.0153 H         1 UNK         0.0813 
     95 H95       -55.6251  -29.6338    7.4570 H         1 UNK         0.0813 
     96 H96       -54.6695  -27.6507   11.4292 H         1 UNK         0.0638 
     97 H97       -54.7901  -29.3539   11.1216 H         1 UNK         0.0638 
     98 H98       -57.1939  -27.5037   11.5040 H         1 UNK         0.0568 
     99 H99       -58.2397  -31.4782   11.5937 H         1 UNK         0.3450 
    100 H100      -57.0478  -30.8753   12.7187 H         1 UNK         0.3450 
    101 H101      -55.5741  -28.8899   13.4916 H         1 UNK         0.2987 
    102 H102      -57.4860  -27.6956   16.1783 H         1 UNK         0.0766 
    103 H103      -57.2311  -29.9769   17.1150 H         1 UNK         0.0798 
    104 H104      -56.9122  -30.6318   15.5098 H         1 UNK         0.0798 
    105 H105      -58.4876  -29.9537   15.8888 H         1 UNK         0.0798 
    106 H106      -55.3341  -27.4640   16.5532 H         1 UNK         0.3198 
    107 H107      -53.1088  -28.5693   17.1116 H         1 UNK         0.0843 
    108 H108      -51.8138  -29.1079   14.3851 H         1 UNK         0.0831 
    109 H109      -52.0066  -30.2784   15.6824 H         1 UNK         0.0831 
    110 H110      -50.9506  -28.8930   15.9073 H         1 UNK         0.0831 
    111 H111      -52.2003  -26.7711   15.0140 H         1 UNK         0.3133 
    112 H112      -53.2787  -24.3922   15.0071 H         1 UNK         0.0566 
    113 H113      -53.1282  -22.4525   16.5798 H         1 UNK         0.0814 
    114 H114      -54.5709  -23.4117   16.8680 H         1 UNK         0.0814 
    115 H115      -53.1997  -23.5529   17.9561 H         1 UNK         0.0814 
    116 H116      -51.0755  -24.3814   15.0160 H         1 UNK         0.3091 
    117 H117      -48.5242  -24.1490   17.2920 H         1 UNK         0.0702 
    118 H118      -47.4912  -26.2125   16.3318 H         1 UNK         0.0785 
    119 H119      -49.0784  -26.7910   15.8291 H         1 UNK         0.0785 
    120 H120      -48.6982  -26.6283   17.5392 H         1 UNK         0.0785 
    121 H121      -48.5954  -24.8059   14.4809 H         1 UNK         0.2998 
    122 H122      -49.0361  -21.4249   13.3437 H         1 UNK         0.0697 
    123 H123      -46.7794  -23.4933   13.1378 H         1 UNK         0.0825 
    124 H124      -46.6083  -21.8087   13.5953 H         1 UNK         0.0825 
    125 H125      -47.1052  -22.2177   11.9627 H         1 UNK         0.0825 
    126 H126      -49.0184  -24.0085   12.0521 H         1 UNK         0.3029 
    127 H127      -52.4912  -24.5578   12.0887 H         1 UNK         0.0897 
    128 H128      -50.9445  -23.2592    9.7954 H         1 UNK         0.0792 
    129 H129      -52.5518  -22.8569   10.3605 H         1 UNK         0.0792 
    130 H130      -52.2795  -24.4021    9.5748 H         1 UNK         0.0792 
    131 H131      -50.2435  -25.6706   10.6015 H         1 UNK         0.3086 
    132 H132      -49.6159  -28.1797   13.1104 H         1 UNK         0.0583 
    133 H133      -51.4705  -29.0030   11.6674 H         1 UNK         0.1020 
    134 H134      -50.7323  -28.2714   10.2603 H         1 UNK         0.1020 
    135 H135      -50.2736  -32.2904    9.9584 H         1 UNK         0.0694 
    136 H136      -51.4360  -31.6869   11.1156 H         1 UNK         0.0694 
    137 H137      -48.2124  -27.6986   10.7397 H         1 UNK         0.2989 
    138 H138      -46.1487  -25.2206   11.4762 H         1 UNK         0.1055 
    139 H139      -45.0792  -26.1525   13.4768 H         1 UNK         0.0806 
    140 H140      -44.0783  -26.4912   12.0751 H         1 UNK         0.0806 
    141 H141      -45.0675  -27.7669   12.7891 H         1 UNK         0.0806 
    142 H142      -46.0458  -26.1847    9.5281 H         1 UNK         0.3061 
    143 H143      -45.1029  -29.0188    8.1434 H         1 UNK         0.0734 
    144 H144      -47.2712  -29.5616    6.9817 H         1 UNK         0.0832 
    145 H145      -47.1796  -30.2919    8.5763 H         1 UNK         0.0832 
    146 H146      -48.1580  -28.8535    8.3340 H         1 UNK         0.0832 
    147 H147      -46.9954  -26.8522    7.4234 H         1 UNK         0.3156 
    148 H148      -44.3846  -24.6080    6.5268 H         1 UNK         0.0589 
    149 H149      -46.4689  -26.0121    4.7614 H         1 UNK         0.0808 
    150 H150      -45.6707  -24.4781    4.4074 H         1 UNK         0.0808 
    151 H151      -44.7392  -25.9646    4.4512 H         1 UNK         0.0808 
    152 H152      -47.1996  -24.3162    6.4355 H         1 UNK         0.3098 
    153 H153      -47.9224  -23.6643    9.7835 H         1 UNK         0.0720 
    154 H154      -48.5057  -21.3401    9.1461 H         1 UNK         0.0791 
    155 H155      -47.4560  -21.4330    7.7317 H         1 UNK         0.0791 
    156 H156      -46.7683  -21.4912    9.3496 H         1 UNK         0.0791 
    157 H157      -49.2420  -23.0758    7.2567 H         1 UNK         0.3028 
@<TRIPOS>BOND
     1    1    2 1    
     2    1   82 1    
     3    1   83 1    
     4    1   84 1    
     5    2    3 2    
     6    2    4 am   BACKBONE|DICT|INTERRES
     7    4    5 1    
     8    4   85 1    
     9    5    6 1    
    10    5   80 1    
    11    5   86 1    
    12    6    7 1    
    13    6   87 1    
    14    6   88 1    
    15    7    8 1    
    16    8    9 1    
    17    8   89 1    
    18    8   90 1    
    19    9   10 ar   
    20    9   14 ar   
    21   10   11 ar   
    22   10   91 1    
    23   11   12 ar   
    24   11   58 1    
    25   12   13 ar   
    26   12   92 1    
    27   13   14 ar   
    28   13   15 1    
    29   14   93 1    
    30   15   16 1    
    31   15   94 1    
    32   15   95 1    
    33   16   17 1    
    34   17   18 1    
    35   17   96 1    
    36   17   97 1    
    37   18   19 1    
    38   18   22 1    
    39   18   98 1    
    40   19   20 am   BACKBONE|DICT|INTERRES
    41   19   21 2    
    42   20   99 1    
    43   20  100 1    
    44   22   23 am   BACKBONE|DICT|INTERRES
    45   22  101 1    
    46   23   24 2    
    47   23   25 1    
    48   25   26 1    
    49   25   27 1    
    50   25  102 1    
    51   26  103 1    
    52   26  104 1    
    53   26  105 1    
    54   27   28 am   BACKBONE|DICT|INTERRES
    55   27  106 1    
    56   28   29 2    
    57   28   30 1    
    58   30   31 1    
    59   30   32 1    
    60   30  107 1    
    61   31  108 1    
    62   31  109 1    
    63   31  110 1    
    64   32   33 am   BACKBONE|DICT|INTERRES
    65   32  111 1    
    66   33   34 2    
    67   33   35 1    
    68   35   36 1    
    69   35   37 1    
    70   35  112 1    
    71   36  113 1    
    72   36  114 1    
    73   36  115 1    
    74   37   38 am   BACKBONE|DICT|INTERRES
    75   37  116 1    
    76   38   39 2    
    77   38   40 1    
    78   40   41 1    
    79   40   42 1    
    80   40  117 1    
    81   41  118 1    
    82   41  119 1    
    83   41  120 1    
    84   42   43 am   BACKBONE|DICT|INTERRES
    85   42  121 1    
    86   43   44 2    
    87   43   45 1    
    88   45   46 1    
    89   45   47 1    
    90   45  122 1    
    91   46  123 1    
    92   46  124 1    
    93   46  125 1    
    94   47   48 am   BACKBONE|DICT|INTERRES
    95   47  126 1    
    96   48   49 2    
    97   48   50 1    
    98   50   51 1    
    99   50   52 1    
   100   50  127 1    
   101   51  128 1    
   102   51  129 1    
   103   51  130 1    
   104   52   53 am   BACKBONE|DICT|INTERRES
   105   52  131 1    
   106   53   54 2    
   107   53   55 1    
   108   55   56 1    
   109   55   59 1    
   110   55  132 1    
   111   56   57 1    
   112   56  133 1    
   113   56  134 1    
   114   57   58 1    
   115   58  135 1    
   116   58  136 1    
   117   59   60 am   BACKBONE|DICT|INTERRES
   118   59  137 1    
   119   60   61 2    
   120   60   62 1    
   121   62   63 1    
   122   62   64 1    
   123   62  138 1    
   124   63  139 1    
   125   63  140 1    
   126   63  141 1    
   127   64   65 am   BACKBONE|DICT|INTERRES
   128   64  142 1    
   129   65   66 2    
   130   65   67 1    
   131   67   68 1    
   132   67   69 1    
   133   67  143 1    
   134   68  144 1    
   135   68  145 1    
   136   68  146 1    
   137   69   70 am   BACKBONE|DICT|INTERRES
   138   69  147 1    
   139   70   71 2    
   140   70   72 1    
   141   72   73 1    
   142   72   74 1    
   143   72  148 1    
   144   73  149 1    
   145   73  150 1    
   146   73  151 1    
   147   74   75 am   BACKBONE|DICT|INTERRES
   148   74  152 1    
   149   75   76 2    
   150   75   77 1    
   151   77   78 1    
   152   77   79 1    
   153   77  153 1    
   154   78  154 1    
   155   78  155 1    
   156   78  156 1    
   157   79   80 am   BACKBONE|DICT|INTERRES
   158   79  157 1    
   159   80   81 2    
@<TRIPOS>SUBSTRUCTURE
     1 UNK         1 GROUP             0       ****    0 ROOT    
