@<TRIPOS>MOLECULE
3R207
157   159    1
SMALL
USER_CHARGES


@<TRIPOS>ATOM
      1 CA        -45.6186  -31.8831    3.3907 C.3       0 UNK        -0.1975 
      2 C         -46.4072  -30.6194    3.0807 C.2       0 UNK         0.4852 
      3 O         -46.1167  -29.9439    2.0927 O.2       0 UNK        -0.5216 
      4 N         -47.4030  -30.2966    3.9167 N.am      1 UNK        -0.4461 
      5 CA        -48.2544  -29.1052    3.7996 C.3       1 UNK         0.0864 
      6 C6        -49.5426  -29.2274    4.6519 C.3       14 UNK        -0.0898 
      7 S7        -49.2421  -29.6677    6.4011 S.3       14 UNK        -0.2598 
      8 C8        -50.9351  -30.0406    6.9608 C.3       14 UNK         0.0286 
      9 C9        -51.5183  -28.9352    7.8318 C.ar      14 UNK        -0.0844 
     10 C10       -51.7375  -27.6548    7.3143 C.ar      14 UNK        -0.0881 
     11 C11       -52.3027  -26.6501    8.1066 C.ar      14 UNK        -0.0643 
     12 C12       -52.6738  -26.9421    9.4237 C.ar      14 UNK        -0.0930 
     13 C13       -52.4584  -28.2178    9.9533 C.ar      14 UNK        -0.0827 
     14 C14       -51.8748  -29.2059    9.1557 C.ar      14 UNK        -0.1249 
     15 C15       -52.8745  -28.5488   11.3775 C.3       14 UNK         0.0141 
     16 S16       -54.5054  -29.3530   11.3845 S.3       14 UNK        -0.2313 
     17 C17       -54.5299  -30.1247   13.0343 C.3       14 UNK        -0.0915 
     18 CA        -55.8956  -29.9324   13.7388 C.3       13 UNK         0.0968 
     19 C         -56.0008  -30.8351   14.9974 C.2       13 UNK         0.5732 
     20 N         -56.5009  -32.0533   14.8466 N.am      13 UNK        -0.7310 
     21 O         -55.5981  -30.4577   16.0976 O.2       13 UNK        -0.5035 
     22 N         -56.1168  -28.5294   14.0969 N.am      13 UNK        -0.4233 
     23 C         -57.3164  -27.9697   14.2796 C.2       13 UNK         0.4989 
     24 O         -58.3834  -28.4823   13.9347 O.2       13 UNK        -0.4996 
     25 CA        -57.2949  -26.6379   15.0499 C.3       12 UNK         0.0216 
     26 CB        -58.6708  -25.9412   15.1283 C.3       12 UNK        -0.1964 
     27 N         -56.7090  -26.8511   16.3808 N.am      12 UNK        -0.4276 
     28 C         -57.1824  -27.6335   17.3658 C.2       12 UNK         0.5020 
     29 O         -58.3053  -28.1412   17.3686 O.2       12 UNK        -0.5489 
     30 CA        -56.2103  -27.9296   18.5215 C.3       11 UNK         0.0294 
     31 CB        -56.6720  -29.1090   19.3986 C.3       11 UNK        -0.2019 
     32 N         -54.8840  -28.2367   17.9809 N.am      11 UNK        -0.4493 
     33 C         -53.8065  -27.4528   18.1053 C.2       11 UNK         0.4932 
     34 O         -53.8040  -26.3978   18.7410 O.2       11 UNK        -0.5029 
     35 CA        -52.5120  -27.8779   17.3860 C.3       10 UNK         0.0280 
     36 CB        -52.5319  -29.3002   16.7849 C.3       10 UNK        -0.1976 
     37 N         -52.1374  -26.8844   16.3762 N.am      10 UNK        -0.4242 
     38 C         -52.8470  -26.4998   15.3069 C.2       10 UNK         0.5072 
     39 O         -53.9169  -27.0157   14.9793 O.2       10 UNK        -0.5224 
     40 CA        -52.3063  -25.3347   14.4552 C.3       9 UNK         0.0343 
     41 CB        -53.0234  -24.0238   14.8295 C.3       9 UNK        -0.2003 
     42 N         -50.8464  -25.1483   14.4448 N.am      9 UNK        -0.4272 
     43 C         -50.0230  -24.8169   15.4515 C.2       9 UNK         0.4988 
     44 O         -50.3752  -24.7091   16.6263 O.2       9 UNK        -0.5108 
     45 CA        -48.5503  -24.5707   15.0875 C.3       8 UNK         0.0248 
     46 CB        -47.8078  -25.9032   14.8963 C.3       8 UNK        -0.2001 
     47 N         -48.3996  -23.7345   13.8938 N.am      8 UNK        -0.4140 
     48 C         -48.7627  -22.4441   13.8208 C.2       8 UNK         0.5028 
     49 O         -49.1875  -21.7944   14.7773 O.2       8 UNK        -0.5428 
     50 CA        -48.6464  -21.7597   12.4483 C.3       7 UNK         0.0264 
     51 CB        -47.2045  -21.2950   12.1894 C.3       7 UNK        -0.1988 
     52 N         -49.0929  -22.6170   11.3492 N.am      7 UNK        -0.4454 
     53 C         -50.3560  -23.0283   11.1610 C.2       7 UNK         0.5027 
     54 O         -51.3062  -22.6659   11.8544 O.2       7 UNK        -0.5083 
     55 CA        -50.5962  -24.0326   10.0172 C.3       6 UNK         0.0844 
     56 C56       -50.8271  -23.2954    8.6748 C.3       14 UNK        -0.0967 
     57 S57       -50.9618  -24.3894    7.2186 S.3       14 UNK        -0.2604 
     58 C58       -52.5327  -25.2643    7.5175 C.3       14 UNK         0.0134 
     59 N         -49.5314  -25.0343    9.9478 N.am      6 UNK        -0.4116 
     60 C         -49.2980  -25.9705   10.8771 C.2       5 UNK         0.5034 
     61 O         -49.9725  -26.1162   11.8968 O.2       5 UNK        -0.5045 
     62 CA        -48.0623  -26.8548   10.6557 C.3       5 UNK         0.0224 
     63 CB        -48.3887  -28.0160    9.7051 C.3       5 UNK        -0.1978 
     64 N         -46.9297  -26.0837   10.1343 N.am      5 UNK        -0.4737 
     65 C         -46.2586  -25.1723   10.8560 C.2       4 UNK         0.5027 
     66 O         -46.4980  -24.9344   12.0388 O.2       4 UNK        -0.5211 
     67 CA        -45.1732  -24.3515   10.1365 C.3       4 UNK         0.0297 
     68 CB        -43.8208  -25.0779   10.2020 C.3       4 UNK        -0.1993 
     69 N         -45.5005  -24.0561    8.7409 N.am      4 UNK        -0.4486 
     70 C         -46.5806  -23.3781    8.3271 C.2       3 UNK         0.4961 
     71 O         -47.3791  -22.8376    9.0909 O.2       3 UNK        -0.5105 
     72 CA        -46.8460  -23.3325    6.8113 C.3       3 UNK         0.0299 
     73 CB        -46.4019  -21.9806    6.2316 C.3       3 UNK        -0.1972 
     74 N         -46.2154  -24.4205    6.0520 N.am      3 UNK        -0.4305 
     75 C         -46.4575  -25.7273    6.2290 C.2       2 UNK         0.5006 
     76 O         -47.2076  -26.1772    7.0979 O.2       2 UNK        -0.5106 
     77 CA        -45.6598  -26.6928    5.3393 C.3       2 UNK         0.0296 
     78 CB        -44.4123  -27.1953    6.0849 C.3       2 UNK        -0.2002 
     79 N         -46.4668  -27.8412    4.9306 N.am      2 UNK        -0.4032 
     80 C         -47.5055  -27.7849    4.0845 C.2       1 UNK         0.5000 
     81 O         -47.8677  -26.7530    3.5145 O.2       1 UNK        -0.5238 
     82 H82       -45.6906  -32.5835    2.5590 H         1 UNK         0.0889 
     83 H83       -45.9849  -32.3830    4.2873 H         1 UNK         0.0889 
     84 H84       -44.5670  -31.6411    3.5429 H         1 UNK         0.0889 
     85 H85       -47.6031  -30.8882    4.7117 H         1 UNK         0.3028 
     86 H86       -48.5704  -29.0453    2.7555 H         1 UNK         0.0864 
     87 H87       -50.1763  -30.0005    4.2145 H         1 UNK         0.0720 
     88 H88       -50.1268  -28.3069    4.6054 H         1 UNK         0.0720 
     89 H89       -51.5944  -30.2115    6.1090 H         1 UNK         0.0814 
     90 H90       -50.9077  -30.9828    7.5101 H         1 UNK         0.0814 
     91 H91       -51.4641  -27.4336    6.2927 H         1 UNK         0.1469 
     92 H92       -53.1374  -26.1823   10.0369 H         1 UNK         0.1381 
     93 H93       -51.7191  -30.1950    9.5645 H         1 UNK         0.1206 
     94 H94       -52.1324  -29.2093   11.8289 H         1 UNK         0.0813 
     95 H95       -52.9061  -27.6494   11.9944 H         1 UNK         0.0813 
     96 H96       -53.7221  -29.7197   13.6460 H         1 UNK         0.0638 
     97 H97       -54.3101  -31.1852   12.8969 H         1 UNK         0.0638 
     98 H98       -56.6805  -30.2402   13.0448 H         1 UNK         0.0568 
     99 H99       -56.8222  -32.3801   13.9487 H         1 UNK         0.3450 
    100 H100      -56.5619  -32.6569   15.6513 H         1 UNK         0.3450 
    101 H101      -55.2946  -28.0275   14.4287 H         1 UNK         0.2987 
    102 H102      -56.6181  -25.9717   14.5120 H         1 UNK         0.0766 
    103 H103      -59.0394  -25.7034   14.1299 H         1 UNK         0.0798 
    104 H104      -58.6094  -25.0055   15.6837 H         1 UNK         0.0798 
    105 H105      -59.4242  -26.5666   15.6077 H         1 UNK         0.0798 
    106 H106      -55.7527  -26.5342   16.4760 H         1 UNK         0.3198 
    107 H107      -56.1825  -27.0357   19.1481 H         1 UNK         0.0843 
    108 H108      -57.6417  -28.9039   19.8541 H         1 UNK         0.0831 
    109 H109      -55.9684  -29.2989   20.2092 H         1 UNK         0.0831 
    110 H110      -56.7699  -30.0269   18.8170 H         1 UNK         0.0831 
    111 H111      -54.8393  -29.0547   17.3783 H         1 UNK         0.3133 
    112 H112      -51.7272  -27.8566   18.1434 H         1 UNK         0.0566 
    113 H113      -51.5475  -29.5742   16.4056 H         1 UNK         0.0814 
    114 H114      -52.8038  -30.0454   17.5336 H         1 UNK         0.0814 
    115 H115      -53.2328  -29.3885   15.9572 H         1 UNK         0.0814 
    116 H116      -51.3403  -26.2975   16.6094 H         1 UNK         0.3091 
    117 H117      -52.5695  -25.5670   13.4222 H         1 UNK         0.0702 
    118 H118      -52.8202  -23.7291   15.8595 H         1 UNK         0.0785 
    119 H119      -54.1046  -24.1276   14.7285 H         1 UNK         0.0785 
    120 H120      -52.7147  -23.2048   14.1799 H         1 UNK         0.0785 
    121 H121      -50.4216  -25.3076   13.5333 H         1 UNK         0.2998 
    122 H122      -48.0859  -24.0430   15.9232 H         1 UNK         0.0697 
    123 H123      -48.1987  -26.4680   14.0496 H         1 UNK         0.0825 
    124 H124      -47.9012  -26.5337   15.7815 H         1 UNK         0.0825 
    125 H125      -46.7434  -25.7413   14.7253 H         1 UNK         0.0825 
    126 H126      -47.9721  -24.1712   13.0817 H         1 UNK         0.3029 
    127 H127      -49.2904  -20.8776   12.4625 H         1 UNK         0.0897 
    128 H128      -47.1199  -20.7743   11.2352 H         1 UNK         0.0792 
    129 H129      -46.8722  -20.6059   12.9669 H         1 UNK         0.0792 
    130 H130      -46.5067  -22.1322   12.1766 H         1 UNK         0.0792 
    131 H131      -48.3899  -22.8903   10.6654 H         1 UNK         0.3086 
    132 H132      -51.5160  -24.5616   10.2650 H         1 UNK         0.0583 
    133 H133      -51.7280  -22.6813    8.7314 H         1 UNK         0.1020 
    134 H134      -50.0085  -22.6009    8.4763 H         1 UNK         0.1020 
    135 H135      -53.1812  -24.6655    8.1588 H         1 UNK         0.0694 
    136 H136      -53.0586  -25.3686    6.5675 H         1 UNK         0.0694 
    137 H137      -48.9270  -24.9913    9.1399 H         1 UNK         0.2989 
    138 H138      -47.7741  -27.2749   11.6219 H         1 UNK         0.1055 
    139 H139      -49.1715  -28.6496   10.1232 H         1 UNK         0.0806 
    140 H140      -47.5187  -28.6482    9.5286 H         1 UNK         0.0806 
    141 H141      -48.7465  -27.6602    8.7378 H         1 UNK         0.0806 
    142 H142      -46.7291  -26.1818    9.1443 H         1 UNK         0.3061 
    143 H143      -45.0763  -23.3989   10.6606 H         1 UNK         0.0734 
    144 H144      -43.5445  -25.2918   11.2356 H         1 UNK         0.0832 
    145 H145      -43.8452  -26.0290    9.6683 H         1 UNK         0.0832 
    146 H146      -43.0219  -24.4716    9.7747 H         1 UNK         0.0832 
    147 H147      -44.8981  -24.4560    8.0374 H         1 UNK         0.3156 
    148 H148      -47.9255  -23.4240    6.6738 H         1 UNK         0.0589 
    149 H149      -45.3232  -21.8402    6.3126 H         1 UNK         0.0808 
    150 H150      -46.6767  -21.8885    5.1807 H         1 UNK         0.0808 
    151 H151      -46.8783  -21.1541    6.7613 H         1 UNK         0.0808 
    152 H152      -45.5687  -24.1437    5.3266 H         1 UNK         0.3098 
    153 H153      -45.3406  -26.1666    4.4371 H         1 UNK         0.0720 
    154 H154      -43.8201  -27.8652    5.4609 H         1 UNK         0.0791 
    155 H155      -44.6761  -27.7322    6.9974 H         1 UNK         0.0791 
    156 H156      -43.7643  -26.3656    6.3705 H         1 UNK         0.0791 
    157 H157      -46.2719  -28.7219    5.3825 H         1 UNK         0.3028 
@<TRIPOS>BOND
     1    1    2 1    
     2    1   82 1    
     3    1   83 1    
     4    1   84 1    
     5    2    3 2    
     6    2    4 am   BACKBONE|DICT|INTERRES
     7    4    5 1    
     8    4   85 1    
     9    5    6 1    
    10    5   80 1    
    11    5   86 1    
    12    6    7 1    
    13    6   87 1    
    14    6   88 1    
    15    7    8 1    
    16    8    9 1    
    17    8   89 1    
    18    8   90 1    
    19    9   10 ar   
    20    9   14 ar   
    21   10   11 ar   
    22   10   91 1    
    23   11   12 ar   
    24   11   58 1    
    25   12   13 ar   
    26   12   92 1    
    27   13   14 ar   
    28   13   15 1    
    29   14   93 1    
    30   15   16 1    
    31   15   94 1    
    32   15   95 1    
    33   16   17 1    
    34   17   18 1    
    35   17   96 1    
    36   17   97 1    
    37   18   19 1    
    38   18   22 1    
    39   18   98 1    
    40   19   20 am   BACKBONE|DICT|INTERRES
    41   19   21 2    
    42   20   99 1    
    43   20  100 1    
    44   22   23 am   BACKBONE|DICT|INTERRES
    45   22  101 1    
    46   23   24 2    
    47   23   25 1    
    48   25   26 1    
    49   25   27 1    
    50   25  102 1    
    51   26  103 1    
    52   26  104 1    
    53   26  105 1    
    54   27   28 am   BACKBONE|DICT|INTERRES
    55   27  106 1    
    56   28   29 2    
    57   28   30 1    
    58   30   31 1    
    59   30   32 1    
    60   30  107 1    
    61   31  108 1    
    62   31  109 1    
    63   31  110 1    
    64   32   33 am   BACKBONE|DICT|INTERRES
    65   32  111 1    
    66   33   34 2    
    67   33   35 1    
    68   35   36 1    
    69   35   37 1    
    70   35  112 1    
    71   36  113 1    
    72   36  114 1    
    73   36  115 1    
    74   37   38 am   BACKBONE|DICT|INTERRES
    75   37  116 1    
    76   38   39 2    
    77   38   40 1    
    78   40   41 1    
    79   40   42 1    
    80   40  117 1    
    81   41  118 1    
    82   41  119 1    
    83   41  120 1    
    84   42   43 am   BACKBONE|DICT|INTERRES
    85   42  121 1    
    86   43   44 2    
    87   43   45 1    
    88   45   46 1    
    89   45   47 1    
    90   45  122 1    
    91   46  123 1    
    92   46  124 1    
    93   46  125 1    
    94   47   48 am   BACKBONE|DICT|INTERRES
    95   47  126 1    
    96   48   49 2    
    97   48   50 1    
    98   50   51 1    
    99   50   52 1    
   100   50  127 1    
   101   51  128 1    
   102   51  129 1    
   103   51  130 1    
   104   52   53 am   BACKBONE|DICT|INTERRES
   105   52  131 1    
   106   53   54 2    
   107   53   55 1    
   108   55   56 1    
   109   55   59 1    
   110   55  132 1    
   111   56   57 1    
   112   56  133 1    
   113   56  134 1    
   114   57   58 1    
   115   58  135 1    
   116   58  136 1    
   117   59   60 am   BACKBONE|DICT|INTERRES
   118   59  137 1    
   119   60   61 2    
   120   60   62 1    
   121   62   63 1    
   122   62   64 1    
   123   62  138 1    
   124   63  139 1    
   125   63  140 1    
   126   63  141 1    
   127   64   65 am   BACKBONE|DICT|INTERRES
   128   64  142 1    
   129   65   66 2    
   130   65   67 1    
   131   67   68 1    
   132   67   69 1    
   133   67  143 1    
   134   68  144 1    
   135   68  145 1    
   136   68  146 1    
   137   69   70 am   BACKBONE|DICT|INTERRES
   138   69  147 1    
   139   70   71 2    
   140   70   72 1    
   141   72   73 1    
   142   72   74 1    
   143   72  148 1    
   144   73  149 1    
   145   73  150 1    
   146   73  151 1    
   147   74   75 am   BACKBONE|DICT|INTERRES
   148   74  152 1    
   149   75   76 2    
   150   75   77 1    
   151   77   78 1    
   152   77   79 1    
   153   77  153 1    
   154   78  154 1    
   155   78  155 1    
   156   78  156 1    
   157   79   80 am   BACKBONE|DICT|INTERRES
   158   79  157 1    
   159   80   81 2    
@<TRIPOS>SUBSTRUCTURE
     1 UNK         1 GROUP             0       ****    0 ROOT    
