@<TRIPOS>MOLECULE
3R207
157   159    1
SMALL
USER_CHARGES


@<TRIPOS>ATOM
      1 CA        -49.7717  -27.8439    1.0860 C.3       0 UNK        -0.1975 
      2 C         -50.4065  -29.1881    1.4352 C.2       0 UNK         0.4852 
      3 O         -50.3153  -30.1219    0.6393 O.2       0 UNK        -0.5216 
      4 N         -51.0693  -29.3372    2.5905 N.am      1 UNK        -0.4461 
      5 CA        -51.1981  -28.3602    3.6782 C.3       1 UNK         0.0864 
      6 C6        -52.4091  -28.6893    4.5916 C.3       14 UNK        -0.0898 
      7 S7        -52.3746  -30.3624    5.3277 S.3       14 UNK        -0.2598 
      8 C8        -53.5599  -30.1821    6.6982 C.3       14 UNK         0.0286 
      9 C9        -52.9335  -29.5176    7.9166 C.ar      14 UNK        -0.0844 
     10 C10       -53.1086  -28.1498    8.1488 C.ar      14 UNK        -0.0881 
     11 C11       -52.5492  -27.5473    9.2787 C.ar      14 UNK        -0.0643 
     12 C12       -51.8189  -28.3214   10.1831 C.ar      14 UNK        -0.0930 
     13 C13       -51.6537  -29.6941    9.9752 C.ar      14 UNK        -0.0827 
     14 C14       -52.2013  -30.2824    8.8305 C.ar      14 UNK        -0.1249 
     15 C15       -50.8923  -30.5408   10.9893 C.3       14 UNK         0.0141 
     16 S16       -51.4876  -30.3014   12.7005 S.3       14 UNK        -0.2313 
     17 C17       -52.8872  -31.4709   12.8546 C.3       14 UNK        -0.0915 
     18 CA        -53.9802  -31.3935   11.7462 C.3       13 UNK         0.0968 
     19 C         -55.1038  -32.4592   11.9319 C.2       13 UNK         0.5732 
     20 N         -56.3380  -32.1973   11.5181 N.am      13 UNK        -0.7310 
     21 O         -54.8510  -33.5568   12.4240 O.2       13 UNK        -0.5035 
     22 N         -54.4567  -30.0221   11.4896 N.am      13 UNK        -0.4233 
     23 C         -55.1441  -29.2456   12.3345 C.2       13 UNK         0.4989 
     24 O         -55.5255  -29.5984   13.4534 O.2       13 UNK        -0.4996 
     25 CA        -55.5111  -27.8492   11.8035 C.3       12 UNK         0.0216 
     26 CB        -56.7693  -27.9169   10.9219 C.3       12 UNK        -0.1964 
     27 N         -55.7426  -26.9075   12.8994 N.am      12 UNK        -0.4276 
     28 C         -54.7675  -26.3242   13.6053 C.2       12 UNK         0.5020 
     29 O         -53.5683  -26.4056   13.3232 O.2       12 UNK        -0.5489 
     30 CA        -55.2064  -25.5288   14.8427 C.3       11 UNK         0.0294 
     31 CB        -55.7714  -26.4741   15.9249 C.3       11 UNK        -0.2019 
     32 N         -54.0399  -24.8184   15.3544 N.am      11 UNK        -0.4493 
     33 C         -54.0094  -23.8877   16.3153 C.2       11 UNK         0.4932 
     34 O         -55.0182  -23.4261   16.8518 O.2       11 UNK        -0.5029 
     35 CA        -52.6104  -23.4012   16.7496 C.3       10 UNK         0.0280 
     36 CB        -52.5934  -22.7726   18.1591 C.3       10 UNK        -0.1976 
     37 N         -51.5893  -24.4491   16.6179 N.am      10 UNK        -0.4242 
     38 C         -51.5374  -25.6242   17.2657 C.2       10 UNK         0.5072 
     39 O         -52.2976  -25.9473   18.1795 O.2       10 UNK        -0.5224 
     40 CA        -50.4792  -26.6339   16.7914 C.3       9 UNK         0.0343 
     41 CB        -51.0813  -27.5699   15.7298 C.3       9 UNK        -0.2003 
     42 N         -49.2697  -26.0035   16.2557 N.am      9 UNK        -0.4272 
     43 C         -48.3388  -25.4020   17.0106 C.2       9 UNK         0.4988 
     44 O         -48.3981  -25.3239   18.2385 O.2       9 UNK        -0.5108 
     45 CA        -47.1330  -24.7886   16.2787 C.3       8 UNK         0.0248 
     46 CB        -46.1469  -25.8836   15.8406 C.3       8 UNK        -0.2001 
     47 N         -47.5167  -23.9741   15.1238 N.am      8 UNK        -0.4140 
     48 C         -48.1907  -22.8170   15.1996 C.2       8 UNK         0.5028 
     49 O         -48.5311  -22.2871   16.2577 O.2       8 UNK        -0.5428 
     50 CA        -48.5688  -22.1412   13.8702 C.3       7 UNK         0.0264 
     51 CB        -47.3877  -21.3344   13.3071 C.3       7 UNK        -0.1988 
     52 N         -49.0394  -23.0899   12.8598 N.am      7 UNK        -0.4454 
     53 C         -50.1455  -23.8407   12.9747 C.2       7 UNK         0.5027 
     54 O         -50.9151  -23.7917   13.9332 O.2       7 UNK        -0.5083 
     55 CA        -50.4115  -24.8421   11.8384 C.3       6 UNK         0.0844 
     56 C56       -51.0357  -24.1074   10.6226 C.3       14 UNK        -0.0967 
     57 S57       -51.2157  -25.1560    9.1461 S.3       14 UNK        -0.2604 
     58 C58       -52.7370  -26.0632    9.5388 C.3       14 UNK         0.0134 
     59 N         -49.1977  -25.5984   11.5150 N.am      6 UNK        -0.4116 
     60 C         -48.5649  -26.4302   12.3569 C.2       5 UNK         0.5034 
     61 O         -48.9515  -26.6853   13.4956 O.2       5 UNK        -0.5045 
     62 CA        -47.2421  -27.0408   11.8691 C.3       5 UNK         0.0224 
     63 CB        -47.5017  -28.3286   11.0736 C.3       5 UNK        -0.1978 
     64 N         -46.4500  -26.1004   11.0712 N.am      5 UNK        -0.4737 
     65 C         -45.9080  -24.9766   11.5640 C.2       4 UNK         0.5027 
     66 O         -45.9868  -24.6405   12.7448 O.2       4 UNK        -0.5211 
     67 CA        -45.2125  -24.0460   10.5574 C.3       4 UNK         0.0297 
     68 CB        -43.7737  -24.5150   10.2899 C.3       4 UNK        -0.1993 
     69 N         -45.9411  -23.9234    9.2891 N.am      4 UNK        -0.4486 
     70 C         -47.1805  -23.4206    9.1758 C.2       3 UNK         0.4961 
     71 O         -47.8464  -23.0224   10.1321 O.2       3 UNK        -0.5105 
     72 CA        -47.7947  -23.4146    7.7725 C.3       3 UNK         0.0299 
     73 CB        -47.0599  -22.4506    6.8235 C.3       3 UNK        -0.1972 
     74 N         -47.8069  -24.7740    7.2305 N.am      3 UNK        -0.4305 
     75 C         -48.7570  -25.2656    6.4271 C.2       2 UNK         0.5006 
     76 O         -49.6766  -24.5924    5.9515 O.2       2 UNK        -0.5106 
     77 CA        -48.6715  -26.7671    6.1114 C.3       2 UNK         0.0296 
     78 CB        -48.7090  -27.6287    7.3924 C.3       2 UNK        -0.2002 
     79 N         -49.7904  -27.1185    5.2431 N.am      2 UNK        -0.4032 
     80 C         -49.8889  -28.2155    4.4862 C.2       1 UNK         0.5000 
     81 O         -49.0095  -29.0793    4.4134 O.2       1 UNK        -0.5238 
     82 H82       -49.3478  -27.8731    0.0823 H         1 UNK         0.0889 
     83 H83       -48.9649  -27.6015    1.7766 H         1 UNK         0.0889 
     84 H84       -50.5098  -27.0430    1.1059 H         1 UNK         0.0889 
     85 H85       -51.4522  -30.2461    2.8086 H         1 UNK         0.3028 
     86 H86       -51.4010  -27.3864    3.2290 H         1 UNK         0.0864 
     87 H87       -53.3306  -28.6030    4.0136 H         1 UNK         0.0720 
     88 H88       -52.4947  -27.9467    5.3854 H         1 UNK         0.0720 
     89 H89       -53.9249  -31.1723    6.9753 H         1 UNK         0.0814 
     90 H90       -54.4343  -29.6246    6.3586 H         1 UNK         0.0814 
     91 H91       -53.6804  -27.5530    7.4517 H         1 UNK         0.1469 
     92 H92       -51.3929  -27.8551   11.0615 H         1 UNK         0.1381 
     93 H93       -52.0708  -31.3415    8.6538 H         1 UNK         0.1206 
     94 H94       -50.9392  -31.6011   10.7367 H         1 UNK         0.0813 
     95 H95       -49.8398  -30.2640   10.9432 H         1 UNK         0.0813 
     96 H96       -52.4601  -32.4746   12.8894 H         1 UNK         0.0638 
     97 H97       -53.3405  -31.3064   13.8333 H         1 UNK         0.0638 
     98 H98       -53.5061  -31.7056   10.8177 H         1 UNK         0.0568 
     99 H99       -57.0542  -32.8970   11.6317 H         1 UNK         0.3450 
    100 H100      -56.5615  -31.3070   11.1051 H         1 UNK         0.3450 
    101 H101      -54.1803  -29.6404   10.5959 H         1 UNK         0.2987 
    102 H102      -54.6832  -27.4823   11.1966 H         1 UNK         0.0766 
    103 H103      -57.0309  -26.9340   10.5293 H         1 UNK         0.0798 
    104 H104      -57.6300  -28.2985   11.4730 H         1 UNK         0.0798 
    105 H105      -56.6134  -28.5726   10.0642 H         1 UNK         0.0798 
    106 H106      -56.6945  -26.8236   13.2255 H         1 UNK         0.3198 
    107 H107      -55.9633  -24.8010   14.5437 H         1 UNK         0.0843 
    108 H108      -56.1068  -25.9259   16.8051 H         1 UNK         0.0831 
    109 H109      -55.0234  -27.1988   16.2497 H         1 UNK         0.0831 
    110 H110      -56.6301  -27.0363   15.5568 H         1 UNK         0.0831 
    111 H111      -53.1746  -25.1041   14.9072 H         1 UNK         0.3133 
    112 H112      -52.3297  -22.6206   16.0414 H         1 UNK         0.0566 
    113 H113      -51.5902  -22.4471   18.4346 H         1 UNK         0.0814 
    114 H114      -53.2415  -21.8966   18.2031 H         1 UNK         0.0814 
    115 H115      -52.9418  -23.4709   18.9205 H         1 UNK         0.0814 
    116 H116      -50.9582  -24.3147   15.8331 H         1 UNK         0.3091 
    117 H117      -50.1942  -27.2413   17.6531 H         1 UNK         0.0702 
    118 H118      -50.3777  -28.3517   15.4432 H         1 UNK         0.0785 
    119 H119      -51.3591  -27.0276   14.8250 H         1 UNK         0.0785 
    120 H120      -51.9807  -28.0625   16.1017 H         1 UNK         0.0785 
    121 H121      -49.1272  -26.0773   15.2502 H         1 UNK         0.2998 
    122 H122      -46.6156  -24.1353   16.9845 H         1 UNK         0.0697 
    123 H123      -45.2525  -25.4539   15.3891 H         1 UNK         0.0825 
    124 H124      -45.8244  -26.4826   16.6933 H         1 UNK         0.0825 
    125 H125      -46.5936  -26.5630   15.1146 H         1 UNK         0.0825 
    126 H126      -47.2052  -24.2975   14.2113 H         1 UNK         0.3029 
    127 H127      -49.3872  -21.4478   14.0760 H         1 UNK         0.0897 
    128 H128      -47.6708  -20.7967   12.4020 H         1 UNK         0.0792 
    129 H129      -47.0410  -20.5947   14.0299 H         1 UNK         0.0792 
    130 H130      -46.5396  -21.9746   13.0625 H         1 UNK         0.0792 
    131 H131      -48.4835  -23.1721   12.0125 H         1 UNK         0.3086 
    132 H132      -51.1439  -25.5636   12.2066 H         1 UNK         0.0583 
    133 H133      -52.0130  -23.6987   10.8875 H         1 UNK         0.1020 
    134 H134      -50.4297  -23.2485   10.3302 H         1 UNK         0.1020 
    135 H135      -53.0097  -25.9134   10.5840 H         1 UNK         0.0694 
    136 H136      -53.5589  -25.6609    8.9449 H         1 UNK         0.0694 
    137 H137      -48.7958  -25.4224   10.6072 H         1 UNK         0.2989 
    138 H138      -46.6529  -27.3019   12.7510 H         1 UNK         0.1055 
    139 H139      -47.9388  -29.0892   11.7214 H         1 UNK         0.0806 
    140 H140      -46.5798  -28.7450   10.6675 H         1 UNK         0.0806 
    141 H141      -48.1971  -28.1686   10.2498 H         1 UNK         0.0806 
    142 H142      -46.3180  -26.3141   10.0946 H         1 UNK         0.3061 
    143 H143      -45.1671  -23.0526   11.0094 H         1 UNK         0.0734 
    144 H144      -43.2375  -23.8099    9.6544 H         1 UNK         0.0832 
    145 H145      -43.2125  -24.5976   11.2220 H         1 UNK         0.0832 
    146 H146      -43.7464  -25.4924    9.8067 H         1 UNK         0.0832 
    147 H147      -45.4389  -24.1845    8.4530 H         1 UNK         0.3156 
    148 H148      -48.8242  -23.0655    7.8832 H         1 UNK         0.0589 
    149 H149      -46.0385  -22.7733    6.6202 H         1 UNK         0.0808 
    150 H150      -47.5786  -22.3702    5.8680 H         1 UNK         0.0808 
    151 H151      -47.0096  -21.4471    7.2484 H         1 UNK         0.0808 
    152 H152      -47.0967  -25.4026    7.5751 H         1 UNK         0.3098 
    153 H153      -47.7374  -26.9452    5.5748 H         1 UNK         0.0720 
    154 H154      -47.8539  -27.4226    8.0348 H         1 UNK         0.0791 
    155 H155      -48.6777  -28.6934    7.1608 H         1 UNK         0.0791 
    156 H156      -49.6144  -27.4479    7.9733 H         1 UNK         0.0791 
    157 H157      -50.5130  -26.4082    5.2178 H         1 UNK         0.3028 
@<TRIPOS>BOND
     1    1    2 1    
     2    1   82 1    
     3    1   83 1    
     4    1   84 1    
     5    2    3 2    
     6    2    4 am   BACKBONE|DICT|INTERRES
     7    4    5 1    
     8    4   85 1    
     9    5    6 1    
    10    5   80 1    
    11    5   86 1    
    12    6    7 1    
    13    6   87 1    
    14    6   88 1    
    15    7    8 1    
    16    8    9 1    
    17    8   89 1    
    18    8   90 1    
    19    9   10 ar   
    20    9   14 ar   
    21   10   11 ar   
    22   10   91 1    
    23   11   12 ar   
    24   11   58 1    
    25   12   13 ar   
    26   12   92 1    
    27   13   14 ar   
    28   13   15 1    
    29   14   93 1    
    30   15   16 1    
    31   15   94 1    
    32   15   95 1    
    33   16   17 1    
    34   17   18 1    
    35   17   96 1    
    36   17   97 1    
    37   18   19 1    
    38   18   22 1    
    39   18   98 1    
    40   19   20 am   BACKBONE|DICT|INTERRES
    41   19   21 2    
    42   20   99 1    
    43   20  100 1    
    44   22   23 am   BACKBONE|DICT|INTERRES
    45   22  101 1    
    46   23   24 2    
    47   23   25 1    
    48   25   26 1    
    49   25   27 1    
    50   25  102 1    
    51   26  103 1    
    52   26  104 1    
    53   26  105 1    
    54   27   28 am   BACKBONE|DICT|INTERRES
    55   27  106 1    
    56   28   29 2    
    57   28   30 1    
    58   30   31 1    
    59   30   32 1    
    60   30  107 1    
    61   31  108 1    
    62   31  109 1    
    63   31  110 1    
    64   32   33 am   BACKBONE|DICT|INTERRES
    65   32  111 1    
    66   33   34 2    
    67   33   35 1    
    68   35   36 1    
    69   35   37 1    
    70   35  112 1    
    71   36  113 1    
    72   36  114 1    
    73   36  115 1    
    74   37   38 am   BACKBONE|DICT|INTERRES
    75   37  116 1    
    76   38   39 2    
    77   38   40 1    
    78   40   41 1    
    79   40   42 1    
    80   40  117 1    
    81   41  118 1    
    82   41  119 1    
    83   41  120 1    
    84   42   43 am   BACKBONE|DICT|INTERRES
    85   42  121 1    
    86   43   44 2    
    87   43   45 1    
    88   45   46 1    
    89   45   47 1    
    90   45  122 1    
    91   46  123 1    
    92   46  124 1    
    93   46  125 1    
    94   47   48 am   BACKBONE|DICT|INTERRES
    95   47  126 1    
    96   48   49 2    
    97   48   50 1    
    98   50   51 1    
    99   50   52 1    
   100   50  127 1    
   101   51  128 1    
   102   51  129 1    
   103   51  130 1    
   104   52   53 am   BACKBONE|DICT|INTERRES
   105   52  131 1    
   106   53   54 2    
   107   53   55 1    
   108   55   56 1    
   109   55   59 1    
   110   55  132 1    
   111   56   57 1    
   112   56  133 1    
   113   56  134 1    
   114   57   58 1    
   115   58  135 1    
   116   58  136 1    
   117   59   60 am   BACKBONE|DICT|INTERRES
   118   59  137 1    
   119   60   61 2    
   120   60   62 1    
   121   62   63 1    
   122   62   64 1    
   123   62  138 1    
   124   63  139 1    
   125   63  140 1    
   126   63  141 1    
   127   64   65 am   BACKBONE|DICT|INTERRES
   128   64  142 1    
   129   65   66 2    
   130   65   67 1    
   131   67   68 1    
   132   67   69 1    
   133   67  143 1    
   134   68  144 1    
   135   68  145 1    
   136   68  146 1    
   137   69   70 am   BACKBONE|DICT|INTERRES
   138   69  147 1    
   139   70   71 2    
   140   70   72 1    
   141   72   73 1    
   142   72   74 1    
   143   72  148 1    
   144   73  149 1    
   145   73  150 1    
   146   73  151 1    
   147   74   75 am   BACKBONE|DICT|INTERRES
   148   74  152 1    
   149   75   76 2    
   150   75   77 1    
   151   77   78 1    
   152   77   79 1    
   153   77  153 1    
   154   78  154 1    
   155   78  155 1    
   156   78  156 1    
   157   79   80 am   BACKBONE|DICT|INTERRES
   158   79  157 1    
   159   80   81 2    
@<TRIPOS>SUBSTRUCTURE
     1 UNK         1 GROUP             0       ****    0 ROOT    
