@<TRIPOS>MOLECULE
3R207
157   159    1
SMALL
USER_CHARGES


@<TRIPOS>ATOM
      1 CA        -47.8869  -32.3488    4.1629 C.3       0 UNK        -0.1975 
      2 C         -48.4517  -30.9845    3.7960 C.2       0 UNK         0.4852 
      3 O         -48.0549  -30.4121    2.7803 O.2       0 UNK        -0.5216 
      4 N         -49.3751  -30.4607    4.6148 N.am      1 UNK        -0.4461 
      5 CA        -50.0170  -29.1516    4.4302 C.3       1 UNK         0.0864 
      6 C6        -51.2907  -29.0313    5.3040 C.3       14 UNK        -0.0898 
      7 S7        -52.5374  -27.9042    4.5942 S.3       14 UNK        -0.2598 
      8 C8        -53.9567  -28.2027    5.6985 C.3       14 UNK         0.0286 
      9 C9        -53.6302  -27.8313    7.1369 C.ar      14 UNK        -0.0844 
     10 C10       -53.6125  -26.4912    7.5301 C.ar      14 UNK        -0.0881 
     11 C11       -53.2386  -26.1405    8.8298 C.ar      14 UNK        -0.0643 
     12 C12       -52.9100  -27.1431    9.7483 C.ar      14 UNK        -0.0930 
     13 C13       -52.9374  -28.4905    9.3713 C.ar      14 UNK        -0.0827 
     14 C14       -53.2989  -28.8251    8.0618 C.ar      14 UNK        -0.1249 
     15 C15       -52.4871  -29.5608   10.3609 C.3       14 UNK         0.0141 
     16 S16       -53.4548  -31.1079   10.3044 S.3       14 UNK        -0.2313 
     17 C17       -55.1375  -30.6278   10.8391 C.3       14 UNK        -0.0915 
     18 CA        -55.2479  -29.6530   12.0530 C.3       13 UNK         0.0968 
     19 C         -56.7185  -29.4050   12.5017 C.2       13 UNK         0.5732 
     20 N         -56.9402  -28.7823   13.6516 N.am      13 UNK        -0.7310 
     21 O         -57.6687  -29.7627   11.8083 O.2       13 UNK        -0.5035 
     22 N         -54.3493  -29.9891   13.1702 N.am      13 UNK        -0.4233 
     23 C         -54.3129  -31.1416   13.8520 C.2       13 UNK         0.4989 
     24 O         -55.0858  -32.0835   13.6734 O.2       13 UNK        -0.4996 
     25 CA        -53.1896  -31.2789   14.8949 C.3       12 UNK         0.0216 
     26 CB        -51.9206  -31.8449   14.2351 C.3       12 UNK        -0.1964 
     27 N         -52.8698  -30.0049   15.5454 N.am      12 UNK        -0.4276 
     28 C         -53.5728  -29.4875   16.5612 C.2       12 UNK         0.5020 
     29 O         -54.5096  -30.0655   17.1142 O.2       12 UNK        -0.5489 
     30 CA        -53.1778  -28.0753   17.0270 C.3       11 UNK         0.0294 
     31 CB        -52.0147  -28.1377   18.0298 C.3       11 UNK        -0.2019 
     32 N         -52.8371  -27.1473   15.9417 N.am      11 UNK        -0.4493 
     33 C         -53.6584  -26.7973   14.9372 C.2       11 UNK         0.4932 
     34 O         -54.7509  -27.3269   14.7353 O.2       11 UNK        -0.5029 
     35 CA        -53.1823  -25.6628   14.0079 C.3       10 UNK         0.0280 
     36 CB        -54.3307  -25.0182   13.2027 C.3       10 UNK        -0.1976 
     37 N         -52.4012  -24.6506   14.7305 N.am      10 UNK        -0.4242 
     38 C         -52.8190  -23.9039   15.7668 C.2       10 UNK         0.5072 
     39 O         -53.9935  -23.8548   16.1372 O.2       10 UNK        -0.5224 
     40 CA        -51.7695  -23.0879   16.5523 C.3       9 UNK         0.0343 
     41 CB        -51.9791  -23.2211   18.0757 C.3       9 UNK        -0.2003 
     42 N         -50.3642  -23.3559   16.2213 N.am      9 UNK        -0.4272 
     43 C         -49.6793  -24.5063   16.2973 C.2       9 UNK         0.4988 
     44 O         -50.1925  -25.5811   16.6175 O.2       9 UNK        -0.5108 
     45 CA        -48.1784  -24.4371   15.9275 C.3       8 UNK         0.0248 
     46 CB        -47.5524  -25.8328   15.7511 C.3       8 UNK        -0.2001 
     47 N         -47.9290  -23.6446   14.7160 N.am      8 UNK        -0.4140 
     48 C         -47.9515  -22.3054   14.6374 C.2       8 UNK         0.5028 
     49 O         -48.0873  -21.5714   15.6166 O.2       8 UNK        -0.5428 
     50 CA        -47.9254  -21.6816   13.2313 C.3       7 UNK         0.0264 
     51 CB        -46.4846  -21.5387   12.7175 C.3       7 UNK        -0.1988 
     52 N         -48.7289  -22.4392   12.2673 N.am      7 UNK        -0.4454 
     53 C         -50.0540  -22.6415   12.3567 C.2       7 UNK         0.5027 
     54 O         -50.7713  -22.1277   13.2155 O.2       7 UNK        -0.5083 
     55 CA        -50.6741  -23.6221   11.3430 C.3       6 UNK         0.0844 
     56 C56       -51.0753  -22.8890   10.0358 C.3       14 UNK        -0.0967 
     57 S57       -51.5291  -24.0088    8.6687 S.3       14 UNK        -0.2604 
     58 C58       -53.1303  -24.6757    9.2189 C.3       14 UNK         0.0134 
     59 N         -49.7997  -24.7761   11.1193 N.am      6 UNK        -0.4116 
     60 C         -49.5326  -25.7232   12.0280 C.2       5 UNK         0.5034 
     61 O         -50.0171  -25.7473   13.1578 O.2       5 UNK        -0.5045 
     62 CA        -48.5199  -26.8022   11.6187 C.3       5 UNK         0.0224 
     63 CB        -49.2077  -27.9148   10.8149 C.3       5 UNK        -0.1978 
     64 N         -47.4080  -26.2410   10.8485 N.am      5 UNK        -0.4737 
     65 C         -46.4753  -25.4353   11.3796 C.2       4 UNK         0.5027 
     66 O         -46.4279  -25.1492   12.5754 O.2       4 UNK        -0.5211 
     67 CA        -45.4551  -24.8024   10.4159 C.3       4 UNK         0.0297 
     68 CB        -44.2206  -25.7063   10.2746 C.3       4 UNK        -0.1993 
     69 N         -46.0069  -24.5216    9.0885 N.am      4 UNK        -0.4486 
     70 C         -47.0514  -23.7189    8.8371 C.2       3 UNK         0.4961 
     71 O         -47.6197  -23.0519    9.7011 O.2       3 UNK        -0.5105 
     72 CA        -47.5818  -23.6825    7.3920 C.3       3 UNK         0.0299 
     73 CB        -47.1140  -22.4016    6.6838 C.3       3 UNK        -0.1972 
     74 N         -47.2087  -24.8508    6.5837 N.am      3 UNK        -0.4305 
     75 C         -47.5876  -26.1129    6.8305 C.2       2 UNK         0.5006 
     76 O         -48.2744  -26.4512    7.7973 O.2       2 UNK        -0.5106 
     77 CA        -47.0261  -27.1864    5.8872 C.3       2 UNK         0.0296 
     78 CB        -45.8319  -27.8995    6.5438 C.3       2 UNK        -0.2002 
     79 N         -48.0436  -28.1769    5.5405 N.am      2 UNK        -0.4032 
     80 C         -49.0437  -27.9723    4.6701 C.2       1 UNK         0.5000 
     81 O         -49.1929  -26.9212    4.0429 O.2       1 UNK        -0.5238 
     82 H82       -46.8090  -32.2816    4.3081 H         1 UNK         0.0889 
     83 H83       -48.0790  -33.0618    3.3616 H         1 UNK         0.0889 
     84 H84       -48.3286  -32.7415    5.0786 H         1 UNK         0.0889 
     85 H85       -49.6691  -30.9859    5.4265 H         1 UNK         0.3028 
     86 H86       -50.3188  -29.1024    3.3812 H         1 UNK         0.0864 
     87 H87       -51.0431  -28.7143    6.3193 H         1 UNK         0.0720 
     88 H88       -51.7719  -30.0060    5.4024 H         1 UNK         0.0720 
     89 H89       -54.2590  -29.2488    5.6275 H         1 UNK         0.0814 
     90 H90       -54.8078  -27.6145    5.3524 H         1 UNK         0.0814 
     91 H91       -53.8438  -25.7174    6.8107 H         1 UNK         0.1469 
     92 H92       -52.5973  -26.8679   10.7460 H         1 UNK         0.1381 
     93 H93       -53.2903  -29.8601    7.7496 H         1 UNK         0.1206 
     94 H94       -52.4743  -29.1722   11.3785 H         1 UNK         0.0813 
     95 H95       -51.4538  -29.8152   10.1242 H         1 UNK         0.0813 
     96 H96       -55.6384  -30.1907    9.9736 H         1 UNK         0.0638 
     97 H97       -55.6742  -31.5532   11.0544 H         1 UNK         0.0638 
     98 H98       -54.9124  -28.6780   11.6992 H         1 UNK         0.0568 
     99 H99       -57.8870  -28.6159   13.9509 H         1 UNK         0.3450 
    100 H100      -56.1628  -28.3957   14.1815 H         1 UNK         0.3450 
    101 H101      -53.7309  -29.2502   13.4627 H         1 UNK         0.2987 
    102 H102      -53.5230  -31.9919   15.6524 H         1 UNK         0.0766 
    103 H103      -51.5319  -31.1803   13.4623 H         1 UNK         0.0798 
    104 H104      -52.1248  -32.8065   13.7619 H         1 UNK         0.0798 
    105 H105      -51.1304  -32.0078   14.9684 H         1 UNK         0.0798 
    106 H106      -52.0958  -29.4709   15.1773 H         1 UNK         0.3198 
    107 H107      -54.0442  -27.6553   17.5424 H         1 UNK         0.0843 
    108 H108      -51.8109  -27.1572   18.4609 H         1 UNK         0.0831 
    109 H109      -51.0955  -28.4927   17.5621 H         1 UNK         0.0831 
    110 H110      -52.2445  -28.8124   18.8558 H         1 UNK         0.0831 
    111 H111      -51.9572  -26.6488   16.0377 H         1 UNK         0.3133 
    112 H112      -52.5102  -26.1284   13.2890 H         1 UNK         0.0566 
    113 H113      -54.7832  -25.7410   12.5225 H         1 UNK         0.0814 
    114 H114      -55.1236  -24.6481   13.8534 H         1 UNK         0.0814 
    115 H115      -53.9766  -24.1813   12.6020 H         1 UNK         0.0814 
    116 H116      -51.4123  -24.6381   14.5085 H         1 UNK         0.3091 
    117 H117      -51.9426  -22.0456   16.2813 H         1 UNK         0.0702 
    118 H118      -51.2618  -22.6155   18.6298 H         1 UNK         0.0785 
    119 H119      -51.8729  -24.2547   18.4073 H         1 UNK         0.0785 
    120 H120      -52.9747  -22.8863   18.3695 H         1 UNK         0.0785 
    121 H121      -49.8311  -22.5412   15.9334 H         1 UNK         0.2998 
    122 H122      -47.6711  -23.9524   16.7640 H         1 UNK         0.0697 
    123 H123      -46.4908  -25.7653   15.5128 H         1 UNK         0.0825 
    124 H124      -47.6430  -26.4224   16.6642 H         1 UNK         0.0825 
    125 H125      -48.0389  -26.3923   14.9518 H         1 UNK         0.0825 
    126 H126      -47.7730  -24.1717   13.8633 H         1 UNK         0.3029 
    127 H127      -48.3611  -20.6828   13.3042 H         1 UNK         0.0897 
    128 H128      -46.4584  -21.0937   11.7225 H         1 UNK         0.0792 
    129 H129      -45.9002  -20.8960   13.3771 H         1 UNK         0.0792 
    130 H130      -45.9749  -22.5003   12.6687 H         1 UNK         0.0792 
    131 H131      -48.2371  -22.8343   11.4683 H         1 UNK         0.3086 
    132 H132      -51.5872  -24.0061   11.8004 H         1 UNK         0.0583 
    133 H133      -51.9045  -22.2041   10.2233 H         1 UNK         0.1020 
    134 H134      -50.2516  -22.2695    9.6749 H         1 UNK         0.1020 
    135 H135      -53.2452  -24.5677   10.2967 H         1 UNK         0.0694 
    136 H136      -53.9380  -24.1004    8.7641 H         1 UNK         0.0694 
    137 H137      -49.3514  -24.8260   10.2157 H         1 UNK         0.2989 
    138 H138      -48.1148  -27.2421   12.5330 H         1 UNK         0.1055 
    139 H139      -49.9822  -28.3918   11.4154 H         1 UNK         0.0806 
    140 H140      -49.6813  -27.5330    9.9089 H         1 UNK         0.0806 
    141 H141      -48.5006  -28.6911   10.5222 H         1 UNK         0.0806 
    142 H142      -47.4161  -26.3991    9.8472 H         1 UNK         0.3061 
    143 H143      -45.1368  -23.8518   10.8477 H         1 UNK         0.0734 
    144 H144      -43.4494  -25.2349    9.6652 H         1 UNK         0.0832 
    145 H145      -43.7774  -25.9138   11.2498 H         1 UNK         0.0832 
    146 H146      -44.4706  -26.6659    9.8202 H         1 UNK         0.0832 
    147 H147      -45.5972  -25.0176    8.3115 H         1 UNK         0.3156 
    148 H148      -48.6717  -23.6597    7.4515 H         1 UNK         0.0589 
    149 H149      -46.0294  -22.3740    6.5713 H         1 UNK         0.0808 
    150 H150      -47.5590  -22.3098    5.6928 H         1 UNK         0.0808 
    151 H151      -47.4052  -21.5152    7.2495 H         1 UNK         0.0808 
    152 H152      -46.6311  -24.6694    5.7747 H         1 UNK         0.3098 
    153 H153      -46.6806  -26.7117    4.9661 H         1 UNK         0.0720 
    154 H154      -45.0345  -27.1936    6.7797 H         1 UNK         0.0791 
    155 H155      -46.1164  -28.3928    7.4745 H         1 UNK         0.0791 
    156 H156      -45.4074  -28.6538    5.8808 H         1 UNK         0.0791 
    157 H157      -48.0088  -29.0567    6.0329 H         1 UNK         0.3028 
@<TRIPOS>BOND
     1    1    2 1    
     2    1   82 1    
     3    1   83 1    
     4    1   84 1    
     5    2    3 2    
     6    2    4 am   BACKBONE|DICT|INTERRES
     7    4    5 1    
     8    4   85 1    
     9    5    6 1    
    10    5   80 1    
    11    5   86 1    
    12    6    7 1    
    13    6   87 1    
    14    6   88 1    
    15    7    8 1    
    16    8    9 1    
    17    8   89 1    
    18    8   90 1    
    19    9   10 ar   
    20    9   14 ar   
    21   10   11 ar   
    22   10   91 1    
    23   11   12 ar   
    24   11   58 1    
    25   12   13 ar   
    26   12   92 1    
    27   13   14 ar   
    28   13   15 1    
    29   14   93 1    
    30   15   16 1    
    31   15   94 1    
    32   15   95 1    
    33   16   17 1    
    34   17   18 1    
    35   17   96 1    
    36   17   97 1    
    37   18   19 1    
    38   18   22 1    
    39   18   98 1    
    40   19   20 am   BACKBONE|DICT|INTERRES
    41   19   21 2    
    42   20   99 1    
    43   20  100 1    
    44   22   23 am   BACKBONE|DICT|INTERRES
    45   22  101 1    
    46   23   24 2    
    47   23   25 1    
    48   25   26 1    
    49   25   27 1    
    50   25  102 1    
    51   26  103 1    
    52   26  104 1    
    53   26  105 1    
    54   27   28 am   BACKBONE|DICT|INTERRES
    55   27  106 1    
    56   28   29 2    
    57   28   30 1    
    58   30   31 1    
    59   30   32 1    
    60   30  107 1    
    61   31  108 1    
    62   31  109 1    
    63   31  110 1    
    64   32   33 am   BACKBONE|DICT|INTERRES
    65   32  111 1    
    66   33   34 2    
    67   33   35 1    
    68   35   36 1    
    69   35   37 1    
    70   35  112 1    
    71   36  113 1    
    72   36  114 1    
    73   36  115 1    
    74   37   38 am   BACKBONE|DICT|INTERRES
    75   37  116 1    
    76   38   39 2    
    77   38   40 1    
    78   40   41 1    
    79   40   42 1    
    80   40  117 1    
    81   41  118 1    
    82   41  119 1    
    83   41  120 1    
    84   42   43 am   BACKBONE|DICT|INTERRES
    85   42  121 1    
    86   43   44 2    
    87   43   45 1    
    88   45   46 1    
    89   45   47 1    
    90   45  122 1    
    91   46  123 1    
    92   46  124 1    
    93   46  125 1    
    94   47   48 am   BACKBONE|DICT|INTERRES
    95   47  126 1    
    96   48   49 2    
    97   48   50 1    
    98   50   51 1    
    99   50   52 1    
   100   50  127 1    
   101   51  128 1    
   102   51  129 1    
   103   51  130 1    
   104   52   53 am   BACKBONE|DICT|INTERRES
   105   52  131 1    
   106   53   54 2    
   107   53   55 1    
   108   55   56 1    
   109   55   59 1    
   110   55  132 1    
   111   56   57 1    
   112   56  133 1    
   113   56  134 1    
   114   57   58 1    
   115   58  135 1    
   116   58  136 1    
   117   59   60 am   BACKBONE|DICT|INTERRES
   118   59  137 1    
   119   60   61 2    
   120   60   62 1    
   121   62   63 1    
   122   62   64 1    
   123   62  138 1    
   124   63  139 1    
   125   63  140 1    
   126   63  141 1    
   127   64   65 am   BACKBONE|DICT|INTERRES
   128   64  142 1    
   129   65   66 2    
   130   65   67 1    
   131   67   68 1    
   132   67   69 1    
   133   67  143 1    
   134   68  144 1    
   135   68  145 1    
   136   68  146 1    
   137   69   70 am   BACKBONE|DICT|INTERRES
   138   69  147 1    
   139   70   71 2    
   140   70   72 1    
   141   72   73 1    
   142   72   74 1    
   143   72  148 1    
   144   73  149 1    
   145   73  150 1    
   146   73  151 1    
   147   74   75 am   BACKBONE|DICT|INTERRES
   148   74  152 1    
   149   75   76 2    
   150   75   77 1    
   151   77   78 1    
   152   77   79 1    
   153   77  153 1    
   154   78  154 1    
   155   78  155 1    
   156   78  156 1    
   157   79   80 am   BACKBONE|DICT|INTERRES
   158   79  157 1    
   159   80   81 2    
@<TRIPOS>SUBSTRUCTURE
     1 UNK         1 GROUP             0       ****    0 ROOT    
