@<TRIPOS>MOLECULE
3R207
157   159    1
SMALL
USER_CHARGES


@<TRIPOS>ATOM
      1 CA        -47.6769  -29.9009    2.8107 C.3       0 UNK        -0.1975 
      2 C         -47.5897  -29.4187    4.2515 C.2       0 UNK         0.4852 
      3 O         -46.5832  -28.8212    4.6361 O.2       0 UNK        -0.5216 
      4 N         -48.6395  -29.6654    5.0464 N.am      1 UNK        -0.4461 
      5 CA        -48.7161  -29.3202    6.4699 C.3       1 UNK         0.0864 
      6 C6        -50.1633  -29.4372    7.0117 C.3       14 UNK        -0.0898 
      7 S7        -51.3240  -28.2999    6.1786 S.3       14 UNK        -0.2598 
      8 C8        -51.1744  -26.8149    7.2214 C.3       14 UNK         0.0286 
      9 C9        -52.5270  -26.2065    7.5632 C.ar      14 UNK        -0.0844 
     10 C10       -52.8467  -24.9097    7.1491 C.ar      14 UNK        -0.0881 
     11 C11       -54.0417  -24.3035    7.5576 C.ar      14 UNK        -0.0643 
     12 C12       -54.9428  -25.0349    8.3390 C.ar      14 UNK        -0.0930 
     13 C13       -54.6571  -26.3500    8.7207 C.ar      14 UNK        -0.0827 
     14 C14       -53.4408  -26.9235    8.3405 C.ar      14 UNK        -0.1249 
     15 C15       -55.6748  -27.1530    9.5214 C.3       14 UNK         0.0141 
     16 S16       -55.2391  -27.2496   11.2858 S.3       14 UNK        -0.2313 
     17 C17       -54.1469  -28.7135   11.3360 C.3       14 UNK        -0.0915 
     18 CA        -54.6015  -29.7744   12.3725 C.3       13 UNK         0.0968 
     19 C         -53.7341  -31.0662   12.2895 C.2       13 UNK         0.5732 
     20 N         -53.1377  -31.5560   13.3714 N.am      13 UNK        -0.7310 
     21 O         -53.6109  -31.6512   11.2160 O.2       13 UNK        -0.5035 
     22 N         -54.6929  -29.2140   13.7297 N.am      13 UNK        -0.4233 
     23 C         -55.5672  -29.6306   14.6549 C.2       13 UNK         0.4989 
     24 O         -56.4388  -30.4746   14.4358 O.2       13 UNK        -0.4996 
     25 CA        -55.4507  -29.0047   16.0597 C.3       12 UNK         0.0216 
     26 CB        -56.1492  -29.8468   17.1490 C.3       12 UNK        -0.1964 
     27 N         -54.0728  -28.6951   16.4605 N.am      12 UNK        -0.4276 
     28 C         -53.0338  -29.5430   16.5484 C.2       12 UNK         0.5020 
     29 O         -53.1095  -30.7391   16.2623 O.2       12 UNK        -0.5489 
     30 CA        -51.6773  -28.9629   16.9989 C.3       11 UNK         0.0294 
     31 CB        -50.5150  -29.5401   16.1692 C.3       11 UNK        -0.2019 
     32 N         -51.6573  -27.5045   16.8809 N.am      11 UNK        -0.4493 
     33 C         -51.8084  -26.6329   17.8879 C.2       11 UNK         0.4932 
     34 O         -51.8785  -26.9605   19.0722 O.2       11 UNK        -0.5029 
     35 CA        -51.9404  -25.1432   17.5118 C.3       10 UNK         0.0280 
     36 CB        -50.6046  -24.4155   17.7295 C.3       10 UNK        -0.1976 
     37 N         -52.3971  -24.9333   16.1321 N.am      10 UNK        -0.4242 
     38 C         -53.6247  -25.2534   15.6873 C.2       10 UNK         0.5072 
     39 O         -54.5163  -25.6823   16.4199 O.2       10 UNK        -0.5224 
     40 CA        -53.8913  -25.1669   14.1717 C.3       9 UNK         0.0343 
     41 CB        -54.5604  -23.8322   13.8138 C.3       9 UNK        -0.2003 
     42 N         -52.6878  -25.3484   13.3555 N.am      9 UNK        -0.4272 
     43 C         -51.9240  -26.4530   13.3625 C.2       9 UNK         0.4988 
     44 O         -52.2431  -27.4809   13.9609 O.2       9 UNK        -0.5108 
     45 CA        -50.5545  -26.4021   12.6534 C.3       8 UNK         0.0248 
     46 CB        -50.5913  -27.2021   11.3412 C.3       8 UNK        -0.2001 
     47 N         -50.0650  -25.0481   12.3756 N.am      8 UNK        -0.4140 
     48 C         -49.8546  -24.0836   13.2887 C.2       8 UNK         0.5028 
     49 O         -49.9779  -24.2571   14.5010 O.2       8 UNK        -0.5428 
     50 CA        -49.5354  -22.6693   12.7632 C.3       7 UNK         0.0264 
     51 CB        -48.0214  -22.4166   12.8196 C.3       7 UNK        -0.1988 
     52 N         -50.0233  -22.4377   11.3977 N.am      7 UNK        -0.4454 
     53 C         -51.3073  -22.5542   11.0152 C.2       7 UNK         0.5027 
     54 O         -52.2352  -22.6686   11.8165 O.2       7 UNK        -0.5083 
     55 CA        -51.6131  -22.6747    9.5065 C.3       6 UNK         0.0844 
     56 C56       -52.6340  -21.6111    9.0284 C.3       14 UNK        -0.0967 
     57 S57       -52.9816  -21.7047    7.2344 S.3       14 UNK        -0.2604 
     58 C58       -54.3868  -22.8708    7.1516 C.3       14 UNK         0.0134 
     59 N         -50.4221  -22.7475    8.6519 N.am      6 UNK        -0.4116 
     60 C         -49.5497  -23.7625    8.6176 C.2       5 UNK         0.5034 
     61 O         -49.6002  -24.7297    9.3807 O.2       5 UNK        -0.5045 
     62 CA        -48.4139  -23.6851    7.5811 C.3       5 UNK         0.0224 
     63 CB        -48.4550  -22.4352    6.6712 C.3       5 UNK        -0.1978 
     64 N         -47.1055  -23.8126    8.2268 N.am      5 UNK        -0.4737 
     65 C         -46.5895  -23.0362    9.1874 C.2       4 UNK         0.5027 
     66 O         -47.1592  -22.0453    9.6492 O.2       4 UNK        -0.5211 
     67 CA        -45.2170  -23.4744    9.7397 C.3       4 UNK         0.0297 
     68 CB        -44.5324  -22.3566   10.5482 C.3       4 UNK        -0.1993 
     69 N         -45.3115  -24.6745   10.5781 N.am      4 UNK        -0.4486 
     70 C         -45.6145  -25.9094   10.1550 C.2       3 UNK         0.4961 
     71 O         -45.8059  -26.1951    8.9688 O.2       3 UNK        -0.5105 
     72 CA        -45.7390  -26.9940   11.2448 C.3       3 UNK         0.0299 
     73 CB        -46.7068  -26.5620   12.3623 C.3       3 UNK        -0.1972 
     74 N         -46.2231  -28.2514   10.6720 N.am      3 UNK        -0.4305 
     75 C         -45.4633  -29.1484   10.0276 C.2       2 UNK         0.5006 
     76 O         -44.2332  -29.1110    9.9774 O.2       2 UNK        -0.5106 
     77 CA        -46.2231  -30.2393    9.2669 C.3       2 UNK         0.0296 
     78 CB        -46.9393  -31.2092   10.2301 C.3       2 UNK        -0.2002 
     79 N         -47.1666  -29.6028    8.3455 N.am      2 UNK        -0.4032 
     80 C         -47.7606  -30.1994    7.3057 C.2       1 UNK         0.5000 
     81 O         -47.6093  -31.3902    7.0146 O.2       1 UNK        -0.5238 
     82 H82       -46.8730  -30.6076    2.6025 H         1 UNK         0.0889 
     83 H83       -47.5770  -29.0583    2.1258 H         1 UNK         0.0889 
     84 H84       -48.6261  -30.3957    2.6036 H         1 UNK         0.0889 
     85 H85       -49.4352  -30.1674    4.6797 H         1 UNK         0.3028 
     86 H86       -48.3955  -28.2806    6.5724 H         1 UNK         0.0864 
     87 H87       -50.5367  -30.4539    6.8740 H         1 UNK         0.0720 
     88 H88       -50.1980  -29.2577    8.0879 H         1 UNK         0.0720 
     89 H89       -50.6595  -27.0440    8.1539 H         1 UNK         0.0814 
     90 H90       -50.5445  -26.0942    6.7008 H         1 UNK         0.0814 
     91 H91       -52.1466  -24.3535    6.5415 H         1 UNK         0.1469 
     92 H92       -55.8772  -24.5828    8.6427 H         1 UNK         0.1381 
     93 H93       -53.1991  -27.9315    8.6455 H         1 UNK         0.1206 
     94 H94       -56.6600  -26.6915    9.4398 H         1 UNK         0.0813 
     95 H95       -55.7820  -28.1533    9.0996 H         1 UNK         0.0813 
     96 H96       -54.1071  -29.1622   10.3431 H         1 UNK         0.0638 
     97 H97       -53.1357  -28.3793   11.5529 H         1 UNK         0.0638 
     98 H98       -55.6020  -30.0883   12.0693 H         1 UNK         0.0568 
     99 H99       -53.2429  -31.1200   14.2811 H         1 UNK         0.3450 
    100 H100      -52.5901  -32.3967   13.2854 H         1 UNK         0.3450 
    101 H101      -53.9667  -28.5513   13.9802 H         1 UNK         0.2987 
    102 H102      -55.9710  -28.0475   16.0011 H         1 UNK         0.0766 
    103 H103      -56.0772  -29.3693   18.1262 H         1 UNK         0.0798 
    104 H104      -57.2105  -29.9718   16.9301 H         1 UNK         0.0798 
    105 H105      -55.7135  -30.8434   17.2295 H         1 UNK         0.0798 
    106 H106      -53.9090  -27.7203   16.6853 H         1 UNK         0.3198 
    107 H107      -51.5325  -29.2594   18.0397 H         1 UNK         0.0843 
    108 H108      -50.4431  -30.6214   16.2939 H         1 UNK         0.0831 
    109 H109      -49.5589  -29.1169   16.4771 H         1 UNK         0.0831 
    110 H110      -50.6419  -29.3442   15.1038 H         1 UNK         0.0831 
    111 H111      -51.6507  -27.1542   15.9294 H         1 UNK         0.3133 
    112 H112      -52.6810  -24.6989   18.1802 H         1 UNK         0.0566 
    113 H113      -49.8084  -24.8417   17.1178 H         1 UNK         0.0814 
    114 H114      -50.2873  -24.4869   18.7707 H         1 UNK         0.0814 
    115 H115      -50.6833  -23.3557   17.4863 H         1 UNK         0.0814 
    116 H116      -51.6944  -24.6132   15.4701 H         1 UNK         0.3091 
    117 H117      -54.5838  -25.9723   13.9206 H         1 UNK         0.0702 
    118 H118      -54.8184  -23.7917   12.7551 H         1 UNK         0.0785 
    119 H119      -53.9108  -22.9839   14.0333 H         1 UNK         0.0785 
    120 H120      -55.4835  -23.6937   14.3784 H         1 UNK         0.0785 
    121 H121      -52.3785  -24.5390   12.8292 H         1 UNK         0.2998 
    122 H122      -49.8320  -26.8738   13.3222 H         1 UNK         0.0697 
    123 H123      -51.3479  -26.8143   10.6571 H         1 UNK         0.0825 
    124 H124      -50.8194  -28.2515   11.5308 H         1 UNK         0.0825 
    125 H125      -49.6327  -27.1732   10.8242 H         1 UNK         0.0825 
    126 H126      -49.9308  -24.8193   11.3951 H         1 UNK         0.3029 
    127 H127      -50.0339  -21.9535   13.4201 H         1 UNK         0.0897 
    128 H128      -47.7702  -21.4134   12.4743 H         1 UNK         0.0792 
    129 H129      -47.6483  -22.5115   13.8403 H         1 UNK         0.0792 
    130 H130      -47.4724  -23.1306   12.2051 H         1 UNK         0.0792 
    131 H131      -49.3153  -22.3396   10.6801 H         1 UNK         0.3086 
    132 H132      -52.1046  -23.6441    9.4222 H         1 UNK         0.0583 
    133 H133      -53.5729  -21.7079    9.5775 H         1 UNK         0.1020 
    134 H134      -52.2620  -20.6077    9.2436 H         1 UNK         0.1020 
    135 H135      -55.1975  -22.4795    7.7684 H         1 UNK         0.0694 
    136 H136      -54.7612  -22.8872    6.1273 H         1 UNK         0.0694 
    137 H137      -50.2986  -21.9833    8.0041 H         1 UNK         0.2989 
    138 H138      -48.5299  -24.5630    6.9441 H         1 UNK         0.1055 
    139 H139      -47.6509  -22.4652    5.9357 H         1 UNK         0.0806 
    140 H140      -48.3453  -21.5076    7.2345 H         1 UNK         0.0806 
    141 H141      -49.3902  -22.3806    6.1118 H         1 UNK         0.0806 
    142 H142      -46.6057  -24.6790    8.0429 H         1 UNK         0.3061 
    143 H143      -44.5779  -23.7038    8.8841 H         1 UNK         0.0734 
    144 H144      -44.4339  -21.4494    9.9506 H         1 UNK         0.0832 
    145 H145      -45.0999  -22.0953   11.4423 H         1 UNK         0.0832 
    146 H146      -43.5289  -22.6474   10.8592 H         1 UNK         0.0832 
    147 H147      -45.1769  -24.5318   11.5681 H         1 UNK         0.3156 
    148 H148      -44.7505  -27.1552   11.6801 H         1 UNK         0.0589 
    149 H149      -47.6669  -26.2509   11.9541 H         1 UNK         0.0808 
    150 H150      -46.8892  -27.3719   13.0688 H         1 UNK         0.0808 
    151 H151      -46.3109  -25.7249   12.9380 H         1 UNK         0.0808 
    152 H152      -47.2236  -28.3799   10.6694 H         1 UNK         0.3098 
    153 H153      -45.4931  -30.8031    8.6809 H         1 UNK         0.0720 
    154 H154      -47.3731  -32.0538    9.6946 H         1 UNK         0.0791 
    155 H155      -46.2408  -31.6195   10.9608 H         1 UNK         0.0791 
    156 H156      -47.7424  -30.7193   10.7824 H         1 UNK         0.0791 
    157 H157      -47.2788  -28.6037    8.4624 H         1 UNK         0.3028 
@<TRIPOS>BOND
     1    1    2 1    
     2    1   82 1    
     3    1   83 1    
     4    1   84 1    
     5    2    3 2    
     6    2    4 am   BACKBONE|DICT|INTERRES
     7    4    5 1    
     8    4   85 1    
     9    5    6 1    
    10    5   80 1    
    11    5   86 1    
    12    6    7 1    
    13    6   87 1    
    14    6   88 1    
    15    7    8 1    
    16    8    9 1    
    17    8   89 1    
    18    8   90 1    
    19    9   10 ar   
    20    9   14 ar   
    21   10   11 ar   
    22   10   91 1    
    23   11   12 ar   
    24   11   58 1    
    25   12   13 ar   
    26   12   92 1    
    27   13   14 ar   
    28   13   15 1    
    29   14   93 1    
    30   15   16 1    
    31   15   94 1    
    32   15   95 1    
    33   16   17 1    
    34   17   18 1    
    35   17   96 1    
    36   17   97 1    
    37   18   19 1    
    38   18   22 1    
    39   18   98 1    
    40   19   20 am   BACKBONE|DICT|INTERRES
    41   19   21 2    
    42   20   99 1    
    43   20  100 1    
    44   22   23 am   BACKBONE|DICT|INTERRES
    45   22  101 1    
    46   23   24 2    
    47   23   25 1    
    48   25   26 1    
    49   25   27 1    
    50   25  102 1    
    51   26  103 1    
    52   26  104 1    
    53   26  105 1    
    54   27   28 am   BACKBONE|DICT|INTERRES
    55   27  106 1    
    56   28   29 2    
    57   28   30 1    
    58   30   31 1    
    59   30   32 1    
    60   30  107 1    
    61   31  108 1    
    62   31  109 1    
    63   31  110 1    
    64   32   33 am   BACKBONE|DICT|INTERRES
    65   32  111 1    
    66   33   34 2    
    67   33   35 1    
    68   35   36 1    
    69   35   37 1    
    70   35  112 1    
    71   36  113 1    
    72   36  114 1    
    73   36  115 1    
    74   37   38 am   BACKBONE|DICT|INTERRES
    75   37  116 1    
    76   38   39 2    
    77   38   40 1    
    78   40   41 1    
    79   40   42 1    
    80   40  117 1    
    81   41  118 1    
    82   41  119 1    
    83   41  120 1    
    84   42   43 am   BACKBONE|DICT|INTERRES
    85   42  121 1    
    86   43   44 2    
    87   43   45 1    
    88   45   46 1    
    89   45   47 1    
    90   45  122 1    
    91   46  123 1    
    92   46  124 1    
    93   46  125 1    
    94   47   48 am   BACKBONE|DICT|INTERRES
    95   47  126 1    
    96   48   49 2    
    97   48   50 1    
    98   50   51 1    
    99   50   52 1    
   100   50  127 1    
   101   51  128 1    
   102   51  129 1    
   103   51  130 1    
   104   52   53 am   BACKBONE|DICT|INTERRES
   105   52  131 1    
   106   53   54 2    
   107   53   55 1    
   108   55   56 1    
   109   55   59 1    
   110   55  132 1    
   111   56   57 1    
   112   56  133 1    
   113   56  134 1    
   114   57   58 1    
   115   58  135 1    
   116   58  136 1    
   117   59   60 am   BACKBONE|DICT|INTERRES
   118   59  137 1    
   119   60   61 2    
   120   60   62 1    
   121   62   63 1    
   122   62   64 1    
   123   62  138 1    
   124   63  139 1    
   125   63  140 1    
   126   63  141 1    
   127   64   65 am   BACKBONE|DICT|INTERRES
   128   64  142 1    
   129   65   66 2    
   130   65   67 1    
   131   67   68 1    
   132   67   69 1    
   133   67  143 1    
   134   68  144 1    
   135   68  145 1    
   136   68  146 1    
   137   69   70 am   BACKBONE|DICT|INTERRES
   138   69  147 1    
   139   70   71 2    
   140   70   72 1    
   141   72   73 1    
   142   72   74 1    
   143   72  148 1    
   144   73  149 1    
   145   73  150 1    
   146   73  151 1    
   147   74   75 am   BACKBONE|DICT|INTERRES
   148   74  152 1    
   149   75   76 2    
   150   75   77 1    
   151   77   78 1    
   152   77   79 1    
   153   77  153 1    
   154   78  154 1    
   155   78  155 1    
   156   78  156 1    
   157   79   80 am   BACKBONE|DICT|INTERRES
   158   79  157 1    
   159   80   81 2    
@<TRIPOS>SUBSTRUCTURE
     1 UNK         1 GROUP             0       ****    0 ROOT    
