@<TRIPOS>MOLECULE
3R207
157   159    1
SMALL
USER_CHARGES


@<TRIPOS>ATOM
      1 CA        -51.6264  -28.0870    0.9809 C.3       0 UNK        -0.1975 
      2 C         -51.5583  -27.5105    2.3875 C.2       0 UNK         0.4852 
      3 O         -52.2405  -26.5271    2.6770 O.2       0 UNK        -0.5216 
      4 N         -50.7444  -28.1193    3.2617 N.am      1 UNK        -0.4461 
      5 CA        -50.5250  -27.6958    4.6502 C.3       1 UNK         0.0864 
      6 C6        -49.7521  -28.7828    5.4418 C.3       14 UNK        -0.0898 
      7 S7        -49.7956  -28.5317    7.2487 S.3       14 UNK        -0.2598 
      8 C8        -50.3899  -30.1549    7.8121 C.3       14 UNK         0.0286 
      9 C9        -50.4834  -30.2030    9.3279 C.ar      14 UNK        -0.0844 
     10 C10       -49.3418  -30.4668   10.0921 C.ar      14 UNK        -0.0881 
     11 C11       -49.4094  -30.4768   11.4897 C.ar      14 UNK        -0.0643 
     12 C12       -50.6471  -30.2759   12.1070 C.ar      14 UNK        -0.0930 
     13 C13       -51.8041  -30.0360   11.3597 C.ar      14 UNK        -0.0827 
     14 C14       -51.7087  -29.9814    9.9646 C.ar      14 UNK        -0.1249 
     15 C15       -53.1153  -29.8004   12.1080 C.3       14 UNK         0.0141 
     16 S16       -54.6325  -30.2722   11.2160 S.3       14 UNK        -0.2313 
     17 C17       -55.8554  -30.1342   12.5672 C.3       14 UNK        -0.0915 
     18 CA        -56.6894  -28.8289   12.5105 C.3       13 UNK         0.0968 
     19 C         -57.8122  -28.8530   13.5811 C.2       13 UNK         0.5732 
     20 N         -57.5747  -28.3589   14.7904 N.am      13 UNK        -0.7310 
     21 O         -58.9146  -29.3220   13.3079 O.2       13 UNK        -0.5035 
     22 N         -55.8474  -27.6289   12.6185 N.am      13 UNK        -0.4233 
     23 C         -56.0772  -26.4851   11.9617 C.2       13 UNK         0.4989 
     24 O         -56.9986  -26.3272   11.1580 O.2       13 UNK        -0.4996 
     25 CA        -55.0953  -25.3311   12.2414 C.3       12 UNK         0.0216 
     26 CB        -55.5446  -23.9790   11.6473 C.3       12 UNK        -0.1964 
     27 N         -54.7613  -25.2021   13.6634 N.am      12 UNK        -0.4276 
     28 C         -55.5978  -24.9312   14.6759 C.2       12 UNK         0.5020 
     29 O         -56.7933  -24.6729   14.5255 O.2       12 UNK        -0.5489 
     30 CA        -54.9990  -24.9578   16.0990 C.3       11 UNK         0.0294 
     31 CB        -56.0717  -25.2050   17.1811 C.3       11 UNK        -0.2019 
     32 N         -53.8815  -25.8957   16.2798 N.am      11 UNK        -0.4493 
     33 C         -53.8791  -27.2201   16.0532 C.2       11 UNK         0.4932 
     34 O         -54.8283  -27.8266   15.5515 O.2       11 UNK        -0.5029 
     35 CA        -52.6004  -27.9885   16.4394 C.3       10 UNK         0.0280 
     36 CB        -52.3599  -29.2203   15.5553 C.3       10 UNK        -0.1976 
     37 N         -51.4232  -27.1276   16.3498 N.am      10 UNK        -0.4242 
     38 C         -50.5949  -26.8179   17.3552 C.2       10 UNK         0.5072 
     39 O         -50.7053  -27.2657   18.4974 O.2       10 UNK        -0.5224 
     40 CA        -49.4553  -25.8241   17.0516 C.3       9 UNK         0.0343 
     41 CB        -48.1104  -26.5601   16.9411 C.3       9 UNK        -0.2003 
     42 N         -49.6693  -25.0217   15.8423 N.am      9 UNK        -0.4272 
     43 C         -50.6487  -24.1171   15.6930 C.2       9 UNK         0.4988 
     44 O         -51.4631  -23.8390   16.5742 O.2       9 UNK        -0.5108 
     45 CA        -50.7862  -23.4556   14.3127 C.3       8 UNK         0.0248 
     46 CB        -49.8791  -22.2188   14.2217 C.3       8 UNK        -0.2001 
     47 N         -50.5102  -24.3596   13.1901 N.am      8 UNK        -0.4140 
     48 C         -51.1836  -25.4904   12.9324 C.2       8 UNK         0.5028 
     49 O         -52.0912  -25.9199   13.6443 O.2       8 UNK        -0.5428 
     50 CA        -50.7525  -26.3064   11.7049 C.3       7 UNK         0.0264 
     51 CB        -51.1771  -25.6260   10.3943 C.3       7 UNK        -0.1988 
     52 N         -49.3177  -26.5764   11.6752 N.am      7 UNK        -0.4454 
     53 C         -48.6404  -27.2470   12.6198 C.2       7 UNK         0.5027 
     54 O         -49.1408  -27.6878   13.6552 O.2       7 UNK        -0.5083 
     55 CA        -47.1310  -27.4076   12.3663 C.3       6 UNK         0.0844 
     56 C56       -46.8536  -28.4149   11.2153 C.3       14 UNK        -0.0967 
     57 S57       -46.5758  -30.1461   11.7234 S.3       14 UNK        -0.2604 
     58 C58       -48.1861  -30.7179   12.3764 C.3       14 UNK         0.0134 
     59 N         -46.5442  -26.0947   12.0837 N.am      6 UNK        -0.4116 
     60 C         -46.4322  -25.0870   12.9613 C.2       5 UNK         0.5034 
     61 O         -46.7264  -25.1736   14.1531 O.2       5 UNK        -0.5045 
     62 CA        -45.9364  -23.7399   12.4051 C.3       5 UNK         0.0224 
     63 CB        -44.4027  -23.6626   12.4657 C.3       5 UNK        -0.1978 
     64 N         -46.3849  -23.4807   11.0322 N.am      5 UNK        -0.4737 
     65 C         -47.6630  -23.2772   10.6827 C.2       4 UNK         0.5027 
     66 O         -48.5924  -23.2504   11.4858 O.2       4 UNK        -0.5211 
     67 CA        -47.9682  -23.1254    9.1839 C.3       4 UNK         0.0297 
     68 CB        -47.8259  -21.6579    8.7526 C.3       4 UNK        -0.1993 
     69 N         -47.1520  -23.9738    8.3105 N.am      4 UNK        -0.4486 
     70 C         -47.0373  -25.3056    8.3905 C.2       3 UNK         0.4961 
     71 O         -47.5660  -25.9861    9.2719 O.2       3 UNK        -0.5105 
     72 CA        -46.1922  -25.9743    7.2898 C.3       3 UNK         0.0299 
     73 CB        -45.8479  -27.4385    7.6185 C.3       3 UNK        -0.1972 
     74 N         -46.8793  -25.9291    5.9991 N.am      3 UNK        -0.4305 
     75 C         -47.0174  -24.8477    5.2172 C.2       2 UNK         0.5006 
     76 O         -46.5088  -23.7553    5.4762 O.2       2 UNK        -0.5106 
     77 CA        -47.8626  -24.9967    3.9357 C.3       2 UNK         0.0296 
     78 CB        -46.9548  -25.0501    2.6959 C.3       2 UNK        -0.2002 
     79 N         -48.7393  -26.1729    3.9381 N.am      2 UNK        -0.4032 
     80 C         -49.8130  -26.3276    4.7285 C.2       1 UNK         0.5000 
     81 O         -50.2330  -25.4562    5.4918 O.2       1 UNK        -0.5238 
     82 H82       -52.6472  -28.3893    0.7486 H         1 UNK         0.0889 
     83 H83       -50.9806  -28.9570    0.8637 H         1 UNK         0.0889 
     84 H84       -51.3193  -27.3364    0.2530 H         1 UNK         0.0889 
     85 H85       -50.2262  -28.9332    2.9617 H         1 UNK         0.3028 
     86 H86       -51.5100  -27.5777    5.1080 H         1 UNK         0.0864 
     87 H87       -50.1819  -29.7614    5.2219 H         1 UNK         0.0720 
     88 H88       -48.7101  -28.8437    5.1225 H         1 UNK         0.0720 
     89 H89       -49.7128  -30.9342    7.4585 H         1 UNK         0.0814 
     90 H90       -51.3633  -30.3618    7.3644 H         1 UNK         0.0814 
     91 H91       -48.3975  -30.6387    9.5947 H         1 UNK         0.1469 
     92 H92       -50.7040  -30.2938   13.1866 H         1 UNK         0.1381 
     93 H93       -52.5851  -29.7675    9.3690 H         1 UNK         0.1206 
     94 H94       -53.1790  -28.7483   12.3870 H         1 UNK         0.0813 
     95 H95       -53.0947  -30.3793   13.0314 H         1 UNK         0.0813 
     96 H96       -55.3564  -30.2264   13.5337 H         1 UNK         0.0638 
     97 H97       -56.5134  -31.0018   12.4883 H         1 UNK         0.0638 
     98 H98       -57.1898  -28.8200   11.5401 H         1 UNK         0.0568 
     99 H99       -58.3085  -28.3699   15.4796 H         1 UNK         0.3450 
    100 H100      -56.6455  -28.0363   15.0433 H         1 UNK         0.3450 
    101 H101      -55.1323  -27.6509   13.3329 H         1 UNK         0.2987 
    102 H102      -54.1681  -25.6112   11.7421 H         1 UNK         0.0766 
    103 H103      -54.8099  -23.1977   11.8418 H         1 UNK         0.0798 
    104 H104      -56.5001  -23.6520   12.0582 H         1 UNK         0.0798 
    105 H105      -55.6637  -24.0483   10.5654 H         1 UNK         0.0798 
    106 H106      -53.7920  -25.4307   13.8897 H         1 UNK         0.3198 
    107 H107      -54.5849  -23.9620   16.2647 H         1 UNK         0.0843 
    108 H108      -56.5675  -26.1665   17.0433 H         1 UNK         0.0831 
    109 H109      -56.8432  -24.4344   17.1547 H         1 UNK         0.0831 
    110 H110      -55.6385  -25.1906   18.1811 H         1 UNK         0.0831 
    111 H111      -53.0281  -25.4799   16.6346 H         1 UNK         0.3133 
    112 H112      -52.7513  -28.3307   17.4647 H         1 UNK         0.0566 
    113 H113      -51.5232  -29.8124   15.9261 H         1 UNK         0.0814 
    114 H114      -53.2315  -29.8751   15.5224 H         1 UNK         0.0814 
    115 H115      -52.1213  -28.9133   14.5388 H         1 UNK         0.0814 
    116 H116      -51.2684  -26.7009   15.4416 H         1 UNK         0.3091 
    117 H117      -49.3963  -25.1364   17.8977 H         1 UNK         0.0702 
    118 H118      -47.2840  -25.8597   16.8198 H         1 UNK         0.0785 
    119 H119      -48.0944  -27.2463   16.0938 H         1 UNK         0.0785 
    120 H120      -47.9086  -27.1455   17.8391 H         1 UNK         0.0785 
    121 H121      -49.0462  -25.2005   15.0649 H         1 UNK         0.2998 
    122 H122      -51.8221  -23.1251   14.2126 H         1 UNK         0.0697 
    123 H123      -48.8233  -22.4902   14.2633 H         1 UNK         0.0825 
    124 H124      -50.0733  -21.5274   15.0429 H         1 UNK         0.0825 
    125 H125      -50.0466  -21.6728   13.2931 H         1 UNK         0.0825 
    126 H126      -49.7781  -24.0641   12.5436 H         1 UNK         0.3029 
    127 H127      -51.2580  -27.2711   11.7618 H         1 UNK         0.0897 
    128 H128      -50.9182  -26.2396    9.5304 H         1 UNK         0.0792 
    129 H129      -50.6995  -24.6545   10.2687 H         1 UNK         0.0792 
    130 H130      -52.2545  -25.4656   10.3642 H         1 UNK         0.0792 
    131 H131      -48.8093  -26.2622   10.8535 H         1 UNK         0.3086 
    132 H132      -46.6679  -27.7789   13.2831 H         1 UNK         0.0583 
    133 H133      -47.6139  -28.3747   10.4334 H         1 UNK         0.1020 
    134 H134      -45.9311  -28.1297   10.7093 H         1 UNK         0.1020 
    135 H135      -48.1125  -31.7890   12.5676 H         1 UNK         0.0694 
    136 H136      -48.3330  -30.2493   13.3505 H         1 UNK         0.0694 
    137 H137      -46.3648  -25.8941   11.1091 H         1 UNK         0.2989 
    138 H138      -46.3453  -22.9550   13.0458 H         1 UNK         0.1055 
    139 H139      -44.0442  -23.8312   13.4823 H         1 UNK         0.0806 
    140 H140      -44.0422  -22.6812   12.1566 H         1 UNK         0.0806 
    141 H141      -43.9325  -24.4108   11.8263 H         1 UNK         0.0806 
    142 H142      -45.6835  -23.4827   10.3055 H         1 UNK         0.3061 
    143 H143      -49.0075  -23.4229    9.0332 H         1 UNK         0.0734 
    144 H144      -48.1435  -21.5150    7.7195 H         1 UNK         0.0832 
    145 H145      -48.4445  -21.0073    9.3728 H         1 UNK         0.0832 
    146 H146      -46.7962  -21.3086    8.8393 H         1 UNK         0.0832 
    147 H147      -46.7309  -23.5276    7.5016 H         1 UNK         0.3156 
    148 H148      -45.2537  -25.4223    7.2063 H         1 UNK         0.0589 
    149 H149      -46.7422  -28.0478    7.7573 H         1 UNK         0.0808 
    150 H150      -45.2517  -27.8941    6.8278 H         1 UNK         0.0808 
    151 H151      -45.2622  -27.5007    8.5354 H         1 UNK         0.0808 
    152 H152      -47.3577  -26.7731    5.7239 H         1 UNK         0.3098 
    153 H153      -48.4922  -24.1076    3.8599 H         1 UNK         0.0720 
    154 H154      -47.5394  -25.0753    1.7760 H         1 UNK         0.0791 
    155 H155      -46.3054  -25.9265    2.7071 H         1 UNK         0.0791 
    156 H156      -46.3124  -24.1698    2.6441 H         1 UNK         0.0791 
    157 H157      -48.4858  -26.9290    3.3186 H         1 UNK         0.3028 
@<TRIPOS>BOND
     1    1    2 1    
     2    1   82 1    
     3    1   83 1    
     4    1   84 1    
     5    2    3 2    
     6    2    4 am   BACKBONE|DICT|INTERRES
     7    4    5 1    
     8    4   85 1    
     9    5    6 1    
    10    5   80 1    
    11    5   86 1    
    12    6    7 1    
    13    6   87 1    
    14    6   88 1    
    15    7    8 1    
    16    8    9 1    
    17    8   89 1    
    18    8   90 1    
    19    9   10 ar   
    20    9   14 ar   
    21   10   11 ar   
    22   10   91 1    
    23   11   12 ar   
    24   11   58 1    
    25   12   13 ar   
    26   12   92 1    
    27   13   14 ar   
    28   13   15 1    
    29   14   93 1    
    30   15   16 1    
    31   15   94 1    
    32   15   95 1    
    33   16   17 1    
    34   17   18 1    
    35   17   96 1    
    36   17   97 1    
    37   18   19 1    
    38   18   22 1    
    39   18   98 1    
    40   19   20 am   BACKBONE|DICT|INTERRES
    41   19   21 2    
    42   20   99 1    
    43   20  100 1    
    44   22   23 am   BACKBONE|DICT|INTERRES
    45   22  101 1    
    46   23   24 2    
    47   23   25 1    
    48   25   26 1    
    49   25   27 1    
    50   25  102 1    
    51   26  103 1    
    52   26  104 1    
    53   26  105 1    
    54   27   28 am   BACKBONE|DICT|INTERRES
    55   27  106 1    
    56   28   29 2    
    57   28   30 1    
    58   30   31 1    
    59   30   32 1    
    60   30  107 1    
    61   31  108 1    
    62   31  109 1    
    63   31  110 1    
    64   32   33 am   BACKBONE|DICT|INTERRES
    65   32  111 1    
    66   33   34 2    
    67   33   35 1    
    68   35   36 1    
    69   35   37 1    
    70   35  112 1    
    71   36  113 1    
    72   36  114 1    
    73   36  115 1    
    74   37   38 am   BACKBONE|DICT|INTERRES
    75   37  116 1    
    76   38   39 2    
    77   38   40 1    
    78   40   41 1    
    79   40   42 1    
    80   40  117 1    
    81   41  118 1    
    82   41  119 1    
    83   41  120 1    
    84   42   43 am   BACKBONE|DICT|INTERRES
    85   42  121 1    
    86   43   44 2    
    87   43   45 1    
    88   45   46 1    
    89   45   47 1    
    90   45  122 1    
    91   46  123 1    
    92   46  124 1    
    93   46  125 1    
    94   47   48 am   BACKBONE|DICT|INTERRES
    95   47  126 1    
    96   48   49 2    
    97   48   50 1    
    98   50   51 1    
    99   50   52 1    
   100   50  127 1    
   101   51  128 1    
   102   51  129 1    
   103   51  130 1    
   104   52   53 am   BACKBONE|DICT|INTERRES
   105   52  131 1    
   106   53   54 2    
   107   53   55 1    
   108   55   56 1    
   109   55   59 1    
   110   55  132 1    
   111   56   57 1    
   112   56  133 1    
   113   56  134 1    
   114   57   58 1    
   115   58  135 1    
   116   58  136 1    
   117   59   60 am   BACKBONE|DICT|INTERRES
   118   59  137 1    
   119   60   61 2    
   120   60   62 1    
   121   62   63 1    
   122   62   64 1    
   123   62  138 1    
   124   63  139 1    
   125   63  140 1    
   126   63  141 1    
   127   64   65 am   BACKBONE|DICT|INTERRES
   128   64  142 1    
   129   65   66 2    
   130   65   67 1    
   131   67   68 1    
   132   67   69 1    
   133   67  143 1    
   134   68  144 1    
   135   68  145 1    
   136   68  146 1    
   137   69   70 am   BACKBONE|DICT|INTERRES
   138   69  147 1    
   139   70   71 2    
   140   70   72 1    
   141   72   73 1    
   142   72   74 1    
   143   72  148 1    
   144   73  149 1    
   145   73  150 1    
   146   73  151 1    
   147   74   75 am   BACKBONE|DICT|INTERRES
   148   74  152 1    
   149   75   76 2    
   150   75   77 1    
   151   77   78 1    
   152   77   79 1    
   153   77  153 1    
   154   78  154 1    
   155   78  155 1    
   156   78  156 1    
   157   79   80 am   BACKBONE|DICT|INTERRES
   158   79  157 1    
   159   80   81 2    
@<TRIPOS>SUBSTRUCTURE
     1 UNK         1 GROUP             0       ****    0 ROOT    
