@<TRIPOS>MOLECULE
3R207
157   159    1
SMALL
USER_CHARGES


@<TRIPOS>ATOM
      1 CA        -46.6739  -32.4060    5.1590 C.3       0 UNK        -0.1975 
      2 C         -47.0033  -31.1136    5.8911 C.2       0 UNK         0.4852 
      3 O         -46.2680  -30.7270    6.8012 O.2       0 UNK        -0.5216 
      4 N         -48.0996  -30.4490    5.4963 N.am      1 UNK        -0.4461 
      5 CA        -48.6275  -29.1849    6.0307 C.3       1 UNK         0.0864 
      6 C6        -49.0030  -29.2381    7.5382 C.3       14 UNK        -0.0898 
      7 S7        -50.4643  -30.2894    7.8263 S.3       14 UNK        -0.2598 
      8 C8        -51.1843  -29.5143    9.3141 C.3       14 UNK         0.0286 
      9 C9        -52.1799  -28.3838    9.0480 C.ar      14 UNK        -0.0844 
     10 C10       -52.0297  -27.4935    7.9771 C.ar      14 UNK        -0.0881 
     11 C11       -52.9256  -26.4378    7.7932 C.ar      14 UNK        -0.0643 
     12 C12       -54.0056  -26.2917    8.6674 C.ar      14 UNK        -0.0930 
     13 C13       -54.1744  -27.1709    9.7404 C.ar      14 UNK        -0.0827 
     14 C14       -53.2523  -28.2052    9.9304 C.ar      14 UNK        -0.1249 
     15 C15       -55.3295  -26.9701   10.7118 C.3       14 UNK         0.0141 
     16 S16       -56.6801  -28.1586   10.4423 S.3       14 UNK        -0.2313 
     17 C17       -56.3843  -29.3458   11.7982 C.3       14 UNK        -0.0915 
     18 CA        -57.0772  -28.9353   13.1293 C.3       13 UNK         0.0968 
     19 C         -58.5921  -29.3013   13.1501 C.2       13 UNK         0.5732 
     20 N         -59.0345  -30.2464   13.9719 N.am      13 UNK        -0.7310 
     21 O         -59.3850  -28.7064   12.4246 O.2       13 UNK        -0.5035 
     22 N         -56.3173  -29.4329   14.2874 N.am      13 UNK        -0.4233 
     23 C         -56.3694  -28.9103   15.5199 C.2       13 UNK         0.4989 
     24 O         -57.0556  -27.9344   15.8265 O.2       13 UNK        -0.4996 
     25 CA        -55.5009  -29.5761   16.5953 C.3       12 UNK         0.0216 
     26 CB        -55.2093  -31.0704   16.3320 C.3       12 UNK        -0.1964 
     27 N         -54.2492  -28.8333   16.7085 N.am      12 UNK        -0.4276 
     28 C         -53.4773  -28.7771   17.8035 C.2       12 UNK         0.5020 
     29 O         -53.7859  -29.3056   18.8740 O.2       12 UNK        -0.5489 
     30 CA        -52.1373  -28.0110   17.6938 C.3       11 UNK         0.0294 
     31 CB        -51.0788  -28.5043   18.7032 C.3       11 UNK        -0.2019 
     32 N         -51.5891  -27.9851   16.3323 N.am      11 UNK        -0.4493 
     33 C         -51.2713  -29.0398   15.5616 C.2       11 UNK         0.4932 
     34 O         -51.2170  -30.1963   15.9821 O.2       11 UNK        -0.5029 
     35 CA        -51.0115  -28.7743   14.0595 C.3       10 UNK         0.0280 
     36 CB        -51.5476  -29.9217   13.1807 C.3       10 UNK        -0.1976 
     37 N         -51.5210  -27.4865   13.5652 N.am      10 UNK        -0.4242 
     38 C         -52.7713  -27.0072   13.6600 C.2       10 UNK         0.5072 
     39 O         -53.7119  -27.6538   14.1216 O.2       10 UNK        -0.5224 
     40 CA        -52.9818  -25.5342   13.2528 C.3       9 UNK         0.0343 
     41 CB        -54.2613  -24.9265   13.8655 C.3       9 UNK        -0.2003 
     42 N         -51.8233  -24.6817   13.5493 N.am      9 UNK        -0.4272 
     43 C         -51.1964  -24.5234   14.7267 C.2       9 UNK         0.4988 
     44 O         -51.5697  -25.0599   15.7714 O.2       9 UNK        -0.5108 
     45 CA        -49.8996  -23.6883   14.7477 C.3       8 UNK         0.0248 
     46 CB        -48.7037  -24.5809   15.1220 C.3       8 UNK        -0.2001 
     47 N         -49.6051  -23.0193   13.4769 N.am      8 UNK        -0.4140 
     48 C         -50.2133  -21.9088   13.0379 C.2       8 UNK         0.5028 
     49 O         -51.0309  -21.2683   13.6994 O.2       8 UNK        -0.5428 
     50 CA        -49.8908  -21.4637   11.5997 C.3       7 UNK         0.0264 
     51 CB        -48.6154  -20.6069   11.5700 C.3       7 UNK        -0.1988 
     52 N         -49.7622  -22.5844   10.6590 N.am      7 UNK        -0.4454 
     53 C         -50.7491  -23.4465   10.3651 C.2       7 UNK         0.5027 
     54 O         -51.8798  -23.3636   10.8449 O.2       7 UNK        -0.5083 
     55 CA        -50.4115  -24.6401    9.4466 C.3       6 UNK         0.0844 
     56 C56       -50.4284  -24.2776    7.9395 C.3       14 UNK        -0.0967 
     57 S57       -52.0870  -23.8394    7.3080 S.3       14 UNK        -0.2604 
     58 C58       -52.7052  -25.4329    6.6719 C.3       14 UNK         0.0134 
     59 N         -49.1529  -25.2796    9.8280 N.am      6 UNK        -0.4116 
     60 C         -48.9267  -25.9149   10.9855 C.2       5 UNK         0.5034 
     61 O         -49.7777  -26.0995   11.8535 O.2       5 UNK        -0.5045 
     62 CA        -47.4872  -26.3814   11.2430 C.3       5 UNK         0.0224 
     63 CB        -47.2126  -27.7315   10.5615 C.3       5 UNK        -0.1978 
     64 N         -46.5020  -25.3880   10.8080 N.am      5 UNK        -0.4737 
     65 C         -46.3370  -24.1890   11.3846 C.2       4 UNK         0.5027 
     66 O         -46.9732  -23.8104   12.3676 O.2       4 UNK        -0.5211 
     67 CA        -45.3190  -23.2406   10.7296 C.3       4 UNK         0.0297 
     68 CB        -43.8925  -23.5747   11.1932 C.3       4 UNK        -0.1993 
     69 N         -45.3812  -23.2644    9.2653 N.am      4 UNK        -0.4486 
     70 C         -46.4262  -22.8293    8.5470 C.2       3 UNK         0.4961 
     71 O         -47.4424  -22.3417    9.0392 O.2       3 UNK        -0.5105 
     72 CA        -46.3499  -23.0201    7.0226 C.3       3 UNK         0.0299 
     73 CB        -45.5280  -21.8937    6.3763 C.3       3 UNK        -0.1972 
     74 N         -45.8175  -24.3244    6.6095 N.am      3 UNK        -0.4305 
     75 C         -46.3266  -25.5080    6.9776 C.2       2 UNK         0.5006 
     76 O         -47.2592  -25.6331    7.7747 O.2       2 UNK        -0.5106 
     77 CA        -45.6524  -26.7613    6.3920 C.3       2 UNK         0.0296 
     78 CB        -44.4050  -27.1248    7.2141 C.3       2 UNK        -0.2002 
     79 N         -46.5588  -27.9116    6.3819 N.am      2 UNK        -0.4032 
     80 C         -47.7143  -27.9866    5.7087 C.2       1 UNK         0.5000 
     81 O         -48.0785  -27.1567    4.8729 O.2       1 UNK        -0.5238 
     82 H82       -45.6924  -32.3321    4.6916 H         1 UNK         0.0889 
     83 H83       -47.4037  -32.6336    4.3821 H         1 UNK         0.0889 
     84 H84       -46.6554  -33.2391    5.8611 H         1 UNK         0.0889 
     85 H85       -48.6376  -30.8304    4.7303 H         1 UNK         0.3028 
     86 H86       -49.5498  -28.9995    5.4768 H         1 UNK         0.0864 
     87 H87       -48.1818  -29.6209    8.1447 H         1 UNK         0.0720 
     88 H88       -49.2026  -28.2369    7.9237 H         1 UNK         0.0720 
     89 H89       -50.3861  -29.1427    9.9581 H         1 UNK         0.0814 
     90 H90       -51.6843  -30.3092    9.8693 H         1 UNK         0.0814 
     91 H91       -51.2065  -27.5982    7.2884 H         1 UNK         0.1469 
     92 H92       -54.6980  -25.4732    8.5247 H         1 UNK         0.1381 
     93 H93       -53.3698  -28.8723   10.7726 H         1 UNK         0.1206 
     94 H94       -54.9717  -27.0526   11.7360 H         1 UNK         0.0813 
     95 H95       -55.7326  -25.9606   10.6176 H         1 UNK         0.0813 
     96 H96       -55.3058  -29.4253   11.9400 H         1 UNK         0.0638 
     97 H97       -56.7081  -30.3374   11.4768 H         1 UNK         0.0638 
     98 H98       -57.0377  -27.8460   13.1941 H         1 UNK         0.0568 
     99 H99       -60.0175  -30.4683   13.9829 H         1 UNK         0.3450 
    100 H100      -58.3988  -30.7400   14.5766 H         1 UNK         0.3450 
    101 H101      -55.7220  -30.2300   14.1234 H         1 UNK         0.2987 
    102 H102      -56.0523  -29.4946   17.5345 H         1 UNK         0.0766 
    103 H103      -54.7286  -31.5299   17.1959 H         1 UNK         0.0798 
    104 H104      -54.5462  -31.2163   15.4783 H         1 UNK         0.0798 
    105 H105      -56.1282  -31.6281   16.1465 H         1 UNK         0.0798 
    106 H106      -53.9559  -28.3461   15.8613 H         1 UNK         0.3198 
    107 H107      -52.3680  -26.9734   17.9404 H         1 UNK         0.0843 
    108 H108      -50.1495  -27.9426   18.6101 H         1 UNK         0.0831 
    109 H109      -50.8490  -29.5611   18.5651 H         1 UNK         0.0831 
    110 H110      -51.4287  -28.3805   19.7288 H         1 UNK         0.0831 
    111 H111      -51.5843  -27.0637   15.9029 H         1 UNK         0.3133 
    112 H112      -49.9280  -28.7369   13.9394 H         1 UNK         0.0566 
    113 H113      -51.3252  -29.7425   12.1320 H         1 UNK         0.0814 
    114 H114      -51.0886  -30.8746   13.4469 H         1 UNK         0.0814 
    115 H115      -52.6271  -30.0387   13.2816 H         1 UNK         0.0814 
    116 H116      -50.8322  -26.8890   13.1080 H         1 UNK         0.3091 
    117 H117      -53.0895  -25.5301   12.1675 H         1 UNK         0.0702 
    118 H118      -55.1486  -25.4907   13.5764 H         1 UNK         0.0785 
    119 H119      -54.4086  -23.8996   13.5312 H         1 UNK         0.0785 
    120 H120      -54.2227  -24.9229   14.9553 H         1 UNK         0.0785 
    121 H121      -51.4365  -24.2078   12.7418 H         1 UNK         0.2998 
    122 H122      -50.0151  -22.9285   15.5233 H         1 UNK         0.0697 
    123 H123      -48.5477  -25.3717   14.3873 H         1 UNK         0.0825 
    124 H124      -48.8558  -25.0595   16.0905 H         1 UNK         0.0825 
    125 H125      -47.7824  -24.0020   15.1890 H         1 UNK         0.0825 
    126 H126      -48.8823  -23.4392   12.8990 H         1 UNK         0.3029 
    127 H127      -50.7225  -20.8447   11.2566 H         1 UNK         0.0897 
    128 H128      -48.4296  -20.2071   10.5730 H         1 UNK         0.0792 
    129 H129      -48.6990  -19.7573   12.2491 H         1 UNK         0.0792 
    130 H130      -47.7373  -21.1796   11.8694 H         1 UNK         0.0792 
    131 H131      -48.8672  -22.6744   10.1807 H         1 UNK         0.3086 
    132 H132      -51.1872  -25.3862    9.6224 H         1 UNK         0.0583 
    133 H133      -49.7490  -23.4471    7.7390 H         1 UNK         0.1020 
    134 H134      -50.0468  -25.1136    7.3506 H         1 UNK         0.1020 
    135 H135      -53.6485  -25.2628    6.1509 H         1 UNK         0.0694 
    136 H136      -52.0099  -25.8217    5.9263 H         1 UNK         0.0694 
    137 H137      -48.3936  -25.2325    9.1513 H         1 UNK         0.2989 
    138 H138      -47.3765  -26.5164   12.3214 H         1 UNK         0.1055 
    139 H139      -47.9423  -28.4809   10.8714 H         1 UNK         0.0806 
    140 H140      -46.2262  -28.1136   10.8245 H         1 UNK         0.0806 
    141 H141      -47.2623  -27.6573    9.4758 H         1 UNK         0.0806 
    142 H142      -45.9823  -25.5953    9.9679 H         1 UNK         0.3061 
    143 H143      -45.5540  -22.2260   11.0587 H         1 UNK         0.0734 
    144 H144      -43.1702  -22.8567   10.8045 H         1 UNK         0.0832 
    145 H145      -43.8211  -23.5457   12.2815 H         1 UNK         0.0832 
    146 H146      -43.5830  -24.5706   10.8736 H         1 UNK         0.0832 
    147 H147      -44.5900  -23.6548    8.7746 H         1 UNK         0.3156 
    148 H148      -47.3699  -22.9549    6.6380 H         1 UNK         0.0589 
    149 H149      -44.4811  -21.9281    6.6807 H         1 UNK         0.0808 
    150 H150      -45.5639  -21.9496    5.2882 H         1 UNK         0.0808 
    151 H151      -45.9176  -20.9149    6.6602 H         1 UNK         0.0808 
    152 H152      -45.0414  -24.3111    5.9629 H         1 UNK         0.3098 
    153 H153      -45.3581  -26.5531    5.3615 H         1 UNK         0.0720 
    154 H154      -43.8992  -27.9975    6.8000 H         1 UNK         0.0791 
    155 H155      -44.6567  -27.3471    8.2522 H         1 UNK         0.0791 
    156 H156      -43.6824  -26.3078    7.2202 H         1 UNK         0.0791 
    157 H157      -46.3163  -28.7010    6.9708 H         1 UNK         0.3028 
@<TRIPOS>BOND
     1    1    2 1    
     2    1   82 1    
     3    1   83 1    
     4    1   84 1    
     5    2    3 2    
     6    2    4 am   BACKBONE|DICT|INTERRES
     7    4    5 1    
     8    4   85 1    
     9    5    6 1    
    10    5   80 1    
    11    5   86 1    
    12    6    7 1    
    13    6   87 1    
    14    6   88 1    
    15    7    8 1    
    16    8    9 1    
    17    8   89 1    
    18    8   90 1    
    19    9   10 ar   
    20    9   14 ar   
    21   10   11 ar   
    22   10   91 1    
    23   11   12 ar   
    24   11   58 1    
    25   12   13 ar   
    26   12   92 1    
    27   13   14 ar   
    28   13   15 1    
    29   14   93 1    
    30   15   16 1    
    31   15   94 1    
    32   15   95 1    
    33   16   17 1    
    34   17   18 1    
    35   17   96 1    
    36   17   97 1    
    37   18   19 1    
    38   18   22 1    
    39   18   98 1    
    40   19   20 am   BACKBONE|DICT|INTERRES
    41   19   21 2    
    42   20   99 1    
    43   20  100 1    
    44   22   23 am   BACKBONE|DICT|INTERRES
    45   22  101 1    
    46   23   24 2    
    47   23   25 1    
    48   25   26 1    
    49   25   27 1    
    50   25  102 1    
    51   26  103 1    
    52   26  104 1    
    53   26  105 1    
    54   27   28 am   BACKBONE|DICT|INTERRES
    55   27  106 1    
    56   28   29 2    
    57   28   30 1    
    58   30   31 1    
    59   30   32 1    
    60   30  107 1    
    61   31  108 1    
    62   31  109 1    
    63   31  110 1    
    64   32   33 am   BACKBONE|DICT|INTERRES
    65   32  111 1    
    66   33   34 2    
    67   33   35 1    
    68   35   36 1    
    69   35   37 1    
    70   35  112 1    
    71   36  113 1    
    72   36  114 1    
    73   36  115 1    
    74   37   38 am   BACKBONE|DICT|INTERRES
    75   37  116 1    
    76   38   39 2    
    77   38   40 1    
    78   40   41 1    
    79   40   42 1    
    80   40  117 1    
    81   41  118 1    
    82   41  119 1    
    83   41  120 1    
    84   42   43 am   BACKBONE|DICT|INTERRES
    85   42  121 1    
    86   43   44 2    
    87   43   45 1    
    88   45   46 1    
    89   45   47 1    
    90   45  122 1    
    91   46  123 1    
    92   46  124 1    
    93   46  125 1    
    94   47   48 am   BACKBONE|DICT|INTERRES
    95   47  126 1    
    96   48   49 2    
    97   48   50 1    
    98   50   51 1    
    99   50   52 1    
   100   50  127 1    
   101   51  128 1    
   102   51  129 1    
   103   51  130 1    
   104   52   53 am   BACKBONE|DICT|INTERRES
   105   52  131 1    
   106   53   54 2    
   107   53   55 1    
   108   55   56 1    
   109   55   59 1    
   110   55  132 1    
   111   56   57 1    
   112   56  133 1    
   113   56  134 1    
   114   57   58 1    
   115   58  135 1    
   116   58  136 1    
   117   59   60 am   BACKBONE|DICT|INTERRES
   118   59  137 1    
   119   60   61 2    
   120   60   62 1    
   121   62   63 1    
   122   62   64 1    
   123   62  138 1    
   124   63  139 1    
   125   63  140 1    
   126   63  141 1    
   127   64   65 am   BACKBONE|DICT|INTERRES
   128   64  142 1    
   129   65   66 2    
   130   65   67 1    
   131   67   68 1    
   132   67   69 1    
   133   67  143 1    
   134   68  144 1    
   135   68  145 1    
   136   68  146 1    
   137   69   70 am   BACKBONE|DICT|INTERRES
   138   69  147 1    
   139   70   71 2    
   140   70   72 1    
   141   72   73 1    
   142   72   74 1    
   143   72  148 1    
   144   73  149 1    
   145   73  150 1    
   146   73  151 1    
   147   74   75 am   BACKBONE|DICT|INTERRES
   148   74  152 1    
   149   75   76 2    
   150   75   77 1    
   151   77   78 1    
   152   77   79 1    
   153   77  153 1    
   154   78  154 1    
   155   78  155 1    
   156   78  156 1    
   157   79   80 am   BACKBONE|DICT|INTERRES
   158   79  157 1    
   159   80   81 2    
@<TRIPOS>SUBSTRUCTURE
     1 UNK         1 GROUP             0       ****    0 ROOT    
