@<TRIPOS>MOLECULE
3R207
157   159    1
SMALL
USER_CHARGES


@<TRIPOS>ATOM
      1 CA        -46.7392  -28.0712    4.9662 C.3       0 UNK        -0.1975 
      2 C         -48.2262  -27.9937    5.2791 C.2       0 UNK         0.4852 
      3 O         -48.9948  -27.4812    4.4652 O.2       0 UNK        -0.5216 
      4 N         -48.6352  -28.5042    6.4494 N.am      1 UNK        -0.4461 
      5 CA        -50.0249  -28.5089    6.9275 C.3       1 UNK         0.0864 
      6 C6        -50.1852  -29.4514    8.1433 C.3       14 UNK        -0.0898 
      7 S7        -51.8835  -30.0837    8.3589 S.3       14 UNK        -0.2598 
      8 C8        -51.5670  -31.6112    9.3053 C.3       14 UNK         0.0286 
      9 C9        -50.9636  -31.2976   10.6658 C.ar      14 UNK        -0.0844 
     10 C10       -49.5770  -31.2559   10.8188 C.ar      14 UNK        -0.0881 
     11 C11       -49.0036  -30.8729   12.0327 C.ar      14 UNK        -0.0643 
     12 C12       -49.8316  -30.5830   13.1235 C.ar      14 UNK        -0.0930 
     13 C13       -51.2232  -30.6673   12.9956 C.ar      14 UNK        -0.0827 
     14 C14       -51.7821  -31.0185   11.7627 C.ar      14 UNK        -0.1249 
     15 C15       -52.1332  -30.4062   14.1862 C.3       14 UNK         0.0141 
     16 S16       -52.8289  -28.7250   14.1593 S.3       14 UNK        -0.2313 
     17 C17       -54.3355  -29.0003   15.1530 C.3       14 UNK        -0.0915 
     18 CA        -54.9291  -27.7336   15.8246 C.3       13 UNK         0.0968 
     19 C         -53.9877  -27.1137   16.9019 C.2       13 UNK         0.5732 
     20 N         -53.6971  -25.8189   16.8746 N.am      13 UNK        -0.7310 
     21 O         -53.5303  -27.8202   17.7975 O.2       13 UNK        -0.5035 
     22 N         -55.4987  -26.7963   14.8387 N.am      13 UNK        -0.4233 
     23 C         -56.4560  -25.8989   15.1200 C.2       13 UNK         0.4989 
     24 O         -56.9443  -25.7501   16.2407 O.2       13 UNK        -0.4996 
     25 CA        -56.9815  -25.0317   13.9673 C.3       12 UNK         0.0216 
     26 CB        -56.0112  -23.8849   13.6454 C.3       12 UNK        -0.1964 
     27 N         -57.2071  -25.8292   12.7633 N.am      12 UNK        -0.4276 
     28 C         -58.4005  -26.2822   12.3562 C.2       12 UNK         0.5020 
     29 O         -59.4592  -26.0460   12.9405 O.2       12 UNK        -0.5489 
     30 CA        -58.4366  -27.1325   11.0714 C.3       11 UNK         0.0294 
     31 CB        -58.8565  -26.2686    9.8708 C.3       11 UNK        -0.2019 
     32 N         -57.1634  -27.7878   10.7649 N.am      11 UNK        -0.4493 
     33 C         -56.6364  -28.7978   11.4702 C.2       11 UNK         0.4932 
     34 O         -57.2008  -29.3371   12.4219 O.2       11 UNK        -0.5029 
     35 CA        -55.2353  -29.2808   11.0531 C.3       10 UNK         0.0280 
     36 CB        -55.3724  -30.4412   10.0549 C.3       10 UNK        -0.1976 
     37 N         -54.3527  -28.2493   10.4843 N.am      10 UNK        -0.4242 
     38 C         -54.0472  -27.0748   11.0553 C.2       10 UNK         0.5072 
     39 O         -54.5524  -26.6677   12.1061 O.2       10 UNK        -0.5224 
     40 CA        -53.0845  -26.1594   10.2828 C.3       9 UNK         0.0343 
     41 CB        -53.8764  -25.3167    9.2684 C.3       9 UNK        -0.2003 
     42 N         -52.3968  -25.2608   11.2115 N.am      9 UNK        -0.4272 
     43 C         -51.3227  -25.6043   11.9324 C.2       9 UNK         0.4988 
     44 O         -50.6560  -26.6240   11.7382 O.2       9 UNK        -0.5108 
     45 CA        -50.9445  -24.6509   13.0756 C.3       8 UNK         0.0248 
     46 CB        -52.0848  -24.5487   14.1082 C.3       8 UNK        -0.2001 
     47 N         -49.7341  -25.1581   13.7107 N.am      8 UNK        -0.4140 
     48 C         -48.9417  -24.5031   14.5677 C.2       8 UNK         0.5028 
     49 O         -49.1496  -23.3541   14.9593 O.2       8 UNK        -0.5428 
     50 CA        -47.6953  -25.2568   15.0724 C.3       7 UNK         0.0264 
     51 CB        -48.0098  -25.9941   16.3845 C.3       7 UNK        -0.1988 
     52 N         -47.1611  -26.2122   14.0949 N.am      7 UNK        -0.4454 
     53 C         -46.6300  -25.8580   12.9157 C.2       7 UNK         0.5027 
     54 O         -46.4402  -24.6842   12.5957 O.2       7 UNK        -0.5083 
     55 CA        -46.2468  -26.9966   11.9512 C.3       6 UNK         0.0844 
     56 C56       -47.4226  -27.9777   11.7017 C.3       14 UNK        -0.0967 
     57 S57       -46.8226  -29.5346   10.9674 S.3       14 UNK        -0.2604 
     58 C58       -47.4887  -30.7642   12.1402 C.3       14 UNK         0.0134 
     59 N         -45.8007  -26.4091   10.6877 N.am      6 UNK        -0.4116 
     60 C         -44.5573  -26.4309   10.2004 C.2       5 UNK         0.5034 
     61 O         -43.6024  -26.9712   10.7605 O.2       5 UNK        -0.5045 
     62 CA        -44.3396  -25.7346    8.8499 C.3       5 UNK         0.0224 
     63 CB        -44.8296  -26.6332    7.7014 C.3       5 UNK        -0.1978 
     64 N         -45.0351  -24.4452    8.7771 N.am      5 UNK        -0.4737 
     65 C         -44.4306  -23.2599    8.6109 C.2       4 UNK         0.5027 
     66 O         -43.2092  -23.1202    8.5387 O.2       4 UNK        -0.5211 
     67 CA        -45.3255  -22.0129    8.4688 C.3       4 UNK         0.0297 
     68 CB        -45.4639  -21.6246    6.9874 C.3       4 UNK        -0.1993 
     69 N         -46.6614  -22.1960    9.0367 N.am      4 UNK        -0.4486 
     70 C         -46.9473  -22.1554   10.3447 C.2       3 UNK         0.4961 
     71 O         -46.1315  -21.8203   11.2036 O.2       3 UNK        -0.5105 
     72 CA        -48.3833  -22.5336   10.7707 C.3       3 UNK         0.0299 
     73 CB        -49.1390  -21.2854   11.2568 C.3       3 UNK        -0.1972 
     74 N         -49.1908  -23.2027    9.7409 N.am      3 UNK        -0.4305 
     75 C         -48.9142  -24.3723    9.1476 C.2       2 UNK         0.5006 
     76 O         -47.8930  -25.0360    9.3545 O.2       2 UNK        -0.5106 
     77 CA        -49.9242  -24.8356    8.0950 C.3       2 UNK         0.0296 
     78 CB        -49.8328  -23.9714    6.8221 C.3       2 UNK        -0.2002 
     79 N         -49.6610  -26.2295    7.7624 N.am      2 UNK        -0.4032 
     80 C         -50.5449  -27.0891    7.2410 C.2       1 UNK         0.5000 
     81 O         -51.7150  -26.7978    6.9860 O.2       1 UNK        -0.5238 
     82 H82       -46.3216  -27.0683    4.8817 H         1 UNK         0.0889 
     83 H83       -46.5822  -28.5860    4.0187 H         1 UNK         0.0889 
     84 H84       -46.1861  -28.6078    5.7366 H         1 UNK         0.0889 
     85 H85       -47.9565  -28.9281    7.0660 H         1 UNK         0.3028 
     86 H86       -50.6338  -28.9002    6.1091 H         1 UNK         0.0864 
     87 H87       -49.8562  -28.9727    9.0687 H         1 UNK         0.0720 
     88 H88       -49.5394  -30.3199    8.0070 H         1 UNK         0.0720 
     89 H89       -50.9052  -32.2641    8.7342 H         1 UNK         0.0814 
     90 H90       -52.4986  -32.1641    9.4286 H         1 UNK         0.0814 
     91 H91       -48.9352  -31.4775    9.9776 H         1 UNK         0.1469 
     92 H92       -49.3962  -30.2965   14.0708 H         1 UNK         0.1381 
     93 H93       -52.8560  -31.0640   11.6563 H         1 UNK         0.1206 
     94 H94       -52.9433  -31.1372   14.1767 H         1 UNK         0.0813 
     95 H95       -51.5964  -30.5568   15.1241 H         1 UNK         0.0813 
     96 H96       -54.1180  -29.7493   15.9166 H         1 UNK         0.0638 
     97 H97       -55.0857  -29.4549   14.5042 H         1 UNK         0.0638 
     98 H98       -55.7792  -28.0955   16.4060 H         1 UNK         0.0568 
     99 H99       -54.0914  -25.2234   16.1666 H         1 UNK         0.3450 
    100 H100      -53.0971  -25.4350   17.5865 H         1 UNK         0.3450 
    101 H101      -55.1089  -26.8397   13.9003 H         1 UNK         0.2987 
    102 H102      -57.9197  -24.5824   14.3003 H         1 UNK         0.0766 
    103 H103      -56.4637  -23.1733   12.9546 H         1 UNK         0.0798 
    104 H104      -55.0964  -24.2524   13.1844 H         1 UNK         0.0798 
    105 H105      -55.7352  -23.3327   14.5448 H         1 UNK         0.0798 
    106 H106      -56.3730  -26.1299   12.2661 H         1 UNK         0.3198 
    107 H107      -59.1912  -27.9089   11.2157 H         1 UNK         0.0843 
    108 H108      -58.1326  -25.4783    9.6677 H         1 UNK         0.0831 
    109 H109      -58.9642  -26.8685    8.9668 H         1 UNK         0.0831 
    110 H110      -59.8189  -25.7884   10.0542 H         1 UNK         0.0831 
    111 H111      -56.6321  -27.4186    9.9900 H         1 UNK         0.3133 
    112 H112      -54.7471  -29.6570   11.9532 H         1 UNK         0.0566 
    113 H113      -54.4077  -30.8857    9.8230 H         1 UNK         0.0814 
    114 H114      -56.0001  -31.2357   10.4612 H         1 UNK         0.0814 
    115 H115      -55.8241  -30.1161    9.1169 H         1 UNK         0.0814 
    116 H116      -53.8930  -28.4895    9.6167 H         1 UNK         0.3091 
    117 H117      -52.3514  -26.7717    9.7533 H         1 UNK         0.0702 
    118 H118      -54.6638  -24.7350    9.7502 H         1 UNK         0.0785 
    119 H119      -54.3505  -25.9528    8.5197 H         1 UNK         0.0785 
    120 H120      -53.2319  -24.6221    8.7311 H         1 UNK         0.0785 
    121 H121      -52.9035  -24.4279   11.4716 H         1 UNK         0.2998 
    122 H122      -50.7313  -23.6671   12.6553 H         1 UNK         0.0697 
    123 H123      -52.4418  -25.5368   14.4012 H         1 UNK         0.0825 
    124 H124      -52.9288  -23.9973   13.6995 H         1 UNK         0.0825 
    125 H125      -51.7780  -24.0223   15.0116 H         1 UNK         0.0825 
    126 H126      -49.4824  -26.0889   13.4015 H         1 UNK         0.3029 
    127 H127      -46.9220  -24.5119   15.2737 H         1 UNK         0.0897 
    128 H128      -47.1194  -26.4679   16.7984 H         1 UNK         0.0792 
    129 H129      -48.3857  -25.3013   17.1389 H         1 UNK         0.0792 
    130 H130      -48.7690  -26.7649   16.2446 H         1 UNK         0.0792 
    131 H131      -47.2411  -27.1914   14.3281 H         1 UNK         0.3086 
    132 H132      -45.4284  -27.5373   12.4312 H         1 UNK         0.0583 
    133 H133      -47.9623  -28.2171   12.6180 H         1 UNK         0.1020 
    134 H134      -48.1661  -27.5364   11.0344 H         1 UNK         0.1020 
    135 H135      -47.0475  -31.7372   11.9198 H         1 UNK         0.0694 
    136 H136      -47.1800  -30.5077   13.1548 H         1 UNK         0.0694 
    137 H137      -46.5163  -25.8866   10.1894 H         1 UNK         0.2989 
    138 H138      -43.2623  -25.5970    8.7323 H         1 UNK         0.1055 
    139 H139      -45.9063  -26.8000    7.7494 H         1 UNK         0.0806 
    140 H140      -44.3446  -27.6099    7.7340 H         1 UNK         0.0806 
    141 H141      -44.6019  -26.1909    6.7315 H         1 UNK         0.0806 
    142 H142      -46.0443  -24.4652    8.8779 H         1 UNK         0.3061 
    143 H143      -44.8316  -21.1909    8.9918 H         1 UNK         0.0734 
    144 H144      -46.0420  -20.7081    6.8686 H         1 UNK         0.0832 
    145 H145      -44.4854  -21.4480    6.5383 H         1 UNK         0.0832 
    146 H146      -45.9509  -22.4090    6.4065 H         1 UNK         0.0832 
    147 H147      -47.3993  -22.4495    8.3973 H         1 UNK         0.3156 
    148 H148      -48.3020  -23.2231   11.6113 H         1 UNK         0.0589 
    149 H149      -49.2595  -20.5509   10.4595 H         1 UNK         0.0808 
    150 H150      -50.1293  -21.5359   11.6364 H         1 UNK         0.0808 
    151 H151      -48.6007  -20.7970   12.0705 H         1 UNK         0.0808 
    152 H152      -50.0363  -22.7214    9.4691 H         1 UNK         0.3098 
    153 H153      -50.9213  -24.7548    8.5289 H         1 UNK         0.0720 
    154 H154      -50.5613  -24.2887    6.0757 H         1 UNK         0.0791 
    155 H155      -48.8441  -24.0329    6.3652 H         1 UNK         0.0791 
    156 H156      -50.0331  -22.9208    7.0346 H         1 UNK         0.0791 
    157 H157      -48.7289  -26.5460    7.9949 H         1 UNK         0.3028 
@<TRIPOS>BOND
     1    1    2 1    
     2    1   82 1    
     3    1   83 1    
     4    1   84 1    
     5    2    3 2    
     6    2    4 am   BACKBONE|DICT|INTERRES
     7    4    5 1    
     8    4   85 1    
     9    5    6 1    
    10    5   80 1    
    11    5   86 1    
    12    6    7 1    
    13    6   87 1    
    14    6   88 1    
    15    7    8 1    
    16    8    9 1    
    17    8   89 1    
    18    8   90 1    
    19    9   10 ar   
    20    9   14 ar   
    21   10   11 ar   
    22   10   91 1    
    23   11   12 ar   
    24   11   58 1    
    25   12   13 ar   
    26   12   92 1    
    27   13   14 ar   
    28   13   15 1    
    29   14   93 1    
    30   15   16 1    
    31   15   94 1    
    32   15   95 1    
    33   16   17 1    
    34   17   18 1    
    35   17   96 1    
    36   17   97 1    
    37   18   19 1    
    38   18   22 1    
    39   18   98 1    
    40   19   20 am   BACKBONE|DICT|INTERRES
    41   19   21 2    
    42   20   99 1    
    43   20  100 1    
    44   22   23 am   BACKBONE|DICT|INTERRES
    45   22  101 1    
    46   23   24 2    
    47   23   25 1    
    48   25   26 1    
    49   25   27 1    
    50   25  102 1    
    51   26  103 1    
    52   26  104 1    
    53   26  105 1    
    54   27   28 am   BACKBONE|DICT|INTERRES
    55   27  106 1    
    56   28   29 2    
    57   28   30 1    
    58   30   31 1    
    59   30   32 1    
    60   30  107 1    
    61   31  108 1    
    62   31  109 1    
    63   31  110 1    
    64   32   33 am   BACKBONE|DICT|INTERRES
    65   32  111 1    
    66   33   34 2    
    67   33   35 1    
    68   35   36 1    
    69   35   37 1    
    70   35  112 1    
    71   36  113 1    
    72   36  114 1    
    73   36  115 1    
    74   37   38 am   BACKBONE|DICT|INTERRES
    75   37  116 1    
    76   38   39 2    
    77   38   40 1    
    78   40   41 1    
    79   40   42 1    
    80   40  117 1    
    81   41  118 1    
    82   41  119 1    
    83   41  120 1    
    84   42   43 am   BACKBONE|DICT|INTERRES
    85   42  121 1    
    86   43   44 2    
    87   43   45 1    
    88   45   46 1    
    89   45   47 1    
    90   45  122 1    
    91   46  123 1    
    92   46  124 1    
    93   46  125 1    
    94   47   48 am   BACKBONE|DICT|INTERRES
    95   47  126 1    
    96   48   49 2    
    97   48   50 1    
    98   50   51 1    
    99   50   52 1    
   100   50  127 1    
   101   51  128 1    
   102   51  129 1    
   103   51  130 1    
   104   52   53 am   BACKBONE|DICT|INTERRES
   105   52  131 1    
   106   53   54 2    
   107   53   55 1    
   108   55   56 1    
   109   55   59 1    
   110   55  132 1    
   111   56   57 1    
   112   56  133 1    
   113   56  134 1    
   114   57   58 1    
   115   58  135 1    
   116   58  136 1    
   117   59   60 am   BACKBONE|DICT|INTERRES
   118   59  137 1    
   119   60   61 2    
   120   60   62 1    
   121   62   63 1    
   122   62   64 1    
   123   62  138 1    
   124   63  139 1    
   125   63  140 1    
   126   63  141 1    
   127   64   65 am   BACKBONE|DICT|INTERRES
   128   64  142 1    
   129   65   66 2    
   130   65   67 1    
   131   67   68 1    
   132   67   69 1    
   133   67  143 1    
   134   68  144 1    
   135   68  145 1    
   136   68  146 1    
   137   69   70 am   BACKBONE|DICT|INTERRES
   138   69  147 1    
   139   70   71 2    
   140   70   72 1    
   141   72   73 1    
   142   72   74 1    
   143   72  148 1    
   144   73  149 1    
   145   73  150 1    
   146   73  151 1    
   147   74   75 am   BACKBONE|DICT|INTERRES
   148   74  152 1    
   149   75   76 2    
   150   75   77 1    
   151   77   78 1    
   152   77   79 1    
   153   77  153 1    
   154   78  154 1    
   155   78  155 1    
   156   78  156 1    
   157   79   80 am   BACKBONE|DICT|INTERRES
   158   79  157 1    
   159   80   81 2    
@<TRIPOS>SUBSTRUCTURE
     1 UNK         1 GROUP             0       ****    0 ROOT    
