@<TRIPOS>MOLECULE
3R207
157   159    1
SMALL
USER_CHARGES


@<TRIPOS>ATOM
      1 CA        -51.8565  -24.1828    8.7924 C.3       0 UNK        -0.1975 
      2 C         -50.7955  -25.1082    8.2161 C.2       0 UNK         0.4852 
      3 O         -49.6544  -25.0859    8.6755 O.2       0 UNK        -0.5216 
      4 N         -51.1621  -25.9399    7.2330 N.am      1 UNK        -0.4461 
      5 CA        -50.2556  -26.8756    6.5608 C.3       1 UNK         0.0864 
      6 C6        -51.0162  -27.9364    5.7277 C.3       14 UNK        -0.0898 
      7 S7        -52.1444  -28.9407    6.7492 S.3       14 UNK        -0.2598 
      8 C8        -51.1192  -30.3960    7.1376 C.3       14 UNK         0.0286 
      9 C9        -51.1356  -30.6761    8.6315 C.ar      14 UNK        -0.0844 
     10 C10       -50.0745  -30.2591    9.4421 C.ar      14 UNK        -0.0881 
     11 C11       -50.1065  -30.4698   10.8287 C.ar      14 UNK        -0.0643 
     12 C12       -51.2085  -31.1345   11.3819 C.ar      14 UNK        -0.0930 
     13 C13       -52.2682  -31.5685   10.5814 C.ar      14 UNK        -0.0827 
     14 C14       -52.2258  -31.3350    9.2054 C.ar      14 UNK        -0.1249 
     15 C15       -53.4532  -32.2989   11.1978 C.3       14 UNK         0.0141 
     16 S16       -54.7330  -31.1394   11.7803 S.3       14 UNK        -0.2313 
     17 C17       -54.7250  -31.4567   13.5783 C.3       14 UNK        -0.0915 
     18 CA        -55.9705  -30.8821   14.3114 C.3       13 UNK         0.0968 
     19 C         -55.9770  -31.2693   15.8203 C.2       13 UNK         0.5732 
     20 N         -56.1175  -30.3388   16.7592 N.am      13 UNK        -0.7310 
     21 O         -55.8681  -32.4482   16.1500 O.2       13 UNK        -0.5035 
     22 N         -56.1328  -29.4387   14.0812 N.am      13 UNK        -0.4233 
     23 C         -57.3088  -28.8032   14.0281 C.2       13 UNK         0.4989 
     24 O         -58.3964  -29.3793   14.1030 O.2       13 UNK        -0.4996 
     25 CA        -57.2660  -27.2716   13.8544 C.3       12 UNK         0.0216 
     26 CB        -58.6162  -26.5933   14.1723 C.3       12 UNK        -0.1964 
     27 N         -56.1773  -26.6107   14.5865 N.am      12 UNK        -0.4276 
     28 C         -55.9612  -26.6103   15.9117 C.2       12 UNK         0.5020 
     29 O         -56.6422  -27.2649   16.7034 O.2       12 UNK        -0.5489 
     30 CA        -54.7959  -25.7555   16.4632 C.3       11 UNK         0.0294 
     31 CB        -53.9804  -26.5368   17.5084 C.3       11 UNK        -0.2019 
     32 N         -53.8844  -25.2580   15.4280 N.am      11 UNK        -0.4493 
     33 C         -54.0728  -24.1659   14.6735 C.2       11 UNK         0.4932 
     34 O         -55.0018  -23.3751   14.8344 O.2       11 UNK        -0.5029 
     35 CA        -53.1049  -23.9670   13.4884 C.3       10 UNK         0.0280 
     36 CB        -51.8730  -23.1470   13.9020 C.3       10 UNK        -0.1976 
     37 N         -52.6796  -25.2381   12.8911 N.am      10 UNK        -0.4242 
     38 C         -53.5153  -26.1166   12.3157 C.2       10 UNK         0.5072 
     39 O         -54.7111  -25.8967   12.1260 O.2       10 UNK        -0.5224 
     40 CA        -52.9442  -27.4938   11.9560 C.3       9 UNK         0.0343 
     41 CB        -52.2993  -27.4562   10.5657 C.3       9 UNK        -0.2003 
     42 N         -51.9923  -27.9705   12.9670 N.am      9 UNK        -0.4272 
     43 C         -52.3644  -28.4075   14.1807 C.2       9 UNK         0.4988 
     44 O         -53.5388  -28.4975   14.5298 O.2       9 UNK        -0.5108 
     45 CA        -51.2677  -28.7485   15.2072 C.3       8 UNK         0.0248 
     46 CB        -50.8914  -30.2378   15.1891 C.3       8 UNK        -0.2001 
     47 N         -50.0689  -27.9213   15.0704 N.am      8 UNK        -0.4140 
     48 C         -50.0423  -26.6151   15.3642 C.2       8 UNK         0.5028 
     49 O         -51.0118  -25.9946   15.7997 O.2       8 UNK        -0.5428 
     50 CA        -48.7308  -25.8670   15.0789 C.3       7 UNK         0.0264 
     51 CB        -47.7406  -26.0487   16.2403 C.3       7 UNK        -0.1988 
     52 N         -48.0825  -26.2381   13.8141 N.am      7 UNK        -0.4454 
     53 C         -48.6550  -26.1547   12.6046 C.2       7 UNK         0.5027 
     54 O         -49.8444  -25.8794   12.4276 O.2       7 UNK        -0.5083 
     55 CA        -47.7456  -26.3866   11.3823 C.3       6 UNK         0.0844 
     56 C56       -48.2245  -27.5700   10.5012 C.3       14 UNK        -0.0967 
     57 S57       -47.5485  -29.1791   11.0304 S.3       14 UNK        -0.2604 
     58 C58       -49.0037  -29.9910   11.7798 C.3       14 UNK         0.0134 
     59 N         -47.6837  -25.1501   10.6064 N.am      6 UNK        -0.4116 
     60 C         -47.0437  -24.0345   10.9740 C.2       5 UNK         0.5034 
     61 O         -46.3489  -23.9458   11.9884 O.2       5 UNK        -0.5045 
     62 CA        -47.2115  -22.8269   10.0377 C.3       5 UNK         0.0224 
     63 CB        -47.4952  -21.5182   10.8045 C.3       5 UNK        -0.1978 
     64 N         -46.0745  -22.6996    9.1185 N.am      5 UNK        -0.4737 
     65 C         -44.8055  -22.3478    9.3873 C.2       4 UNK         0.5027 
     66 O         -44.4024  -21.9967   10.4959 O.2       4 UNK        -0.5211 
     67 CA        -43.7894  -22.3911    8.2250 C.3       4 UNK         0.0297 
     68 CB        -42.8064  -23.5585    8.4174 C.3       4 UNK        -0.1993 
     69 N         -44.4023  -22.5090    6.9000 N.am      4 UNK        -0.4486 
     70 C         -45.0918  -21.5461    6.2729 C.2       3 UNK         0.4961 
     71 O         -45.1913  -20.3932    6.6936 O.2       3 UNK        -0.5105 
     72 CA        -45.8166  -21.9369    4.9677 C.3       3 UNK         0.0299 
     73 CB        -45.0470  -21.4018    3.7489 C.3       3 UNK        -0.1972 
     74 N         -46.0529  -23.3784    4.7912 N.am      3 UNK        -0.4305 
     75 C         -46.7568  -24.1635    5.6197 C.2       2 UNK         0.5006 
     76 O         -47.2490  -23.7702    6.6793 O.2       2 UNK        -0.5106 
     77 CA        -46.8508  -25.6494    5.2288 C.3       2 UNK         0.0296 
     78 CB        -45.5386  -26.3741    5.5767 C.3       2 UNK        -0.2002 
     79 N         -47.9550  -26.3352    5.9038 N.am      2 UNK        -0.4032 
     80 C         -49.2550  -26.1047    5.6767 C.2       1 UNK         0.5000 
     81 O         -49.6789  -25.3415    4.8036 O.2       1 UNK        -0.5238 
     82 H82       -52.8476  -24.4030    8.3964 H         1 UNK         0.0889 
     83 H83       -51.6154  -23.1466    8.5575 H         1 UNK         0.0889 
     84 H84       -51.8943  -24.2860    9.8769 H         1 UNK         0.0889 
     85 H85       -52.1080  -25.9204    6.8808 H         1 UNK         0.3028 
     86 H86       -49.6968  -27.4035    7.3371 H         1 UNK         0.0864 
     87 H87       -50.3213  -28.5946    5.2029 H         1 UNK         0.0720 
     88 H88       -51.6120  -27.4534    4.9506 H         1 UNK         0.0720 
     89 H89       -51.5025  -31.2596    6.5922 H         1 UNK         0.0814 
     90 H90       -50.0934  -30.2516    6.7962 H         1 UNK         0.0814 
     91 H91       -49.2396  -29.7521    8.9825 H         1 UNK         0.1469 
     92 H92       -51.2534  -31.3148   12.4452 H         1 UNK         0.1381 
     93 H93       -53.0483  -31.6546    8.5800 H         1 UNK         0.1206 
     94 H94       -53.1092  -32.9363   12.0134 H         1 UNK         0.0813 
     95 H95       -53.9003  -32.9704   10.4634 H         1 UNK         0.0813 
     96 H96       -54.6768  -32.5369   13.7265 H         1 UNK         0.0638 
     97 H97       -53.8051  -31.0515   13.9970 H         1 UNK         0.0638 
     98 H98       -56.8386  -31.3887   13.8859 H         1 UNK         0.0568 
     99 H99       -56.2397  -29.3630   16.5177 H         1 UNK         0.3450 
    100 H100      -56.1254  -30.6182   17.7267 H         1 UNK         0.3450 
    101 H101      -55.2667  -28.9042   14.0926 H         1 UNK         0.2987 
    102 H102      -57.0607  -27.1036   12.7964 H         1 UNK         0.0766 
    103 H103      -58.5679  -25.5171   14.0062 H         1 UNK         0.0798 
    104 H104      -59.4113  -26.9817   13.5346 H         1 UNK         0.0798 
    105 H105      -58.9179  -26.7601   15.2070 H         1 UNK         0.0798 
    106 H106      -55.5309  -26.0960   13.9981 H         1 UNK         0.3198 
    107 H107      -55.2467  -24.8978   16.9666 H         1 UNK         0.0843 
    108 H108      -53.5870  -27.4654   17.0961 H         1 UNK         0.0831 
    109 H109      -54.5962  -26.8008   18.3690 H         1 UNK         0.0831 
    110 H110      -53.1397  -25.9506   17.8801 H         1 UNK         0.0831 
    111 H111      -53.0408  -25.8012   15.2754 H         1 UNK         0.3133 
    112 H112      -53.6381  -23.4067   12.7176 H         1 UNK         0.0566 
    113 H113      -51.3019  -23.6387   14.6888 H         1 UNK         0.0814 
    114 H114      -52.1684  -22.1674   14.2800 H         1 UNK         0.0814 
    115 H115      -51.2039  -22.9814   13.0571 H         1 UNK         0.0814 
    116 H116      -51.6934  -25.4768   12.9545 H         1 UNK         0.3091 
    117 H117      -53.7784  -28.1976   11.9135 H         1 UNK         0.0702 
    118 H118      -51.9845  -28.4476   10.2517 H         1 UNK         0.0785 
    119 H119      -51.4364  -26.7944   10.5373 H         1 UNK         0.0785 
    120 H120      -53.0077  -27.1003    9.8166 H         1 UNK         0.0785 
    121 H121      -51.0129  -27.8254   12.7713 H         1 UNK         0.2998 
    122 H122      -51.6929  -28.5459   16.1921 H         1 UNK         0.0697 
    123 H123      -50.3168  -30.5098   14.3076 H         1 UNK         0.0825 
    124 H124      -51.7791  -30.8702   15.2170 H         1 UNK         0.0825 
    125 H125      -50.2910  -30.4966   16.0615 H         1 UNK         0.0825 
    126 H126      -49.2250  -28.3616   14.7349 H         1 UNK         0.3029 
    127 H127      -48.9788  -24.8056   15.0104 H         1 UNK         0.0897 
    128 H128      -46.8571  -25.4233   16.1101 H         1 UNK         0.0792 
    129 H129      -48.1970  -25.7652   17.1900 H         1 UNK         0.0792 
    130 H130      -47.4094  -27.0837   16.3339 H         1 UNK         0.0792 
    131 H131      -47.0966  -26.4537   13.8623 H         1 UNK         0.3086 
    132 H132      -46.7307  -26.5982   11.7264 H         1 UNK         0.0583 
    133 H133      -49.3110  -27.6113   10.4251 H         1 UNK         0.1020 
    134 H134      -47.8766  -27.4269    9.4770 H         1 UNK         0.1020 
    135 H135      -48.6449  -30.8500   12.3486 H         1 UNK         0.0694 
    136 H136      -49.4369  -29.3003   12.5013 H         1 UNK         0.0694 
    137 H137      -48.3107  -25.1083    9.8017 H         1 UNK         0.2989 
    138 H138      -48.0806  -23.0134    9.4040 H         1 UNK         0.1055 
    139 H139      -47.6220  -20.6784   10.1213 H         1 UNK         0.0806 
    140 H140      -46.6969  -21.2656   11.5026 H         1 UNK         0.0806 
    141 H141      -48.4132  -21.6058   11.3868 H         1 UNK         0.0806 
    142 H142      -46.2878  -22.9918    8.1675 H         1 UNK         0.3061 
    143 H143      -43.2231  -21.4577    8.2549 H         1 UNK         0.0734 
    144 H144      -42.2962  -23.4846    9.3790 H         1 UNK         0.0832 
    145 H145      -43.3149  -24.5232    8.3933 H         1 UNK         0.0832 
    146 H146      -42.0364  -23.5627    7.6456 H         1 UNK         0.0832 
    147 H147      -44.3704  -23.4197    6.4666 H         1 UNK         0.3156 
    148 H148      -46.7945  -21.4518    4.9919 H         1 UNK         0.0589 
    149 H149      -44.0684  -21.8734    3.6505 H         1 UNK         0.0808 
    150 H150      -45.5980  -21.5712    2.8236 H         1 UNK         0.0808 
    151 H151      -44.8827  -20.3262    3.8311 H         1 UNK         0.0808 
    152 H152      -45.6649  -23.7921    3.9549 H         1 UNK         0.3098 
    153 H153      -47.0180  -25.7137    4.1514 H         1 UNK         0.0720 
    154 H154      -45.5773  -27.4247    5.2875 H         1 UNK         0.0791 
    155 H155      -44.6897  -25.9316    5.0538 H         1 UNK         0.0791 
    156 H156      -45.3229  -26.3288    6.6454 H         1 UNK         0.0791 
    157 H157      -47.6977  -26.9510    6.6601 H         1 UNK         0.3028 
@<TRIPOS>BOND
     1    1    2 1    
     2    1   82 1    
     3    1   83 1    
     4    1   84 1    
     5    2    3 2    
     6    2    4 am   BACKBONE|DICT|INTERRES
     7    4    5 1    
     8    4   85 1    
     9    5    6 1    
    10    5   80 1    
    11    5   86 1    
    12    6    7 1    
    13    6   87 1    
    14    6   88 1    
    15    7    8 1    
    16    8    9 1    
    17    8   89 1    
    18    8   90 1    
    19    9   10 ar   
    20    9   14 ar   
    21   10   11 ar   
    22   10   91 1    
    23   11   12 ar   
    24   11   58 1    
    25   12   13 ar   
    26   12   92 1    
    27   13   14 ar   
    28   13   15 1    
    29   14   93 1    
    30   15   16 1    
    31   15   94 1    
    32   15   95 1    
    33   16   17 1    
    34   17   18 1    
    35   17   96 1    
    36   17   97 1    
    37   18   19 1    
    38   18   22 1    
    39   18   98 1    
    40   19   20 am   BACKBONE|DICT|INTERRES
    41   19   21 2    
    42   20   99 1    
    43   20  100 1    
    44   22   23 am   BACKBONE|DICT|INTERRES
    45   22  101 1    
    46   23   24 2    
    47   23   25 1    
    48   25   26 1    
    49   25   27 1    
    50   25  102 1    
    51   26  103 1    
    52   26  104 1    
    53   26  105 1    
    54   27   28 am   BACKBONE|DICT|INTERRES
    55   27  106 1    
    56   28   29 2    
    57   28   30 1    
    58   30   31 1    
    59   30   32 1    
    60   30  107 1    
    61   31  108 1    
    62   31  109 1    
    63   31  110 1    
    64   32   33 am   BACKBONE|DICT|INTERRES
    65   32  111 1    
    66   33   34 2    
    67   33   35 1    
    68   35   36 1    
    69   35   37 1    
    70   35  112 1    
    71   36  113 1    
    72   36  114 1    
    73   36  115 1    
    74   37   38 am   BACKBONE|DICT|INTERRES
    75   37  116 1    
    76   38   39 2    
    77   38   40 1    
    78   40   41 1    
    79   40   42 1    
    80   40  117 1    
    81   41  118 1    
    82   41  119 1    
    83   41  120 1    
    84   42   43 am   BACKBONE|DICT|INTERRES
    85   42  121 1    
    86   43   44 2    
    87   43   45 1    
    88   45   46 1    
    89   45   47 1    
    90   45  122 1    
    91   46  123 1    
    92   46  124 1    
    93   46  125 1    
    94   47   48 am   BACKBONE|DICT|INTERRES
    95   47  126 1    
    96   48   49 2    
    97   48   50 1    
    98   50   51 1    
    99   50   52 1    
   100   50  127 1    
   101   51  128 1    
   102   51  129 1    
   103   51  130 1    
   104   52   53 am   BACKBONE|DICT|INTERRES
   105   52  131 1    
   106   53   54 2    
   107   53   55 1    
   108   55   56 1    
   109   55   59 1    
   110   55  132 1    
   111   56   57 1    
   112   56  133 1    
   113   56  134 1    
   114   57   58 1    
   115   58  135 1    
   116   58  136 1    
   117   59   60 am   BACKBONE|DICT|INTERRES
   118   59  137 1    
   119   60   61 2    
   120   60   62 1    
   121   62   63 1    
   122   62   64 1    
   123   62  138 1    
   124   63  139 1    
   125   63  140 1    
   126   63  141 1    
   127   64   65 am   BACKBONE|DICT|INTERRES
   128   64  142 1    
   129   65   66 2    
   130   65   67 1    
   131   67   68 1    
   132   67   69 1    
   133   67  143 1    
   134   68  144 1    
   135   68  145 1    
   136   68  146 1    
   137   69   70 am   BACKBONE|DICT|INTERRES
   138   69  147 1    
   139   70   71 2    
   140   70   72 1    
   141   72   73 1    
   142   72   74 1    
   143   72  148 1    
   144   73  149 1    
   145   73  150 1    
   146   73  151 1    
   147   74   75 am   BACKBONE|DICT|INTERRES
   148   74  152 1    
   149   75   76 2    
   150   75   77 1    
   151   77   78 1    
   152   77   79 1    
   153   77  153 1    
   154   78  154 1    
   155   78  155 1    
   156   78  156 1    
   157   79   80 am   BACKBONE|DICT|INTERRES
   158   79  157 1    
   159   80   81 2    
@<TRIPOS>SUBSTRUCTURE
     1 UNK         1 GROUP             0       ****    0 ROOT    
