@<TRIPOS>MOLECULE
3R207
157   159    1
SMALL
USER_CHARGES


@<TRIPOS>ATOM
      1 CA        -47.9010  -31.7416    9.6211 C.3       0 UNK        -0.1975 
      2 C         -48.1961  -30.4455    8.8832 C.2       0 UNK         0.4852 
      3 O         -48.0579  -29.3709    9.4642 O.2       0 UNK        -0.5216 
      4 N         -48.5726  -30.5359    7.5995 N.am      1 UNK        -0.4461 
      5 CA        -49.0320  -29.4563    6.7023 C.3       1 UNK         0.0864 
      6 C6        -50.3351  -28.7671    7.1844 C.3       14 UNK        -0.0898 
      7 S7        -51.6810  -29.9809    7.4337 S.3       14 UNK        -0.2598 
      8 C8        -53.1460  -29.0766    6.8493 C.3       14 UNK         0.0286 
      9 C9        -53.5657  -27.9936    7.8309 C.ar      14 UNK        -0.0844 
     10 C10       -53.2192  -26.6613    7.5990 C.ar      14 UNK        -0.0881 
     11 C11       -53.6077  -25.6584    8.4918 C.ar      14 UNK        -0.0643 
     12 C12       -54.3587  -25.9966    9.6234 C.ar      14 UNK        -0.0930 
     13 C13       -54.7244  -27.3267    9.8594 C.ar      14 UNK        -0.0827 
     14 C14       -54.3181  -28.3202    8.9627 C.ar      14 UNK        -0.1249 
     15 C15       -55.5586  -27.6987   11.0777 C.3       14 UNK         0.0141 
     16 S16       -57.2590  -28.1379   10.5951 S.3       14 UNK        -0.2313 
     17 C17       -58.2286  -28.3356   12.1382 C.3       14 UNK        -0.0915 
     18 CA        -57.4900  -28.3753   13.5063 C.3       13 UNK         0.0968 
     19 C         -58.5279  -28.3199   14.6678 C.2       13 UNK         0.5732 
     20 N         -58.7609  -29.3982   15.4070 N.am      13 UNK        -0.7310 
     21 O         -59.1326  -27.2758   14.8994 O.2       13 UNK        -0.5035 
     22 N         -56.5350  -29.4939   13.5874 N.am      13 UNK        -0.4233 
     23 C         -55.6003  -29.6285   14.5393 C.2       13 UNK         0.4989 
     24 O         -55.4779  -28.8507   15.4878 O.2       13 UNK        -0.4996 
     25 CA        -54.6319  -30.8185   14.4269 C.3       12 UNK         0.0216 
     26 CB        -54.6659  -31.5483   13.0669 C.3       12 UNK        -0.1964 
     27 N         -53.2814  -30.3240   14.6763 N.am      12 UNK        -0.4276 
     28 C         -52.3206  -30.9507   15.3667 C.2       12 UNK         0.5020 
     29 O         -52.4705  -32.0616   15.8802 O.2       12 UNK        -0.5489 
     30 CA        -50.9697  -30.2133   15.5243 C.3       11 UNK         0.0294 
     31 CB        -49.7793  -31.1740   15.7300 C.3       11 UNK        -0.2019 
     32 N         -50.6976  -29.2554   14.4452 N.am      11 UNK        -0.4493 
     33 C         -50.5726  -29.5220   13.1331 C.2       11 UNK         0.4932 
     34 O         -50.4958  -30.6622   12.6729 O.2       11 UNK        -0.5029 
     35 CA        -50.5720  -28.3146   12.1677 C.3       10 UNK         0.0280 
     36 CB        -51.2537  -28.6526   10.8285 C.3       10 UNK        -0.1976 
     37 N         -51.1635  -27.0939   12.7334 N.am      10 UNK        -0.4242 
     38 C         -52.4091  -26.9523   13.2156 C.2       10 UNK         0.5072 
     39 O         -53.2364  -27.8616   13.2202 O.2       10 UNK        -0.5224 
     40 CA        -52.7719  -25.6008   13.8614 C.3       9 UNK         0.0343 
     41 CB        -53.9493  -25.7185   14.8514 C.3       9 UNK        -0.2003 
     42 N         -51.6353  -24.9295   14.5038 N.am      9 UNK        -0.4272 
     43 C         -50.8063  -25.4250   15.4396 C.2       9 UNK         0.4988 
     44 O         -50.9142  -26.5592   15.9107 O.2       9 UNK        -0.5108 
     45 CA        -49.6296  -24.5314   15.8826 C.3       8 UNK         0.0248 
     46 CB        -48.3433  -25.3556   16.0777 C.3       8 UNK        -0.2001 
     47 N         -49.3653  -23.4838   14.8939 N.am      8 UNK        -0.4140 
     48 C         -49.6625  -22.1837   15.0262 C.2       8 UNK         0.5028 
     49 O         -50.0968  -21.6811   16.0630 O.2       8 UNK        -0.5428 
     50 CA        -49.4812  -21.2942   13.7788 C.3       7 UNK         0.0264 
     51 CB        -48.1394  -20.5483   13.8439 C.3       7 UNK        -0.1988 
     52 N         -49.5723  -22.0356   12.5129 N.am      7 UNK        -0.4454 
     53 C         -50.6906  -22.6406   12.0745 C.2       7 UNK         0.5027 
     54 O         -51.7692  -22.5505   12.6609 O.2       7 UNK        -0.5083 
     55 CA        -50.6067  -23.5543   10.8287 C.3       6 UNK         0.0844 
     56 C56       -51.1815  -22.8238    9.5935 C.3       14 UNK        -0.0967 
     57 S57       -51.4418  -23.9499    8.1828 S.3       14 UNK        -0.2604 
     58 C58       -53.2468  -24.2097    8.1983 C.3       14 UNK         0.0134 
     59 N         -49.2601  -24.0884   10.5870 N.am      6 UNK        -0.4116 
     60 C         -48.5540  -24.8260   11.4590 C.2       5 UNK         0.5034 
     61 O         -49.0159  -25.2311   12.5267 O.2       5 UNK        -0.5045 
     62 CA        -47.0701  -25.0996   11.1452 C.3       5 UNK         0.0224 
     63 CB        -46.8988  -26.5213   10.5948 C.3       5 UNK        -0.1978 
     64 N         -46.4527  -24.1449   10.2170 N.am      5 UNK        -0.4737 
     65 C         -46.4261  -22.8108   10.3627 C.2       4 UNK         0.5027 
     66 O         -46.8495  -22.2292   11.3612 O.2       4 UNK        -0.5211 
     67 CA        -45.9130  -21.9760    9.1741 C.3       4 UNK         0.0297 
     68 CB        -44.4707  -21.5125    9.4301 C.3       4 UNK        -0.1993 
     69 N         -45.9759  -22.6665    7.8809 N.am      4 UNK        -0.4486 
     70 C         -47.0745  -23.1869    7.3130 C.2       3 UNK         0.4961 
     71 O         -48.2002  -23.0993    7.8015 O.2       3 UNK        -0.5105 
     72 CA        -46.8759  -23.9686    5.9997 C.3       3 UNK         0.0299 
     73 CB        -45.7422  -23.3904    5.1249 C.3       3 UNK        -0.1972 
     74 N         -46.6723  -25.4129    6.1911 N.am      3 UNK        -0.4305 
     75 C         -45.7978  -26.0311    6.9994 C.2       2 UNK         0.5006 
     76 O         -45.1053  -25.4550    7.8404 O.2       2 UNK        -0.5106 
     77 CA        -45.6569  -27.5538    6.8169 C.3       2 UNK         0.0296 
     78 CB        -44.5160  -28.1510    7.6630 C.3       2 UNK        -0.2002 
     79 N         -46.8863  -28.2877    7.1130 N.am      2 UNK        -0.4032 
     80 C         -47.9455  -28.4252    6.3075 C.2       1 UNK         0.5000 
     81 O         -48.0613  -27.8063    5.2471 O.2       1 UNK        -0.5238 
     82 H82       -48.1145  -32.6185    9.0072 H         1 UNK         0.0889 
     83 H83       -48.5124  -31.8012   10.5239 H         1 UNK         0.0889 
     84 H84       -46.8504  -31.7754    9.9158 H         1 UNK         0.0889 
     85 H85       -48.6203  -31.4567    7.1861 H         1 UNK         0.3028 
     86 H86       -49.2751  -29.9646    5.7679 H         1 UNK         0.0864 
     87 H87       -50.6606  -28.0252    6.4535 H         1 UNK         0.0720 
     88 H88       -50.1671  -28.2234    8.1143 H         1 UNK         0.0720 
     89 H89       -53.9662  -29.7843    6.7213 H         1 UNK         0.0814 
     90 H90       -52.9525  -28.6569    5.8610 H         1 UNK         0.0814 
     91 H91       -52.6441  -26.3989    6.7216 H         1 UNK         0.1469 
     92 H92       -54.6715  -25.2238   10.3117 H         1 UNK         0.1381 
     93 H93       -54.5936  -29.3501    9.1442 H         1 UNK         0.1206 
     94 H94       -55.5712  -26.8782   11.7957 H         1 UNK         0.0813 
     95 H95       -55.0895  -28.5492   11.5694 H         1 UNK         0.0813 
     96 H96       -58.9457  -27.5128   12.1350 H         1 UNK         0.0638 
     97 H97       -58.8283  -29.2399   12.0232 H         1 UNK         0.0638 
     98 H98       -56.9108  -27.4560   13.5990 H         1 UNK         0.0568 
     99 H99       -58.2709  -30.2589   15.2260 H         1 UNK         0.3450 
    100 H100      -59.4327  -29.3468   16.1563 H         1 UNK         0.3450 
    101 H101      -56.5844  -30.1772   12.8471 H         1 UNK         0.2987 
    102 H102      -54.9154  -31.5233   15.2108 H         1 UNK         0.0766 
    103 H103      -55.6437  -31.9894   12.8709 H         1 UNK         0.0798 
    104 H104      -53.9433  -32.3644   13.0463 H         1 UNK         0.0798 
    105 H105      -54.4220  -30.8781   12.2413 H         1 UNK         0.0798 
    106 H106      -53.1007  -29.3948   14.2970 H         1 UNK         0.3198 
    107 H107      -51.0661  -29.6138   16.4309 H         1 UNK         0.0843 
    108 H108      -48.8430  -30.6279   15.8420 H         1 UNK         0.0831 
    109 H109      -49.6678  -31.8666   14.8955 H         1 UNK         0.0831 
    110 H110      -49.9128  -31.7736   16.6310 H         1 UNK         0.0831 
    111 H111      -50.7492  -28.2802   14.7253 H         1 UNK         0.3133 
    112 H112      -49.5268  -28.0830   11.9623 H         1 UNK         0.0566 
    113 H113      -51.2874  -27.7867   10.1675 H         1 UNK         0.0814 
    114 H114      -52.2766  -29.0007   10.9720 H         1 UNK         0.0814 
    115 H115      -50.7166  -29.4432   10.3053 H         1 UNK         0.0814 
    116 H116      -50.5228  -26.3064   12.8015 H         1 UNK         0.3091 
    117 H117      -53.0912  -24.9548   13.0427 H         1 UNK         0.0702 
    118 H118      -53.7189  -26.4005   15.6709 H         1 UNK         0.0785 
    119 H119      -54.8431  -26.1002   14.3565 H         1 UNK         0.0785 
    120 H120      -54.2068  -24.7505   15.2807 H         1 UNK         0.0785 
    121 H121      -51.4654  -23.9871   14.1726 H         1 UNK         0.2998 
    122 H122      -49.9047  -24.0905   16.8426 H         1 UNK         0.0697 
    123 H123      -48.0559  -25.8753   15.1626 H         1 UNK         0.0825 
    124 H124      -48.4721  -26.1096   16.8554 H         1 UNK         0.0825 
    125 H125      -47.5092  -24.7222   16.3797 H         1 UNK         0.0825 
    126 H126      -49.0405  -23.8182   13.9927 H         1 UNK         0.3029 
    127 H127      -50.2833  -20.5529   13.7885 H         1 UNK         0.0897 
    128 H128      -47.2950  -21.2385   13.8635 H         1 UNK         0.0792 
    129 H129      -48.0781  -19.9335   14.7430 H         1 UNK         0.0792 
    130 H130      -48.0102  -19.8855   12.9881 H         1 UNK         0.0792 
    131 H131      -48.7035  -22.1481   11.9949 H         1 UNK         0.3086 
    132 H132      -51.2499  -24.4122   11.0373 H         1 UNK         0.0583 
    133 H133      -52.1202  -22.3213    9.8333 H         1 UNK         0.1020 
    134 H134      -50.5005  -22.0330    9.2728 H         1 UNK         0.1020 
    135 H135      -53.7338  -23.5414    8.9084 H         1 UNK         0.0694 
    136 H136      -53.6420  -23.9429    7.2176 H         1 UNK         0.0694 
    137 H137      -48.8222  -23.8086    9.7152 H         1 UNK         0.2989 
    138 H138      -46.5280  -25.0278   12.0903 H         1 UNK         0.1055 
    139 H139      -47.4187  -26.6498    9.6447 H         1 UNK         0.0806 
    140 H140      -45.8476  -26.7628   10.4403 H         1 UNK         0.0806 
    141 H141      -47.2999  -27.2628   11.2869 H         1 UNK         0.0806 
    142 H142      -46.0531  -24.5322    9.3664 H         1 UNK         0.3061 
    143 H143      -46.5516  -21.0933    9.1029 H         1 UNK         0.0734 
    144 H144      -43.7801  -22.3553    9.4819 H         1 UNK         0.0832 
    145 H145      -44.1236  -20.8387    8.6467 H         1 UNK         0.0832 
    146 H146      -44.3967  -20.9723   10.3752 H         1 UNK         0.0832 
    147 H147      -45.0916  -22.8527    7.4300 H         1 UNK         0.3156 
    148 H148      -47.8064  -23.8624    5.4398 H         1 UNK         0.0589 
    149 H149      -45.7532  -23.8363    4.1303 H         1 UNK         0.0808 
    150 H150      -45.8559  -22.3134    4.9922 H         1 UNK         0.0808 
    151 H151      -44.7546  -23.5703    5.5509 H         1 UNK         0.0808 
    152 H152      -47.2383  -26.0179    5.6022 H         1 UNK         0.3098 
    153 H153      -45.4026  -27.7209    5.7680 H         1 UNK         0.0720 
    154 H154      -43.5695  -27.6498    7.4556 H         1 UNK         0.0791 
    155 H155      -44.3735  -29.2095    7.4445 H         1 UNK         0.0791 
    156 H156      -44.7103  -28.0539    8.7313 H         1 UNK         0.0791 
    157 H157      -46.9461  -28.7459    8.0175 H         1 UNK         0.3028 
@<TRIPOS>BOND
     1    1    2 1    
     2    1   82 1    
     3    1   83 1    
     4    1   84 1    
     5    2    3 2    
     6    2    4 am   BACKBONE|DICT|INTERRES
     7    4    5 1    
     8    4   85 1    
     9    5    6 1    
    10    5   80 1    
    11    5   86 1    
    12    6    7 1    
    13    6   87 1    
    14    6   88 1    
    15    7    8 1    
    16    8    9 1    
    17    8   89 1    
    18    8   90 1    
    19    9   10 ar   
    20    9   14 ar   
    21   10   11 ar   
    22   10   91 1    
    23   11   12 ar   
    24   11   58 1    
    25   12   13 ar   
    26   12   92 1    
    27   13   14 ar   
    28   13   15 1    
    29   14   93 1    
    30   15   16 1    
    31   15   94 1    
    32   15   95 1    
    33   16   17 1    
    34   17   18 1    
    35   17   96 1    
    36   17   97 1    
    37   18   19 1    
    38   18   22 1    
    39   18   98 1    
    40   19   20 am   BACKBONE|DICT|INTERRES
    41   19   21 2    
    42   20   99 1    
    43   20  100 1    
    44   22   23 am   BACKBONE|DICT|INTERRES
    45   22  101 1    
    46   23   24 2    
    47   23   25 1    
    48   25   26 1    
    49   25   27 1    
    50   25  102 1    
    51   26  103 1    
    52   26  104 1    
    53   26  105 1    
    54   27   28 am   BACKBONE|DICT|INTERRES
    55   27  106 1    
    56   28   29 2    
    57   28   30 1    
    58   30   31 1    
    59   30   32 1    
    60   30  107 1    
    61   31  108 1    
    62   31  109 1    
    63   31  110 1    
    64   32   33 am   BACKBONE|DICT|INTERRES
    65   32  111 1    
    66   33   34 2    
    67   33   35 1    
    68   35   36 1    
    69   35   37 1    
    70   35  112 1    
    71   36  113 1    
    72   36  114 1    
    73   36  115 1    
    74   37   38 am   BACKBONE|DICT|INTERRES
    75   37  116 1    
    76   38   39 2    
    77   38   40 1    
    78   40   41 1    
    79   40   42 1    
    80   40  117 1    
    81   41  118 1    
    82   41  119 1    
    83   41  120 1    
    84   42   43 am   BACKBONE|DICT|INTERRES
    85   42  121 1    
    86   43   44 2    
    87   43   45 1    
    88   45   46 1    
    89   45   47 1    
    90   45  122 1    
    91   46  123 1    
    92   46  124 1    
    93   46  125 1    
    94   47   48 am   BACKBONE|DICT|INTERRES
    95   47  126 1    
    96   48   49 2    
    97   48   50 1    
    98   50   51 1    
    99   50   52 1    
   100   50  127 1    
   101   51  128 1    
   102   51  129 1    
   103   51  130 1    
   104   52   53 am   BACKBONE|DICT|INTERRES
   105   52  131 1    
   106   53   54 2    
   107   53   55 1    
   108   55   56 1    
   109   55   59 1    
   110   55  132 1    
   111   56   57 1    
   112   56  133 1    
   113   56  134 1    
   114   57   58 1    
   115   58  135 1    
   116   58  136 1    
   117   59   60 am   BACKBONE|DICT|INTERRES
   118   59  137 1    
   119   60   61 2    
   120   60   62 1    
   121   62   63 1    
   122   62   64 1    
   123   62  138 1    
   124   63  139 1    
   125   63  140 1    
   126   63  141 1    
   127   64   65 am   BACKBONE|DICT|INTERRES
   128   64  142 1    
   129   65   66 2    
   130   65   67 1    
   131   67   68 1    
   132   67   69 1    
   133   67  143 1    
   134   68  144 1    
   135   68  145 1    
   136   68  146 1    
   137   69   70 am   BACKBONE|DICT|INTERRES
   138   69  147 1    
   139   70   71 2    
   140   70   72 1    
   141   72   73 1    
   142   72   74 1    
   143   72  148 1    
   144   73  149 1    
   145   73  150 1    
   146   73  151 1    
   147   74   75 am   BACKBONE|DICT|INTERRES
   148   74  152 1    
   149   75   76 2    
   150   75   77 1    
   151   77   78 1    
   152   77   79 1    
   153   77  153 1    
   154   78  154 1    
   155   78  155 1    
   156   78  156 1    
   157   79   80 am   BACKBONE|DICT|INTERRES
   158   79  157 1    
   159   80   81 2    
@<TRIPOS>SUBSTRUCTURE
     1 UNK         1 GROUP             0       ****    0 ROOT    
