@<TRIPOS>MOLECULE
3R207
157   159    1
SMALL
USER_CHARGES


@<TRIPOS>ATOM
      1 CA        -45.0998  -29.7279   10.5898 C.3       0 UNK        -0.1975 
      2 C         -45.7989  -29.7249    9.2386 C.2       0 UNK         0.4852 
      3 O         -45.3971  -30.4620    8.3367 O.2       0 UNK        -0.5216 
      4 N         -46.8331  -28.8883    9.0805 N.am      1 UNK        -0.4461 
      5 CA        -47.6425  -28.7415    7.8643 C.3       1 UNK         0.0864 
      6 C6        -49.0394  -28.1482    8.1846 C.3       14 UNK        -0.0898 
      7 S7        -50.0505  -29.2818    9.1987 S.3       14 UNK        -0.2598 
      8 C8        -51.4171  -29.6950    8.0644 C.3       14 UNK         0.0286 
      9 C9        -52.5330  -28.6614    8.1319 C.ar      14 UNK        -0.0844 
     10 C10       -52.4640  -27.4894    7.3722 C.ar      14 UNK        -0.0881 
     11 C11       -53.4669  -26.5221    7.4686 C.ar      14 UNK        -0.0643 
     12 C12       -54.5674  -26.7511    8.2991 C.ar      14 UNK        -0.0930 
     13 C13       -54.6506  -27.9173    9.0631 C.ar      14 UNK        -0.0827 
     14 C14       -53.6345  -28.8728    8.9680 C.ar      14 UNK        -0.1249 
     15 C15       -55.8362  -28.1293    9.9930 C.3       14 UNK         0.0141 
     16 S16       -55.7642  -27.0085   11.4276 S.3       14 UNK        -0.2313 
     17 C17       -57.3875  -27.3256   12.2005 C.3       14 UNK        -0.0915 
     18 CA        -57.3298  -27.9866   13.6057 C.3       13 UNK         0.0968 
     19 C         -56.8602  -29.4695   13.6126 C.2       13 UNK         0.5732 
     20 N         -56.2099  -29.9510   14.6672 N.am      13 UNK        -0.7310 
     21 O         -57.1208  -30.2123   12.6692 O.2       13 UNK        -0.5035 
     22 N         -56.6134  -27.1552   14.5831 N.am      13 UNK        -0.4233 
     23 C         -57.1878  -26.4454   15.5617 C.2       13 UNK         0.4989 
     24 O         -58.4085  -26.3254   15.6858 O.2       13 UNK        -0.4996 
     25 CA        -56.2575  -25.7485   16.5796 C.3       12 UNK         0.0216 
     26 CB        -56.9194  -25.5826   17.9642 C.3       12 UNK        -0.1964 
     27 N         -54.9350  -26.3691   16.7236 N.am      12 UNK        -0.4276 
     28 C         -54.6508  -27.6334   17.0663 C.2       12 UNK         0.5020 
     29 O         -55.4940  -28.5033   17.2986 O.2       12 UNK        -0.5489 
     30 CA        -53.1556  -27.9992   17.0855 C.3       11 UNK         0.0294 
     31 CB        -52.7945  -28.7798   18.3609 C.3       11 UNK        -0.2019 
     32 N         -52.7172  -28.7687   15.9151 N.am      11 UNK        -0.4493 
     33 C         -53.0164  -28.5349   14.6290 C.2       11 UNK         0.4932 
     34 O         -53.7876  -27.6606   14.2352 O.2       11 UNK        -0.5029 
     35 CA        -52.2501  -29.3802   13.6099 C.3       10 UNK         0.0280 
     36 CB        -53.0362  -29.5903   12.3077 C.3       10 UNK        -0.1976 
     37 N         -51.0317  -28.6393   13.3167 N.am      10 UNK        -0.4242 
     38 C         -49.8183  -28.9472   13.7867 C.2       10 UNK         0.5072 
     39 O         -49.5527  -29.9904   14.3862 O.2       10 UNK        -0.5224 
     40 CA        -48.7250  -27.8845   13.6007 C.3       9 UNK         0.0343 
     41 CB        -48.2431  -27.8367   12.1427 C.3       9 UNK        -0.2003 
     42 N         -49.1719  -26.5527   14.0104 N.am      9 UNK        -0.4272 
     43 C         -49.4816  -26.1883   15.2638 C.2       9 UNK         0.4988 
     44 O         -49.3909  -26.9313   16.2412 O.2       9 UNK        -0.5108 
     45 CA        -49.9834  -24.7508   15.4590 C.3       8 UNK         0.0248 
     46 CB        -48.8210  -23.7470   15.3890 C.3       8 UNK        -0.2001 
     47 N         -50.9912  -24.4173   14.4519 N.am      8 UNK        -0.4140 
     48 C         -52.3116  -24.5489   14.6384 C.2       8 UNK         0.5028 
     49 O         -52.8176  -24.8468   15.7220 O.2       8 UNK        -0.5428 
     50 CA        -53.2468  -24.2856   13.4415 C.3       7 UNK         0.0264 
     51 CB        -54.1324  -23.0562   13.7047 C.3       7 UNK        -0.1988 
     52 N         -52.5738  -24.1170   12.1495 N.am      7 UNK        -0.4454 
     53 C         -51.9929  -25.1080   11.4586 C.2       7 UNK         0.5027 
     54 O         -51.8497  -26.2526   11.8891 O.2       7 UNK        -0.5083 
     55 CA        -51.4301  -24.7432   10.0692 C.3       6 UNK         0.0844 
     56 C56       -52.5001  -24.0592    9.1771 C.3       14 UNK        -0.0967 
     57 S57       -52.0412  -24.1344    7.4094 S.3       14 UNK        -0.2604 
     58 C58       -53.3417  -25.2082    6.7109 C.3       14 UNK         0.0134 
     59 N         -50.1997  -23.9397   10.0970 N.am      6 UNK        -0.4116 
     60 C         -49.1811  -23.9521   10.9684 C.2       5 UNK         0.5034 
     61 O         -49.1650  -24.5995   12.0151 O.2       5 UNK        -0.5045 
     62 CA        -47.9544  -23.1022   10.5837 C.3       5 UNK         0.0224 
     63 CB        -46.7679  -23.3037   11.5457 C.3       5 UNK        -0.1978 
     64 N         -47.5041  -23.4038    9.2229 N.am      5 UNK        -0.4737 
     65 C         -48.0044  -22.8810    8.0962 C.2       4 UNK         0.5027 
     66 O         -48.9303  -22.0695    8.0924 O.2       4 UNK        -0.5211 
     67 CA        -47.4235  -23.3844    6.7602 C.3       4 UNK         0.0297 
     68 CB        -47.2503  -22.2510    5.7275 C.3       4 UNK        -0.1993 
     69 N         -46.1979  -24.1841    6.9058 N.am      4 UNK        -0.4486 
     70 C         -44.9763  -23.7691    7.2839 C.2       3 UNK         0.4961 
     71 O         -44.6996  -22.5961    7.5337 O.2       3 UNK        -0.5105 
     72 CA        -43.8764  -24.8378    7.4618 C.3       3 UNK         0.0299 
     73 CB        -43.5177  -24.9899    8.9505 C.3       3 UNK        -0.1972 
     74 N         -44.2362  -26.1557    6.9331 N.am      3 UNK        -0.4305 
     75 C         -44.3142  -26.4762    5.6340 C.2       2 UNK         0.5006 
     76 O         -43.9885  -25.7166    4.7213 O.2       2 UNK        -0.5106 
     77 CA        -44.8811  -27.8679    5.2900 C.3       2 UNK         0.0296 
     78 CB        -43.7391  -28.8504    4.9837 C.3       2 UNK        -0.2002 
     79 N         -45.7525  -28.4516    6.3197 N.am      2 UNK        -0.4032 
     80 C         -46.8876  -27.9188    6.7960 C.2       1 UNK         0.5000 
     81 O         -47.3080  -26.8113    6.4553 O.2       1 UNK        -0.5238 
     82 H82       -44.0227  -29.6319   10.4552 H         1 UNK         0.0889 
     83 H83       -45.2959  -30.6650   11.1101 H         1 UNK         0.0889 
     84 H84       -45.4329  -28.9078   11.2251 H         1 UNK         0.0889 
     85 H85       -47.1161  -28.3034    9.8523 H         1 UNK         0.3028 
     86 H86       -47.7995  -29.7328    7.4324 H         1 UNK         0.0864 
     87 H87       -48.9497  -27.1957    8.7107 H         1 UNK         0.0720 
     88 H88       -49.5706  -27.9307    7.2588 H         1 UNK         0.0720 
     89 H89       -51.8068  -30.6767    8.3375 H         1 UNK         0.0814 
     90 H90       -51.0465  -29.7941    7.0431 H         1 UNK         0.0814 
     91 H91       -51.6192  -27.3074    6.7244 H         1 UNK         0.1469 
     92 H92       -55.3467  -26.0057    8.3813 H         1 UNK         0.1381 
     93 H93       -53.6943  -29.7780    9.5553 H         1 UNK         0.1206 
     94 H94       -56.7598  -27.9560    9.4389 H         1 UNK         0.0813 
     95 H95       -55.8721  -29.1609   10.3466 H         1 UNK         0.0813 
     96 H96       -58.0070  -27.9221   11.5289 H         1 UNK         0.0638 
     97 H97       -57.8981  -26.3650   12.2811 H         1 UNK         0.0638 
     98 H98       -58.3683  -28.0745   13.9282 H         1 UNK         0.0568 
     99 H99       -55.9344  -30.9192   14.6694 H         1 UNK         0.3450 
    100 H100      -56.0277  -29.3719   15.4789 H         1 UNK         0.3450 
    101 H101      -55.5981  -27.2260   14.5384 H         1 UNK         0.2987 
    102 H102      -56.0753  -24.7507   16.1785 H         1 UNK         0.0766 
    103 H103      -57.8367  -24.9965   17.8963 H         1 UNK         0.0798 
    104 H104      -56.2591  -25.0647   18.6598 H         1 UNK         0.0798 
    105 H105      -57.1798  -26.5465   18.4032 H         1 UNK         0.0798 
    106 H106      -54.1487  -25.7778   16.4436 H         1 UNK         0.3198 
    107 H107      -52.5731  -27.0763   17.0932 H         1 UNK         0.0843 
    108 H108      -53.2794  -29.7566   18.3871 H         1 UNK         0.0831 
    109 H109      -53.1096  -28.2363   19.2527 H         1 UNK         0.0831 
    110 H110      -51.7184  -28.9348   18.4417 H         1 UNK         0.0831 
    111 H111      -52.0511  -29.5036   16.1049 H         1 UNK         0.3133 
    112 H112      -52.0346  -30.3595   14.0420 H         1 UNK         0.0566 
    113 H113      -53.2538  -28.6419   11.8154 H         1 UNK         0.0814 
    114 H114      -53.9877  -30.0877   12.4972 H         1 UNK         0.0814 
    115 H115      -52.4736  -30.2068   11.6069 H         1 UNK         0.0814 
    116 H116      -51.1756  -27.7431   12.8526 H         1 UNK         0.3091 
    117 H117      -47.8781  -28.1630   14.2313 H         1 UNK         0.0702 
    118 H118      -47.3826  -27.1763   12.0337 H         1 UNK         0.0785 
    119 H119      -49.0270  -27.4778   11.4739 H         1 UNK         0.0785 
    120 H120      -47.9484  -28.8301   11.8028 H         1 UNK         0.0785 
    121 H121      -49.2491  -25.8591   13.2681 H         1 UNK         0.2998 
    122 H122      -50.4186  -24.6806   16.4583 H         1 UNK         0.0697 
    123 H123      -49.1683  -22.7274   15.5564 H         1 UNK         0.0825 
    124 H124      -48.3150  -23.7740   14.4246 H         1 UNK         0.0825 
    125 H125      -48.0740  -23.9647   16.1534 H         1 UNK         0.0825 
    126 H126      -50.6511  -24.2133   13.5203 H         1 UNK         0.3029 
    127 H127      -53.9001  -25.1573   13.3608 H         1 UNK         0.0897 
    128 H128      -53.5421  -22.1421   13.7790 H         1 UNK         0.0792 
    129 H129      -54.8687  -22.9208   12.9122 H         1 UNK         0.0792 
    130 H130      -54.6851  -23.1631   14.6390 H         1 UNK         0.0792 
    131 H131      -52.6007  -23.1922   11.7454 H         1 UNK         0.3086 
    132 H132      -51.1612  -25.6939    9.6035 H         1 UNK         0.0583 
    133 H133      -53.4844  -24.5053    9.3213 H         1 UNK         0.1020 
    134 H134      -52.6188  -23.0095    9.4515 H         1 UNK         0.1020 
    135 H135      -54.2890  -24.6667    6.7162 H         1 UNK         0.0694 
    136 H136      -53.1108  -25.4122    5.6645 H         1 UNK         0.0694 
    137 H137      -50.0707  -23.3477    9.2837 H         1 UNK         0.2989 
    138 H138      -48.2568  -22.0539   10.6384 H         1 UNK         0.1055 
    139 H139      -45.9076  -22.7047   11.2460 H         1 UNK         0.0806 
    140 H140      -46.4521  -24.3470   11.5884 H         1 UNK         0.0806 
    141 H141      -47.0309  -22.9997   12.5591 H         1 UNK         0.0806 
    142 H142      -46.7698  -24.0894    9.1318 H         1 UNK         0.3061 
    143 H143      -48.1707  -24.0721    6.3607 H         1 UNK         0.0734 
    144 H144      -46.5876  -21.4653    6.0909 H         1 UNK         0.0832 
    145 H145      -46.8444  -22.6276    4.7887 H         1 UNK         0.0832 
    146 H146      -48.2085  -21.7824    5.5001 H         1 UNK         0.0832 
    147 H147      -46.3362  -25.1769    6.7301 H         1 UNK         0.3156 
    148 H148      -42.9906  -24.4846    6.9297 H         1 UNK         0.0589 
    149 H149      -42.6914  -25.6871    9.0907 H         1 UNK         0.0808 
    150 H150      -44.3637  -25.3481    9.5385 H         1 UNK         0.0808 
    151 H151      -43.2064  -24.0355    9.3780 H         1 UNK         0.0808 
    152 H152      -44.5046  -26.8563    7.6078 H         1 UNK         0.3098 
    153 H153      -45.4833  -27.7513    4.3868 H         1 UNK         0.0720 
    154 H154      -43.0847  -28.4601    4.2028 H         1 UNK         0.0791 
    155 H155      -44.1229  -29.8084    4.6324 H         1 UNK         0.0791 
    156 H156      -43.1221  -29.0380    5.8636 H         1 UNK         0.0791 
    157 H157      -45.4599  -29.3381    6.7223 H         1 UNK         0.3028 
@<TRIPOS>BOND
     1    1    2 1    
     2    1   82 1    
     3    1   83 1    
     4    1   84 1    
     5    2    3 2    
     6    2    4 am   BACKBONE|DICT|INTERRES
     7    4    5 1    
     8    4   85 1    
     9    5    6 1    
    10    5   80 1    
    11    5   86 1    
    12    6    7 1    
    13    6   87 1    
    14    6   88 1    
    15    7    8 1    
    16    8    9 1    
    17    8   89 1    
    18    8   90 1    
    19    9   10 ar   
    20    9   14 ar   
    21   10   11 ar   
    22   10   91 1    
    23   11   12 ar   
    24   11   58 1    
    25   12   13 ar   
    26   12   92 1    
    27   13   14 ar   
    28   13   15 1    
    29   14   93 1    
    30   15   16 1    
    31   15   94 1    
    32   15   95 1    
    33   16   17 1    
    34   17   18 1    
    35   17   96 1    
    36   17   97 1    
    37   18   19 1    
    38   18   22 1    
    39   18   98 1    
    40   19   20 am   BACKBONE|DICT|INTERRES
    41   19   21 2    
    42   20   99 1    
    43   20  100 1    
    44   22   23 am   BACKBONE|DICT|INTERRES
    45   22  101 1    
    46   23   24 2    
    47   23   25 1    
    48   25   26 1    
    49   25   27 1    
    50   25  102 1    
    51   26  103 1    
    52   26  104 1    
    53   26  105 1    
    54   27   28 am   BACKBONE|DICT|INTERRES
    55   27  106 1    
    56   28   29 2    
    57   28   30 1    
    58   30   31 1    
    59   30   32 1    
    60   30  107 1    
    61   31  108 1    
    62   31  109 1    
    63   31  110 1    
    64   32   33 am   BACKBONE|DICT|INTERRES
    65   32  111 1    
    66   33   34 2    
    67   33   35 1    
    68   35   36 1    
    69   35   37 1    
    70   35  112 1    
    71   36  113 1    
    72   36  114 1    
    73   36  115 1    
    74   37   38 am   BACKBONE|DICT|INTERRES
    75   37  116 1    
    76   38   39 2    
    77   38   40 1    
    78   40   41 1    
    79   40   42 1    
    80   40  117 1    
    81   41  118 1    
    82   41  119 1    
    83   41  120 1    
    84   42   43 am   BACKBONE|DICT|INTERRES
    85   42  121 1    
    86   43   44 2    
    87   43   45 1    
    88   45   46 1    
    89   45   47 1    
    90   45  122 1    
    91   46  123 1    
    92   46  124 1    
    93   46  125 1    
    94   47   48 am   BACKBONE|DICT|INTERRES
    95   47  126 1    
    96   48   49 2    
    97   48   50 1    
    98   50   51 1    
    99   50   52 1    
   100   50  127 1    
   101   51  128 1    
   102   51  129 1    
   103   51  130 1    
   104   52   53 am   BACKBONE|DICT|INTERRES
   105   52  131 1    
   106   53   54 2    
   107   53   55 1    
   108   55   56 1    
   109   55   59 1    
   110   55  132 1    
   111   56   57 1    
   112   56  133 1    
   113   56  134 1    
   114   57   58 1    
   115   58  135 1    
   116   58  136 1    
   117   59   60 am   BACKBONE|DICT|INTERRES
   118   59  137 1    
   119   60   61 2    
   120   60   62 1    
   121   62   63 1    
   122   62   64 1    
   123   62  138 1    
   124   63  139 1    
   125   63  140 1    
   126   63  141 1    
   127   64   65 am   BACKBONE|DICT|INTERRES
   128   64  142 1    
   129   65   66 2    
   130   65   67 1    
   131   67   68 1    
   132   67   69 1    
   133   67  143 1    
   134   68  144 1    
   135   68  145 1    
   136   68  146 1    
   137   69   70 am   BACKBONE|DICT|INTERRES
   138   69  147 1    
   139   70   71 2    
   140   70   72 1    
   141   72   73 1    
   142   72   74 1    
   143   72  148 1    
   144   73  149 1    
   145   73  150 1    
   146   73  151 1    
   147   74   75 am   BACKBONE|DICT|INTERRES
   148   74  152 1    
   149   75   76 2    
   150   75   77 1    
   151   77   78 1    
   152   77   79 1    
   153   77  153 1    
   154   78  154 1    
   155   78  155 1    
   156   78  156 1    
   157   79   80 am   BACKBONE|DICT|INTERRES
   158   79  157 1    
   159   80   81 2    
@<TRIPOS>SUBSTRUCTURE
     1 UNK         1 GROUP             0       ****    0 ROOT    
