@<TRIPOS>MOLECULE
3R207
157   159    1
SMALL
USER_CHARGES


@<TRIPOS>ATOM
      1 CA        -48.4463  -29.1868    5.1558 C.3       0 UNK        -0.1975 
      2 C         -48.4746  -27.7042    5.4921 C.2       0 UNK         0.4852 
      3 O         -47.4235  -27.0657    5.5677 O.2       0 UNK        -0.5216 
      4 N         -49.6820  -27.1611    5.6855 N.am      1 UNK        -0.4461 
      5 CA        -49.9776  -25.7433    5.9175 C.3       1 UNK         0.0864 
      6 C6        -51.4978  -25.4821    6.0679 C.3       14 UNK        -0.0898 
      7 S7        -52.4377  -26.0797    4.6177 S.3       14 UNK        -0.2598 
      8 C8        -54.0731  -26.4759    5.3364 C.3       14 UNK         0.0286 
      9 C9        -54.1123  -27.6148    6.3600 C.ar      14 UNK        -0.0844 
     10 C10       -53.0474  -28.5036    6.5538 C.ar      14 UNK        -0.0881 
     11 C11       -53.1026  -29.4755    7.5535 C.ar      14 UNK        -0.0643 
     12 C12       -54.2716  -29.6247    8.3030 C.ar      14 UNK        -0.0930 
     13 C13       -55.3513  -28.7506    8.1284 C.ar      14 UNK        -0.0827 
     14 C14       -55.2574  -27.7541    7.1514 C.ar      14 UNK        -0.1249 
     15 C15       -56.6252  -28.8145    8.9774 C.3       14 UNK         0.0141 
     16 S16       -56.5882  -29.9242   10.4315 S.3       14 UNK        -0.2313 
     17 C17       -55.3597  -29.1115   11.5119 C.3       14 UNK        -0.0915 
     18 CA        -54.6897  -30.0997   12.5049 C.3       13 UNK         0.0968 
     19 C         -53.6768  -31.0624   11.8227 C.2       13 UNK         0.5732 
     20 N         -54.1413  -32.1891   11.3005 N.am      13 UNK        -0.7310 
     21 O         -52.4815  -30.7892   11.7425 O.2       13 UNK        -0.5035 
     22 N         -54.0691  -29.3696   13.6144 N.am      13 UNK        -0.4233 
     23 C         -53.7620  -29.9065   14.8014 C.2       13 UNK         0.4989 
     24 O         -54.0420  -31.0611   15.1277 O.2       13 UNK        -0.4996 
     25 CA        -53.0258  -29.0020   15.8061 C.3       12 UNK         0.0216 
     26 CB        -51.5053  -29.1885   15.6733 C.3       12 UNK        -0.1964 
     27 N         -53.3549  -27.5804   15.6644 N.am      12 UNK        -0.4276 
     28 C         -54.5611  -27.0426   15.8907 C.2       12 UNK         0.5020 
     29 O         -55.5319  -27.6840   16.2991 O.2       12 UNK        -0.5489 
     30 CA        -54.6887  -25.5330   15.6091 C.3       11 UNK         0.0294 
     31 CB        -56.1001  -24.9775   15.8958 C.3       11 UNK        -0.2019 
     32 N         -53.6639  -24.7395   16.2996 N.am      11 UNK        -0.4493 
     33 C         -53.4532  -24.6708   17.6242 C.2       11 UNK         0.4932 
     34 O         -54.1347  -25.2631   18.4631 O.2       11 UNK        -0.5029 
     35 CA        -52.2789  -23.7821   18.0832 C.3       10 UNK         0.0280 
     36 CB        -52.0057  -23.8812   19.5993 C.3       10 UNK        -0.1976 
     37 N         -51.0430  -24.0179   17.3283 N.am      10 UNK        -0.4242 
     38 C         -50.3790  -25.1723   17.1677 C.2       10 UNK         0.5072 
     39 O         -50.7426  -26.2440   17.6532 O.2       10 UNK        -0.5224 
     40 CA        -49.0917  -25.1118   16.3155 C.3       9 UNK         0.0343 
     41 CB        -48.4863  -26.5042   16.0576 C.3       9 UNK        -0.2003 
     42 N         -49.2998  -24.4302   15.0317 N.am      9 UNK        -0.4272 
     43 C         -49.3744  -23.0996   14.8783 C.2       9 UNK         0.4988 
     44 O         -49.2360  -22.3058   15.8100 O.2       9 UNK        -0.5108 
     45 CA        -49.7140  -22.5462   13.4849 C.3       8 UNK         0.0248 
     46 CB        -48.4377  -22.2593   12.6783 C.3       8 UNK        -0.2001 
     47 N         -50.6229  -23.3836   12.6978 N.am      8 UNK        -0.4140 
     48 C         -51.8883  -23.6788   13.0338 C.2       8 UNK         0.5028 
     49 O         -52.4041  -23.3852   14.1132 O.2       8 UNK        -0.5428 
     50 CA        -52.7184  -24.4240   11.9776 C.3       7 UNK         0.0264 
     51 CB        -53.2467  -23.4488   10.9132 C.3       7 UNK        -0.1988 
     52 N         -51.9381  -25.4766   11.3294 N.am      7 UNK        -0.4454 
     53 C         -51.8230  -26.7233   11.8058 C.2       7 UNK         0.5027 
     54 O         -52.4314  -27.1392   12.7933 O.2       7 UNK        -0.5083 
     55 CA        -50.8531  -27.6505   11.0432 C.3       6 UNK         0.0844 
     56 C56       -51.5468  -28.1479    9.7547 C.3       14 UNK        -0.0967 
     57 S57       -50.5656  -29.2760    8.7039 S.3       14 UNK        -0.2604 
     58 C58       -51.8637  -30.2932    7.9020 C.3       14 UNK         0.0134 
     59 N         -49.5578  -27.0084   10.7842 N.am      6 UNK        -0.4116 
     60 C         -48.7423  -26.5030   11.7231 C.2       5 UNK         0.5034 
     61 O         -49.0256  -26.4544   12.9200 O.2       5 UNK        -0.5045 
     62 CA        -47.4046  -25.9139   11.2443 C.3       5 UNK         0.0224 
     63 CB        -46.3785  -25.7333   12.3859 C.3       5 UNK        -0.1978 
     64 N         -46.8186  -26.6496   10.1214 N.am      5 UNK        -0.4737 
     65 C         -46.3441  -27.9035   10.1033 C.2       4 UNK         0.5027 
     66 O         -46.3462  -28.6592   11.0749 O.2       4 UNK        -0.5211 
     67 CA        -45.7647  -28.4031    8.7656 C.3       4 UNK         0.0297 
     68 CB        -46.6800  -29.4742    8.1577 C.3       4 UNK        -0.1993 
     69 N         -45.5643  -27.3179    7.7957 N.am      4 UNK        -0.4486 
     70 C         -44.5191  -26.4780    7.8159 C.2       3 UNK         0.4961 
     71 O         -43.5477  -26.6069    8.5613 O.2       3 UNK        -0.5105 
     72 CA        -44.5974  -25.2585    6.8839 C.3       3 UNK         0.0299 
     73 CB        -44.2484  -25.6398    5.4359 C.3       3 UNK        -0.1972 
     74 N         -45.9128  -24.6107    6.9357 N.am      3 UNK        -0.4305 
     75 C         -46.3556  -23.8825    7.9743 C.2       2 UNK         0.5006 
     76 O         -45.6901  -23.6710    8.9873 O.2       2 UNK        -0.5106 
     77 CA        -47.7753  -23.2891    7.8954 C.3       2 UNK         0.0296 
     78 CB        -47.7124  -21.7908    7.5574 C.3       2 UNK        -0.2002 
     79 N         -48.6385  -23.9649    6.9257 N.am      2 UNK        -0.4032 
     80 C         -49.1977  -25.1669    7.1163 C.2       1 UNK         0.5000 
     81 O         -49.1084  -25.8088    8.1674 O.2       1 UNK        -0.5238 
     82 H82       -48.9050  -29.7729    5.9517 H         1 UNK         0.0889 
     83 H83       -47.4218  -29.5329    5.0225 H         1 UNK         0.0889 
     84 H84       -48.9885  -29.3773    4.2300 H         1 UNK         0.0889 
     85 H85       -50.4931  -27.7539    5.6201 H         1 UNK         0.3028 
     86 H86       -49.6389  -25.2204    5.0205 H         1 UNK         0.0864 
     87 H87       -51.6962  -24.4141    6.1763 H         1 UNK         0.0720 
     88 H88       -51.8776  -25.9556    6.9747 H         1 UNK         0.0720 
     89 H89       -54.7497  -26.7292    4.5192 H         1 UNK         0.0814 
     90 H90       -54.4700  -25.5675    5.7924 H         1 UNK         0.0814 
     91 H91       -52.1470  -28.4186    5.9690 H         1 UNK         0.1469 
     92 H92       -54.3063  -30.3936    9.0590 H         1 UNK         0.1381 
     93 H93       -56.0835  -27.0692    7.0131 H         1 UNK         0.1206 
     94 H94       -56.8760  -27.8107    9.3241 H         1 UNK         0.0813 
     95 H95       -57.4472  -29.1307    8.3341 H         1 UNK         0.0813 
     96 H96       -55.8948  -28.3375   12.0645 H         1 UNK         0.0638 
     97 H97       -54.6126  -28.5858   10.9175 H         1 UNK         0.0638 
     98 H98       -55.4810  -30.7129   12.9413 H         1 UNK         0.0568 
     99 H99       -53.4981  -32.8248   10.8567 H         1 UNK         0.3450 
    100 H100      -55.1233  -32.4129   11.3405 H         1 UNK         0.3450 
    101 H101      -53.6863  -28.4549   13.3941 H         1 UNK         0.2987 
    102 H102      -53.3242  -29.3141   16.8090 H         1 UNK         0.0766 
    103 H103      -50.9713  -28.6530   16.4579 H         1 UNK         0.0798 
    104 H104      -51.1362  -28.8329   14.7099 H         1 UNK         0.0798 
    105 H105      -51.2307  -30.2407   15.7596 H         1 UNK         0.0798 
    106 H106      -52.6219  -26.9829   15.3083 H         1 UNK         0.3198 
    107 H107      -54.5049  -25.4100   14.5419 H         1 UNK         0.0843 
    108 H108      -56.3771  -25.0911   16.9443 H         1 UNK         0.0831 
    109 H109      -56.8518  -25.5014   15.3041 H         1 UNK         0.0831 
    110 H110      -56.1687  -23.9196   15.6427 H         1 UNK         0.0831 
    111 H111      -53.0581  -24.1980   15.6839 H         1 UNK         0.3133 
    112 H112      -52.5750  -22.7542   17.8689 H         1 UNK         0.0566 
    113 H113      -51.1995  -23.2131   19.9021 H         1 UNK         0.0814 
    114 H114      -52.8888  -23.6029   20.1758 H         1 UNK         0.0814 
    115 H115      -51.7303  -24.8945   19.8942 H         1 UNK         0.0814 
    116 H116      -50.6389  -23.2035   16.8748 H         1 UNK         0.3091 
    117 H117      -48.3595  -24.5444   16.8939 H         1 UNK         0.0702 
    118 H118      -47.5642  -26.4357   15.4802 H         1 UNK         0.0785 
    119 H119      -49.1759  -27.1460   15.5088 H         1 UNK         0.0785 
    120 H120      -48.2454  -27.0083   16.9943 H         1 UNK         0.0785 
    121 H121      -49.4151  -25.0335   14.2219 H         1 UNK         0.2998 
    122 H122      -50.2239  -21.5932   13.6424 H         1 UNK         0.0697 
    123 H123      -47.8836  -23.1689   12.4570 H         1 UNK         0.0825 
    124 H124      -47.7678  -21.6002   13.2326 H         1 UNK         0.0825 
    125 H125      -48.6646  -21.7643   11.7338 H         1 UNK         0.0825 
    126 H126      -50.2915  -23.6772   11.7932 H         1 UNK         0.3029 
    127 H127      -53.5818  -24.8674   12.4764 H         1 UNK         0.0897 
    128 H128      -52.4394  -22.9665   10.3607 H         1 UNK         0.0792 
    129 H129      -53.8444  -22.6597   11.3719 H         1 UNK         0.0792 
    130 H130      -53.8864  -23.9596   10.1930 H         1 UNK         0.0792 
    131 H131      -51.4230  -25.2302   10.4966 H         1 UNK         0.3086 
    132 H132      -50.6577  -28.5153   11.6807 H         1 UNK         0.0583 
    133 H133      -52.4570  -28.6706   10.0442 H         1 UNK         0.1020 
    134 H134      -51.8596  -27.3100    9.1287 H         1 UNK         0.1020 
    135 H135      -51.4562  -30.7497    6.9991 H         1 UNK         0.0694 
    136 H136      -52.1235  -31.1141    8.5725 H         1 UNK         0.0694 
    137 H137      -49.2762  -26.9396    9.8106 H         1 UNK         0.2989 
    138 H138      -47.6409  -24.9229   10.8568 H         1 UNK         0.1055 
    139 H139      -46.7711  -25.0985   13.1805 H         1 UNK         0.0806 
    140 H140      -45.4629  -25.2667   12.0224 H         1 UNK         0.0806 
    141 H141      -46.1115  -26.6851   12.8457 H         1 UNK         0.0806 
    142 H142      -46.7953  -26.1493    9.2441 H         1 UNK         0.3061 
    143 H143      -44.7994  -28.8672    8.9796 H         1 UNK         0.0734 
    144 H144      -46.2834  -29.8506    7.2153 H         1 UNK         0.0832 
    145 H145      -46.7823  -30.3270    8.8301 H         1 UNK         0.0832 
    146 H146      -47.6810  -29.0836    7.9812 H         1 UNK         0.0832 
    147 H147      -46.2954  -27.1676    7.1028 H         1 UNK         0.3156 
    148 H148      -43.8525  -24.5348    7.2224 H         1 UNK         0.0589 
    149 H149      -44.9515  -26.3611    5.0194 H         1 UNK         0.0808 
    150 H150      -44.2422  -24.7646    4.7862 H         1 UNK         0.0808 
    151 H151      -43.2555  -26.0885    5.3823 H         1 UNK         0.0808 
    152 H152      -46.5325  -24.7829    6.1561 H         1 UNK         0.3098 
    153 H153      -48.2263  -23.3912    8.8848 H         1 UNK         0.0720 
    154 H154      -48.7043  -21.3384    7.5710 H         1 UNK         0.0791 
    155 H155      -47.2752  -21.6151    6.5736 H         1 UNK         0.0791 
    156 H156      -47.1036  -21.2517    8.2849 H         1 UNK         0.0791 
    157 H157      -48.7725  -23.4967    6.0405 H         1 UNK         0.3028 
@<TRIPOS>BOND
     1    1    2 1    
     2    1   82 1    
     3    1   83 1    
     4    1   84 1    
     5    2    3 2    
     6    2    4 am   BACKBONE|DICT|INTERRES
     7    4    5 1    
     8    4   85 1    
     9    5    6 1    
    10    5   80 1    
    11    5   86 1    
    12    6    7 1    
    13    6   87 1    
    14    6   88 1    
    15    7    8 1    
    16    8    9 1    
    17    8   89 1    
    18    8   90 1    
    19    9   10 ar   
    20    9   14 ar   
    21   10   11 ar   
    22   10   91 1    
    23   11   12 ar   
    24   11   58 1    
    25   12   13 ar   
    26   12   92 1    
    27   13   14 ar   
    28   13   15 1    
    29   14   93 1    
    30   15   16 1    
    31   15   94 1    
    32   15   95 1    
    33   16   17 1    
    34   17   18 1    
    35   17   96 1    
    36   17   97 1    
    37   18   19 1    
    38   18   22 1    
    39   18   98 1    
    40   19   20 am   BACKBONE|DICT|INTERRES
    41   19   21 2    
    42   20   99 1    
    43   20  100 1    
    44   22   23 am   BACKBONE|DICT|INTERRES
    45   22  101 1    
    46   23   24 2    
    47   23   25 1    
    48   25   26 1    
    49   25   27 1    
    50   25  102 1    
    51   26  103 1    
    52   26  104 1    
    53   26  105 1    
    54   27   28 am   BACKBONE|DICT|INTERRES
    55   27  106 1    
    56   28   29 2    
    57   28   30 1    
    58   30   31 1    
    59   30   32 1    
    60   30  107 1    
    61   31  108 1    
    62   31  109 1    
    63   31  110 1    
    64   32   33 am   BACKBONE|DICT|INTERRES
    65   32  111 1    
    66   33   34 2    
    67   33   35 1    
    68   35   36 1    
    69   35   37 1    
    70   35  112 1    
    71   36  113 1    
    72   36  114 1    
    73   36  115 1    
    74   37   38 am   BACKBONE|DICT|INTERRES
    75   37  116 1    
    76   38   39 2    
    77   38   40 1    
    78   40   41 1    
    79   40   42 1    
    80   40  117 1    
    81   41  118 1    
    82   41  119 1    
    83   41  120 1    
    84   42   43 am   BACKBONE|DICT|INTERRES
    85   42  121 1    
    86   43   44 2    
    87   43   45 1    
    88   45   46 1    
    89   45   47 1    
    90   45  122 1    
    91   46  123 1    
    92   46  124 1    
    93   46  125 1    
    94   47   48 am   BACKBONE|DICT|INTERRES
    95   47  126 1    
    96   48   49 2    
    97   48   50 1    
    98   50   51 1    
    99   50   52 1    
   100   50  127 1    
   101   51  128 1    
   102   51  129 1    
   103   51  130 1    
   104   52   53 am   BACKBONE|DICT|INTERRES
   105   52  131 1    
   106   53   54 2    
   107   53   55 1    
   108   55   56 1    
   109   55   59 1    
   110   55  132 1    
   111   56   57 1    
   112   56  133 1    
   113   56  134 1    
   114   57   58 1    
   115   58  135 1    
   116   58  136 1    
   117   59   60 am   BACKBONE|DICT|INTERRES
   118   59  137 1    
   119   60   61 2    
   120   60   62 1    
   121   62   63 1    
   122   62   64 1    
   123   62  138 1    
   124   63  139 1    
   125   63  140 1    
   126   63  141 1    
   127   64   65 am   BACKBONE|DICT|INTERRES
   128   64  142 1    
   129   65   66 2    
   130   65   67 1    
   131   67   68 1    
   132   67   69 1    
   133   67  143 1    
   134   68  144 1    
   135   68  145 1    
   136   68  146 1    
   137   69   70 am   BACKBONE|DICT|INTERRES
   138   69  147 1    
   139   70   71 2    
   140   70   72 1    
   141   72   73 1    
   142   72   74 1    
   143   72  148 1    
   144   73  149 1    
   145   73  150 1    
   146   73  151 1    
   147   74   75 am   BACKBONE|DICT|INTERRES
   148   74  152 1    
   149   75   76 2    
   150   75   77 1    
   151   77   78 1    
   152   77   79 1    
   153   77  153 1    
   154   78  154 1    
   155   78  155 1    
   156   78  156 1    
   157   79   80 am   BACKBONE|DICT|INTERRES
   158   79  157 1    
   159   80   81 2    
@<TRIPOS>SUBSTRUCTURE
     1 UNK         1 GROUP             0       ****    0 ROOT    
