@<TRIPOS>MOLECULE
3R207
157   159    1
SMALL
USER_CHARGES


@<TRIPOS>ATOM
      1 CA        -49.5528  -27.6067   10.5965 C.3       0 UNK        -0.1975 
      2 C         -48.7388  -27.9826    9.3688 C.2       0 UNK         0.4852 
      3 O         -47.5763  -28.3673    9.5025 O.2       0 UNK        -0.5216 
      4 N         -49.3514  -27.9029    8.1808 N.am      1 UNK        -0.4461 
      5 CA        -48.7407  -28.2575    6.8971 C.3       1 UNK         0.0864 
      6 C6        -49.7942  -28.8494    5.9215 C.3       14 UNK        -0.0898 
      7 S7        -51.0233  -27.6500    5.2936 S.3       14 UNK        -0.2598 
      8 C8        -52.5958  -28.3580    5.8734 C.3       14 UNK         0.0286 
      9 C9        -52.9857  -27.8289    7.2449 C.ar      14 UNK        -0.0844 
     10 C10       -53.5826  -26.5694    7.3542 C.ar      14 UNK        -0.0881 
     11 C11       -54.0086  -26.0889    8.5951 C.ar      14 UNK        -0.0643 
     12 C12       -53.8350  -26.8800    9.7331 C.ar      14 UNK        -0.0930 
     13 C13       -53.2201  -28.1313    9.6408 C.ar      14 UNK        -0.0827 
     14 C14       -52.7941  -28.6024    8.3942 C.ar      14 UNK        -0.1249 
     15 C15       -53.0151  -28.9668   10.8926 C.3       14 UNK         0.0141 
     16 S16       -54.3727  -30.1497   11.1349 S.3       14 UNK        -0.2313 
     17 C17       -53.8394  -30.9461   12.6862 C.3       14 UNK        -0.0915 
     18 CA        -54.9968  -31.1481   13.6936 C.3       13 UNK         0.0968 
     19 C         -54.5122  -31.9366   14.9378 C.2       13 UNK         0.5732 
     20 N         -53.9058  -31.2825   15.9217 N.am      13 UNK        -0.7310 
     21 O         -54.6959  -33.1495   15.0147 O.2       13 UNK        -0.5035 
     22 N         -55.6409  -29.8815   14.0699 N.am      13 UNK        -0.4233 
     23 C         -56.9378  -29.7682   14.3841 C.2       13 UNK         0.4989 
     24 O         -57.7349  -30.7065   14.3278 O.2       13 UNK        -0.4996 
     25 CA        -57.4567  -28.3959   14.8550 C.3       12 UNK         0.0216 
     26 CB        -57.9262  -28.4721   16.3183 C.3       12 UNK        -0.1964 
     27 N         -56.4824  -27.3110   14.7395 N.am      12 UNK        -0.4276 
     28 C         -56.1023  -26.6951   13.6161 C.2       12 UNK         0.5020 
     29 O         -56.5503  -26.9717   12.5041 O.2       12 UNK        -0.5489 
     30 CA        -55.0297  -25.5941   13.7381 C.3       11 UNK         0.0294 
     31 CB        -55.6717  -24.1984   13.8453 C.3       11 UNK        -0.2019 
     32 N         -54.0181  -25.7963   14.7882 N.am      11 UNK        -0.4493 
     33 C         -54.1725  -25.8574   16.1196 C.2       11 UNK         0.4932 
     34 O         -55.2617  -25.7236   16.6788 O.2       11 UNK        -0.5029 
     35 CA        -52.9218  -26.1398   16.9762 C.3       10 UNK         0.0280 
     36 CB        -53.2629  -26.9553   18.2418 C.3       10 UNK        -0.1976 
     37 N         -51.8020  -26.7654   16.2612 N.am      10 UNK        -0.4242 
     38 C         -51.7846  -27.9492   15.6249 C.2       10 UNK         0.5072 
     39 O         -52.7805  -28.6611   15.4681 O.2       10 UNK        -0.5224 
     40 CA        -50.4192  -28.4011   15.0735 C.3       9 UNK         0.0343 
     41 CB        -50.5297  -29.4158   13.9260 C.3       9 UNK        -0.2003 
     42 N         -49.6380  -27.2454   14.6309 N.am      9 UNK        -0.4272 
     43 C         -48.3974  -26.9532   15.0467 C.2       9 UNK         0.4988 
     44 O         -47.7122  -27.7038   15.7423 O.2       9 UNK        -0.5108 
     45 CA        -47.8273  -25.5741   14.6611 C.3       8 UNK         0.0248 
     46 CB        -46.8111  -25.7046   13.5154 C.3       8 UNK        -0.2001 
     47 N         -48.8538  -24.5844   14.3093 N.am      8 UNK        -0.4140 
     48 C         -49.7700  -24.1072   15.1684 C.2       8 UNK         0.5028 
     49 O         -49.8325  -24.4506   16.3495 O.2       8 UNK        -0.5428 
     50 CA        -50.8337  -23.1307   14.6335 C.3       7 UNK         0.0264 
     51 CB        -50.4501  -21.6834   14.9797 C.3       7 UNK        -0.1988 
     52 N         -51.0926  -23.2255   13.1951 N.am      7 UNK        -0.4454 
     53 C         -51.5266  -24.3154   12.5459 C.2       7 UNK         0.5027 
     54 O         -51.7359  -25.4024   13.0911 O.2       7 UNK        -0.5083 
     55 CA        -51.7127  -24.1698   11.0200 C.3       6 UNK         0.0844 
     56 C56       -53.0909  -23.5287   10.7187 C.3       14 UNK        -0.0967 
     57 S57       -53.4505  -23.3979    8.9337 S.3       14 UNK        -0.2604 
     58 C58       -54.6739  -24.7251    8.6958 C.3       14 UNK         0.0134 
     59 N         -50.6207  -23.4552   10.3378 N.am      6 UNK        -0.4116 
     60 C         -49.3031  -23.6277   10.5122 C.2       5 UNK         0.5034 
     61 O         -48.8043  -24.3448   11.3840 O.2       5 UNK        -0.5045 
     62 CA        -48.3769  -22.8423    9.5783 C.3       5 UNK         0.0224 
     63 CB        -48.2778  -21.3663   10.0022 C.3       5 UNK        -0.1978 
     64 N         -47.0613  -23.4655    9.6526 N.am      5 UNK        -0.4737 
     65 C         -46.1572  -23.5366    8.6745 C.2       4 UNK         0.5027 
     66 O         -46.2823  -22.9719    7.5866 O.2       4 UNK        -0.5211 
     67 CA        -44.8974  -24.3720    8.9531 C.3       4 UNK         0.0297 
     68 CB        -44.9239  -25.1602   10.2822 C.3       4 UNK        -0.1993 
     69 N         -44.6996  -25.2969    7.8424 N.am      4 UNK        -0.4486 
     70 C         -43.5102  -25.6711    7.3536 C.2       3 UNK         0.4961 
     71 O         -42.4345  -25.2751    7.8050 O.2       3 UNK        -0.5105 
     72 CA        -43.4945  -26.6672    6.1762 C.3       3 UNK         0.0299 
     73 CB        -43.0080  -28.0474    6.6493 C.3       3 UNK        -0.1972 
     74 N         -44.7941  -26.8254    5.5208 N.am      3 UNK        -0.4305 
     75 C         -45.3759  -25.9117    4.7316 C.2       2 UNK         0.5006 
     76 O         -44.8352  -24.8585    4.3929 O.2       2 UNK        -0.5106 
     77 CA        -46.8043  -26.2138    4.2417 C.3       2 UNK         0.0296 
     78 CB        -46.7866  -26.6451    2.7657 C.3       2 UNK        -0.2002 
     79 N         -47.5207  -27.2275    5.0270 N.am      2 UNK        -0.4032 
     80 C         -47.9105  -27.0917    6.3042 C.2       1 UNK         0.5000 
     81 O         -47.6204  -26.1105    6.9942 O.2       1 UNK        -0.5238 
     82 H82       -50.5070  -27.1552   10.3301 H         1 UNK         0.0889 
     83 H83       -49.0024  -26.9020   11.2156 H         1 UNK         0.0889 
     84 H84       -49.7475  -28.4967   11.1918 H         1 UNK         0.0889 
     85 H85       -50.2974  -27.5517    8.1221 H         1 UNK         0.3028 
     86 H86       -48.0186  -29.0555    7.0845 H         1 UNK         0.0864 
     87 H87       -49.3040  -29.3062    5.0605 H         1 UNK         0.0720 
     88 H88       -50.3097  -29.6750    6.4146 H         1 UNK         0.0720 
     89 H89       -52.5501  -29.4481    5.8715 H         1 UNK         0.0814 
     90 H90       -53.3756  -28.0956    5.1566 H         1 UNK         0.0814 
     91 H91       -53.7257  -25.9657    6.4681 H         1 UNK         0.1469 
     92 H92       -54.1801  -26.5233   10.6922 H         1 UNK         0.1381 
     93 H93       -52.3328  -29.5778    8.3180 H         1 UNK         0.1206 
     94 H94       -52.0720  -29.5110   10.8255 H         1 UNK         0.0813 
     95 H95       -52.9434  -28.3159   11.7658 H         1 UNK         0.0813 
     96 H96       -53.0575  -30.3459   13.1470 H         1 UNK         0.0638 
     97 H97       -53.3821  -31.9031   12.4276 H         1 UNK         0.0638 
     98 H98       -55.7356  -31.7778   13.1934 H         1 UNK         0.0568 
     99 H99       -53.5982  -31.7921   16.7338 H         1 UNK         0.3450 
    100 H100      -53.6719  -30.2981   15.8230 H         1 UNK         0.3450 
    101 H101      -55.0352  -29.0816   14.1776 H         1 UNK         0.2987 
    102 H102      -58.3170  -28.1468   14.2303 H         1 UNK         0.0766 
    103 H103      -58.6929  -29.2375   16.4472 H         1 UNK         0.0798 
    104 H104      -58.3584  -27.5263   16.6463 H         1 UNK         0.0798 
    105 H105      -57.1039  -28.7168   16.9922 H         1 UNK         0.0798 
    106 H106      -56.0865  -26.9507   15.6055 H         1 UNK         0.3198 
    107 H107      -54.4713  -25.6278   12.8046 H         1 UNK         0.0843 
    108 H108      -56.2543  -24.0877   14.7603 H         1 UNK         0.0831 
    109 H109      -56.3466  -24.0153   13.0079 H         1 UNK         0.0831 
    110 H110      -54.9162  -23.4128   13.8310 H         1 UNK         0.0831 
    111 H111      -53.0764  -25.9192   14.4261 H         1 UNK         0.3133 
    112 H112      -52.5586  -25.1638   17.3008 H         1 UNK         0.0566 
    113 H113      -53.6914  -27.9267   17.9921 H         1 UNK         0.0814 
    114 H114      -53.9873  -26.4315   18.8667 H         1 UNK         0.0814 
    115 H115      -52.3778  -27.1269   18.8543 H         1 UNK         0.0814 
    116 H116      -50.9327  -26.2437   16.3102 H         1 UNK         0.3091 
    117 H117      -49.9181  -28.8970   15.9072 H         1 UNK         0.0702 
    118 H118      -49.5456  -29.7019   13.5548 H         1 UNK         0.0785 
    119 H119      -51.0979  -29.0070   13.0933 H         1 UNK         0.0785 
    120 H120      -51.0243  -30.3286   14.2598 H         1 UNK         0.0785 
    121 H121      -50.1323  -26.5695   14.0584 H         1 UNK         0.2998 
    122 H122      -47.2967  -25.1921   15.5358 H         1 UNK         0.0697 
    123 H123      -47.2617  -26.1288   12.6187 H         1 UNK         0.0825 
    124 H124      -45.9853  -26.3578   13.8005 H         1 UNK         0.0825 
    125 H125      -46.3831  -24.7374   13.2532 H         1 UNK         0.0825 
    126 H126      -48.8928  -24.3033   13.3332 H         1 UNK         0.3029 
    127 H127      -51.7685  -23.3678   15.1461 H         1 UNK         0.0897 
    128 H128      -49.5370  -21.3746   14.4689 H         1 UNK         0.0792 
    129 H129      -50.2781  -21.5702   16.0512 H         1 UNK         0.0792 
    130 H130      -51.2419  -20.9854   14.7069 H         1 UNK         0.0792 
    131 H131      -50.9203  -22.3906   12.6536 H         1 UNK         0.3086 
    132 H132      -51.7155  -25.1795   10.6094 H         1 UNK         0.0583 
    133 H133      -53.8940  -24.0846   11.2020 H         1 UNK         0.1020 
    134 H134      -53.1415  -22.5212   11.1368 H         1 UNK         0.1020 
    135 H135      -55.4090  -24.7119    9.5021 H         1 UNK         0.0694 
    136 H136      -55.2315  -24.5225    7.7802 H         1 UNK         0.0694 
    137 H137      -50.9252  -22.8358    9.6002 H         1 UNK         0.2989 
    138 H138      -48.7622  -22.9191    8.5586 H         1 UNK         0.1055 
    139 H139      -47.5988  -20.8139    9.3523 H         1 UNK         0.0806 
    140 H140      -47.9155  -21.2645   11.0262 H         1 UNK         0.0806 
    141 H141      -49.2487  -20.8725    9.9468 H         1 UNK         0.0806 
    142 H142      -46.9248  -24.0128   10.4941 H         1 UNK         0.3061 
    143 H143      -44.0680  -23.6627    8.9895 H         1 UNK         0.0734 
    144 H144      -45.7543  -25.8674   10.3192 H         1 UNK         0.0832 
    145 H145      -44.0040  -25.7292   10.4181 H         1 UNK         0.0832 
    146 H146      -45.0072  -24.4917   11.1396 H         1 UNK         0.0832 
    147 H147      -45.5512  -25.6141    7.3892 H         1 UNK         0.3156 
    148 H148      -42.7833  -26.2891    5.4386 H         1 UNK         0.0589 
    149 H149      -43.6805  -28.4802    7.3912 H         1 UNK         0.0808 
    150 H150      -42.0204  -27.9776    7.1078 H         1 UNK         0.0808 
    151 H151      -42.9266  -28.7477    5.8177 H         1 UNK         0.0808 
    152 H152      -45.3080  -27.6679    5.7318 H         1 UNK         0.3098 
    153 H153      -47.3692  -25.2822    4.3173 H         1 UNK         0.0720 
    154 H154      -46.2921  -25.8961    2.1452 H         1 UNK         0.0791 
    155 H155      -47.7972  -26.7680    2.3755 H         1 UNK         0.0791 
    156 H156      -46.2537  -27.5866    2.6261 H         1 UNK         0.0791 
    157 H157      -47.7990  -28.0597    4.5274 H         1 UNK         0.3028 
@<TRIPOS>BOND
     1    1    2 1    
     2    1   82 1    
     3    1   83 1    
     4    1   84 1    
     5    2    3 2    
     6    2    4 am   BACKBONE|DICT|INTERRES
     7    4    5 1    
     8    4   85 1    
     9    5    6 1    
    10    5   80 1    
    11    5   86 1    
    12    6    7 1    
    13    6   87 1    
    14    6   88 1    
    15    7    8 1    
    16    8    9 1    
    17    8   89 1    
    18    8   90 1    
    19    9   10 ar   
    20    9   14 ar   
    21   10   11 ar   
    22   10   91 1    
    23   11   12 ar   
    24   11   58 1    
    25   12   13 ar   
    26   12   92 1    
    27   13   14 ar   
    28   13   15 1    
    29   14   93 1    
    30   15   16 1    
    31   15   94 1    
    32   15   95 1    
    33   16   17 1    
    34   17   18 1    
    35   17   96 1    
    36   17   97 1    
    37   18   19 1    
    38   18   22 1    
    39   18   98 1    
    40   19   20 am   BACKBONE|DICT|INTERRES
    41   19   21 2    
    42   20   99 1    
    43   20  100 1    
    44   22   23 am   BACKBONE|DICT|INTERRES
    45   22  101 1    
    46   23   24 2    
    47   23   25 1    
    48   25   26 1    
    49   25   27 1    
    50   25  102 1    
    51   26  103 1    
    52   26  104 1    
    53   26  105 1    
    54   27   28 am   BACKBONE|DICT|INTERRES
    55   27  106 1    
    56   28   29 2    
    57   28   30 1    
    58   30   31 1    
    59   30   32 1    
    60   30  107 1    
    61   31  108 1    
    62   31  109 1    
    63   31  110 1    
    64   32   33 am   BACKBONE|DICT|INTERRES
    65   32  111 1    
    66   33   34 2    
    67   33   35 1    
    68   35   36 1    
    69   35   37 1    
    70   35  112 1    
    71   36  113 1    
    72   36  114 1    
    73   36  115 1    
    74   37   38 am   BACKBONE|DICT|INTERRES
    75   37  116 1    
    76   38   39 2    
    77   38   40 1    
    78   40   41 1    
    79   40   42 1    
    80   40  117 1    
    81   41  118 1    
    82   41  119 1    
    83   41  120 1    
    84   42   43 am   BACKBONE|DICT|INTERRES
    85   42  121 1    
    86   43   44 2    
    87   43   45 1    
    88   45   46 1    
    89   45   47 1    
    90   45  122 1    
    91   46  123 1    
    92   46  124 1    
    93   46  125 1    
    94   47   48 am   BACKBONE|DICT|INTERRES
    95   47  126 1    
    96   48   49 2    
    97   48   50 1    
    98   50   51 1    
    99   50   52 1    
   100   50  127 1    
   101   51  128 1    
   102   51  129 1    
   103   51  130 1    
   104   52   53 am   BACKBONE|DICT|INTERRES
   105   52  131 1    
   106   53   54 2    
   107   53   55 1    
   108   55   56 1    
   109   55   59 1    
   110   55  132 1    
   111   56   57 1    
   112   56  133 1    
   113   56  134 1    
   114   57   58 1    
   115   58  135 1    
   116   58  136 1    
   117   59   60 am   BACKBONE|DICT|INTERRES
   118   59  137 1    
   119   60   61 2    
   120   60   62 1    
   121   62   63 1    
   122   62   64 1    
   123   62  138 1    
   124   63  139 1    
   125   63  140 1    
   126   63  141 1    
   127   64   65 am   BACKBONE|DICT|INTERRES
   128   64  142 1    
   129   65   66 2    
   130   65   67 1    
   131   67   68 1    
   132   67   69 1    
   133   67  143 1    
   134   68  144 1    
   135   68  145 1    
   136   68  146 1    
   137   69   70 am   BACKBONE|DICT|INTERRES
   138   69  147 1    
   139   70   71 2    
   140   70   72 1    
   141   72   73 1    
   142   72   74 1    
   143   72  148 1    
   144   73  149 1    
   145   73  150 1    
   146   73  151 1    
   147   74   75 am   BACKBONE|DICT|INTERRES
   148   74  152 1    
   149   75   76 2    
   150   75   77 1    
   151   77   78 1    
   152   77   79 1    
   153   77  153 1    
   154   78  154 1    
   155   78  155 1    
   156   78  156 1    
   157   79   80 am   BACKBONE|DICT|INTERRES
   158   79  157 1    
   159   80   81 2    
@<TRIPOS>SUBSTRUCTURE
     1 UNK         1 GROUP             0       ****    0 ROOT    
