@<TRIPOS>MOLECULE
3R207
157   159    1
SMALL
USER_CHARGES


@<TRIPOS>ATOM
      1 CA        -48.4955  -31.0409    4.2646 C.3       0 UNK        -0.1975 
      2 C         -49.0966  -29.7388    3.7563 C.2       0 UNK         0.4852 
      3 O         -48.8026  -29.3255    2.6342 O.2       0 UNK        -0.5216 
      4 N         -49.9365  -29.0910    4.5748 N.am      1 UNK        -0.4461 
      5 CA        -50.5903  -27.8105    4.2738 C.3       1 UNK         0.0864 
      6 C6        -51.7880  -27.5370    5.2209 C.3       14 UNK        -0.0898 
      7 S7        -51.3484  -27.5442    6.9960 S.3       14 UNK        -0.2598 
      8 C8        -52.0958  -29.1114    7.5403 C.3       14 UNK         0.0286 
      9 C9        -51.7033  -29.4460    8.9711 C.ar      14 UNK        -0.0844 
     10 C10       -50.4961  -30.1006    9.2374 C.ar      14 UNK        -0.0881 
     11 C11       -50.1376  -30.4258   10.5500 C.ar      14 UNK        -0.0643 
     12 C12       -51.0052  -30.1051   11.5972 C.ar      14 UNK        -0.0930 
     13 C13       -52.2022  -29.4296   11.3457 C.ar      14 UNK        -0.0827 
     14 C14       -52.5467  -29.1023   10.0309 C.ar      14 UNK        -0.1249 
     15 C15       -53.0678  -28.9695   12.5071 C.3       14 UNK         0.0141 
     16 S16       -54.2906  -30.2083   13.0408 S.3       14 UNK        -0.2313 
     17 C17       -55.5989  -30.0573   11.7726 C.3       14 UNK        -0.0915 
     18 CA        -56.6743  -28.9713   12.0702 C.3       13 UNK         0.0968 
     19 C         -57.5673  -29.2735   13.3083 C.2       13 UNK         0.5732 
     20 N         -57.8427  -28.3163   14.1903 N.am      13 UNK        -0.7310 
     21 O         -58.0535  -30.3923   13.4576 O.2       13 UNK        -0.5035 
     22 N         -56.1122  -27.6193   12.0867 N.am      13 UNK        -0.4233 
     23 C         -55.7927  -26.8742   11.0291 C.2       13 UNK         0.4989 
     24 O         -55.9487  -27.2446    9.8651 O.2       13 UNK        -0.4996 
     25 CA        -55.1631  -25.4899   11.2912 C.3       12 UNK         0.0216 
     26 CB        -56.1457  -24.3675   10.9030 C.3       12 UNK        -0.1964 
     27 N         -54.6164  -25.2478   12.6403 N.am      12 UNK        -0.4276 
     28 C         -55.2568  -25.2128   13.8170 C.2       12 UNK         0.5020 
     29 O         -56.4326  -25.5561   13.9683 O.2       12 UNK        -0.5489 
     30 CA        -54.4345  -24.7145   15.0206 C.3       11 UNK         0.0294 
     31 CB        -55.3359  -24.2518   16.1842 C.3       11 UNK        -0.2019 
     32 N         -53.4395  -25.6740   15.5164 N.am      11 UNK        -0.4493 
     33 C         -53.6370  -26.9393   15.9210 C.2       11 UNK         0.4932 
     34 O         -54.6971  -27.5481   15.7822 O.2       11 UNK        -0.5029 
     35 CA        -52.4756  -27.6228   16.6725 C.3       10 UNK         0.0280 
     36 CB        -52.2750  -29.1027   16.2935 C.3       10 UNK        -0.1976 
     37 N         -51.2037  -26.9040   16.5380 N.am      10 UNK        -0.4242 
     38 C         -50.6751  -26.1114   17.4810 C.2       10 UNK         0.5072 
     39 O         -51.1976  -25.9011   18.5765 O.2       10 UNK        -0.5224 
     40 CA        -49.3417  -25.4208   17.1486 C.3       9 UNK         0.0343 
     41 CB        -48.1700  -26.4032   17.3032 C.3       9 UNK        -0.2003 
     42 N         -49.2982  -24.8113   15.8169 N.am      9 UNK        -0.4272 
     43 C         -50.0951  -23.8183   15.3930 C.2       9 UNK         0.4988 
     44 O         -51.0192  -23.3451   16.0536 O.2       9 UNK        -0.5108 
     45 CA        -49.8293  -23.2797   13.9795 C.3       8 UNK         0.0248 
     46 CB        -48.5644  -22.4060   13.9382 C.3       8 UNK        -0.2001 
     47 N         -49.7090  -24.3798   13.0263 N.am      8 UNK        -0.4140 
     48 C         -50.7601  -25.0158   12.4935 C.2       8 UNK         0.5028 
     49 O         -51.9281  -24.6603   12.6498 O.2       8 UNK        -0.5428 
     50 CA        -50.4759  -26.2807   11.6738 C.3       7 UNK         0.0264 
     51 CB        -50.4372  -25.9720   10.1747 C.3       7 UNK        -0.1988 
     52 N         -49.2437  -26.9644   12.0683 N.am      7 UNK        -0.4454 
     53 C         -49.0986  -27.6332   13.2220 C.2       7 UNK         0.5027 
     54 O         -49.9821  -27.7165   14.0763 O.2       7 UNK        -0.5083 
     55 CA        -47.7197  -28.2630   13.5081 C.3       6 UNK         0.0844 
     56 C56       -47.6335  -29.7326   13.0232 C.3       14 UNK        -0.0967 
     57 S57       -47.4828  -29.9348   11.2092 S.3       14 UNK        -0.2604 
     58 C58       -48.8142  -31.1227   10.8311 C.3       14 UNK         0.0134 
     59 N         -46.6000  -27.4460   13.0309 N.am      6 UNK        -0.4116 
     60 C         -46.3632  -26.1746   13.3816 C.2       5 UNK         0.5034 
     61 O         -47.0610  -25.5444   14.1781 O.2       5 UNK        -0.5045 
     62 CA        -45.1905  -25.4510   12.6963 C.3       5 UNK         0.0224 
     63 CB        -44.2309  -26.3860   11.9235 C.3       5 UNK        -0.1978 
     64 N         -45.6714  -24.3705   11.8247 N.am      5 UNK        -0.4737 
     65 C         -46.5108  -24.4946   10.7871 C.2       4 UNK         0.5027 
     66 O         -47.0136  -25.5650   10.4289 O.2       4 UNK        -0.5211 
     67 CA        -46.8420  -23.2065   10.0211 C.3       4 UNK         0.0297 
     68 CB        -45.5945  -22.6138    9.3384 C.3       4 UNK        -0.1993 
     69 N         -47.8410  -23.5325    9.0126 N.am      4 UNK        -0.4486 
     70 C         -48.7257  -22.7021    8.4524 C.2       3 UNK         0.4961 
     71 O         -48.8034  -21.5027    8.7234 O.2       3 UNK        -0.5105 
     72 CA        -49.6881  -23.3334    7.4214 C.3       3 UNK         0.0299 
     73 CB        -50.3230  -22.2922    6.4755 C.3       3 UNK        -0.1972 
     74 N         -49.0797  -24.4339    6.6574 N.am      3 UNK        -0.4305 
     75 C         -48.0028  -24.3626    5.8556 C.2       2 UNK         0.5006 
     76 O         -47.3823  -23.3252    5.6206 O.2       2 UNK        -0.5106 
     77 CA        -47.5089  -25.6762    5.2216 C.3       2 UNK         0.0296 
     78 CB        -46.3492  -26.2569    6.0489 C.3       2 UNK        -0.2002 
     79 N         -48.5474  -26.6991    5.0754 N.am      2 UNK        -0.4032 
     80 C         -49.6037  -26.6219    4.2510 C.2       1 UNK         0.5000 
     81 O         -49.8171  -25.6707    3.4970 O.2       1 UNK        -0.5238 
     82 H82       -48.8449  -31.2891    5.2666 H         1 UNK         0.0889 
     83 H83       -47.4088  -30.9660    4.2932 H         1 UNK         0.0889 
     84 H84       -48.7632  -31.8617    3.5998 H         1 UNK         0.0889 
     85 H85       -50.1415  -29.4778    5.4841 H         1 UNK         0.3028 
     86 H86       -50.9935  -27.8874    3.2614 H         1 UNK         0.0864 
     87 H87       -52.5688  -28.2777    5.0413 H         1 UNK         0.0720 
     88 H88       -52.2480  -26.5749    4.9865 H         1 UNK         0.0720 
     89 H89       -51.7884  -29.9212    6.8776 H         1 UNK         0.0814 
     90 H90       -53.1813  -29.0401    7.4532 H         1 UNK         0.0814 
     91 H91       -49.8306  -30.3509    8.4229 H         1 UNK         0.1469 
     92 H92       -50.7343  -30.3471   12.6152 H         1 UNK         0.1381 
     93 H93       -53.4634  -28.5652    9.8310 H         1 UNK         0.1206 
     94 H94       -53.5515  -28.0288   12.2615 H         1 UNK         0.0813 
     95 H95       -52.4256  -28.7303   13.3507 H         1 UNK         0.0813 
     96 H96       -55.1394  -29.8716   10.8027 H         1 UNK         0.0638 
     97 H97       -56.0766  -31.0333   11.6747 H         1 UNK         0.0638 
     98 H98       -57.3817  -28.9989   11.2396 H         1 UNK         0.0568 
     99 H99       -57.4729  -27.3780   14.1010 H         1 UNK         0.3450 
    100 H100      -58.4287  -28.5419   14.9778 H         1 UNK         0.3450 
    101 H101      -56.0087  -27.1967   13.0026 H         1 UNK         0.2987 
    102 H102      -54.3058  -25.4236   10.6191 H         1 UNK         0.0766 
    103 H103      -57.0351  -24.3716   11.5341 H         1 UNK         0.0798 
    104 H104      -55.6792  -23.3859   10.9865 H         1 UNK         0.0798 
    105 H105      -56.4803  -24.4788    9.8706 H         1 UNK         0.0798 
    106 H106      -53.6228  -24.9997   12.6540 H         1 UNK         0.3198 
    107 H107      -53.8744  -23.8422   14.6783 H         1 UNK         0.0843 
    108 H108      -56.0502  -23.4988   15.8487 H         1 UNK         0.0831 
    109 H109      -54.7489  -23.8068   16.9876 H         1 UNK         0.0831 
    110 H110      -55.9097  -25.0781   16.6059 H         1 UNK         0.0831 
    111 H111      -52.5193  -25.2845   15.6720 H         1 UNK         0.3133 
    112 H112      -52.7895  -27.6204   17.7181 H         1 UNK         0.0566 
    113 H113      -51.6841  -29.6150   17.0526 H         1 UNK         0.0814 
    114 H114      -53.2229  -29.6367   16.2157 H         1 UNK         0.0814 
    115 H115      -51.7494  -29.2221   15.3496 H         1 UNK         0.0814 
    116 H116      -50.7007  -27.0452   15.6628 H         1 UNK         0.3091 
    117 H117      -49.2013  -24.6158   17.8729 H         1 UNK         0.0702 
    118 H118      -47.2124  -25.9103   17.1337 H         1 UNK         0.0785 
    119 H119      -48.2473  -27.2347   16.6032 H         1 UNK         0.0785 
    120 H120      -48.1446  -26.8250   18.3089 H         1 UNK         0.0785 
    121 H121      -48.5448  -25.1202   15.2066 H         1 UNK         0.2998 
    122 H122      -50.6758  -22.6509   13.6940 H         1 UNK         0.0697 
    123 H123      -47.6661  -22.9655   14.1997 H         1 UNK         0.0825 
    124 H124      -48.6447  -21.5755   14.6408 H         1 UNK         0.0825 
    125 H125      -48.4148  -21.9763   12.9479 H         1 UNK         0.0825 
    126 H126      -48.7879  -24.7754   12.8954 H         1 UNK         0.3029 
    127 H127      -51.3072  -26.9588   11.8519 H         1 UNK         0.0897 
    128 H128      -50.2171  -26.8703    9.5991 H         1 UNK         0.0792 
    129 H129      -49.6788  -25.2298    9.9421 H         1 UNK         0.0792 
    130 H130      -51.3971  -25.5868    9.8282 H         1 UNK         0.0792 
    131 H131      -48.4567  -26.9020   11.4313 H         1 UNK         0.3086 
    132 H132      -47.6246  -28.2895   14.5948 H         1 UNK         0.0583 
    133 H133      -46.7573  -30.2027   13.4725 H         1 UNK         0.1020 
    134 H134      -48.4821  -30.3051   13.4008 H         1 UNK         0.1020 
    135 H135      -48.5158  -31.7063    9.9589 H         1 UNK         0.0694 
    136 H136      -48.9245  -31.8408   11.6449 H         1 UNK         0.0694 
    137 H137      -46.0137  -27.8684   12.3258 H         1 UNK         0.2989 
    138 H138      -44.6196  -24.9808   13.4989 H         1 UNK         0.1055 
    139 H139      -43.8313  -27.1667   12.5725 H         1 UNK         0.0806 
    140 H140      -43.3770  -25.8298   11.5366 H         1 UNK         0.0806 
    141 H141      -44.7127  -26.8719   11.0742 H         1 UNK         0.0806 
    142 H142      -45.3379  -23.4456   12.0596 H         1 UNK         0.3061 
    143 H143      -47.2608  -22.4857   10.7261 H         1 UNK         0.0734 
    144 H144      -45.8417  -21.7157    8.7720 H         1 UNK         0.0832 
    145 H145      -44.8347  -22.3321   10.0680 H         1 UNK         0.0832 
    146 H146      -45.1393  -23.3258    8.6485 H         1 UNK         0.0832 
    147 H147      -47.8744  -24.5201    8.7907 H         1 UNK         0.3156 
    148 H148      -50.4977  -23.7800    7.9999 H         1 UNK         0.0589 
    149 H149      -49.5685  -21.7487    5.9060 H         1 UNK         0.0808 
    150 H150      -51.0033  -22.7639    5.7664 H         1 UNK         0.0808 
    151 H151      -50.8998  -21.5551    7.0354 H         1 UNK         0.0808 
    152 H152      -49.5133  -25.3394    6.7755 H         1 UNK         0.3098 
    153 H153      -47.1339  -25.4366    4.2244 H         1 UNK         0.0720 
    154 H154      -45.9247  -27.1409    5.5727 H         1 UNK         0.0791 
    155 H155      -46.6675  -26.5356    7.0546 H         1 UNK         0.0791 
    156 H156      -45.5423  -25.5299    6.1541 H         1 UNK         0.0791 
    157 H157      -48.4591  -27.5238    5.6506 H         1 UNK         0.3028 
@<TRIPOS>BOND
     1    1    2 1    
     2    1   82 1    
     3    1   83 1    
     4    1   84 1    
     5    2    3 2    
     6    2    4 am   BACKBONE|DICT|INTERRES
     7    4    5 1    
     8    4   85 1    
     9    5    6 1    
    10    5   80 1    
    11    5   86 1    
    12    6    7 1    
    13    6   87 1    
    14    6   88 1    
    15    7    8 1    
    16    8    9 1    
    17    8   89 1    
    18    8   90 1    
    19    9   10 ar   
    20    9   14 ar   
    21   10   11 ar   
    22   10   91 1    
    23   11   12 ar   
    24   11   58 1    
    25   12   13 ar   
    26   12   92 1    
    27   13   14 ar   
    28   13   15 1    
    29   14   93 1    
    30   15   16 1    
    31   15   94 1    
    32   15   95 1    
    33   16   17 1    
    34   17   18 1    
    35   17   96 1    
    36   17   97 1    
    37   18   19 1    
    38   18   22 1    
    39   18   98 1    
    40   19   20 am   BACKBONE|DICT|INTERRES
    41   19   21 2    
    42   20   99 1    
    43   20  100 1    
    44   22   23 am   BACKBONE|DICT|INTERRES
    45   22  101 1    
    46   23   24 2    
    47   23   25 1    
    48   25   26 1    
    49   25   27 1    
    50   25  102 1    
    51   26  103 1    
    52   26  104 1    
    53   26  105 1    
    54   27   28 am   BACKBONE|DICT|INTERRES
    55   27  106 1    
    56   28   29 2    
    57   28   30 1    
    58   30   31 1    
    59   30   32 1    
    60   30  107 1    
    61   31  108 1    
    62   31  109 1    
    63   31  110 1    
    64   32   33 am   BACKBONE|DICT|INTERRES
    65   32  111 1    
    66   33   34 2    
    67   33   35 1    
    68   35   36 1    
    69   35   37 1    
    70   35  112 1    
    71   36  113 1    
    72   36  114 1    
    73   36  115 1    
    74   37   38 am   BACKBONE|DICT|INTERRES
    75   37  116 1    
    76   38   39 2    
    77   38   40 1    
    78   40   41 1    
    79   40   42 1    
    80   40  117 1    
    81   41  118 1    
    82   41  119 1    
    83   41  120 1    
    84   42   43 am   BACKBONE|DICT|INTERRES
    85   42  121 1    
    86   43   44 2    
    87   43   45 1    
    88   45   46 1    
    89   45   47 1    
    90   45  122 1    
    91   46  123 1    
    92   46  124 1    
    93   46  125 1    
    94   47   48 am   BACKBONE|DICT|INTERRES
    95   47  126 1    
    96   48   49 2    
    97   48   50 1    
    98   50   51 1    
    99   50   52 1    
   100   50  127 1    
   101   51  128 1    
   102   51  129 1    
   103   51  130 1    
   104   52   53 am   BACKBONE|DICT|INTERRES
   105   52  131 1    
   106   53   54 2    
   107   53   55 1    
   108   55   56 1    
   109   55   59 1    
   110   55  132 1    
   111   56   57 1    
   112   56  133 1    
   113   56  134 1    
   114   57   58 1    
   115   58  135 1    
   116   58  136 1    
   117   59   60 am   BACKBONE|DICT|INTERRES
   118   59  137 1    
   119   60   61 2    
   120   60   62 1    
   121   62   63 1    
   122   62   64 1    
   123   62  138 1    
   124   63  139 1    
   125   63  140 1    
   126   63  141 1    
   127   64   65 am   BACKBONE|DICT|INTERRES
   128   64  142 1    
   129   65   66 2    
   130   65   67 1    
   131   67   68 1    
   132   67   69 1    
   133   67  143 1    
   134   68  144 1    
   135   68  145 1    
   136   68  146 1    
   137   69   70 am   BACKBONE|DICT|INTERRES
   138   69  147 1    
   139   70   71 2    
   140   70   72 1    
   141   72   73 1    
   142   72   74 1    
   143   72  148 1    
   144   73  149 1    
   145   73  150 1    
   146   73  151 1    
   147   74   75 am   BACKBONE|DICT|INTERRES
   148   74  152 1    
   149   75   76 2    
   150   75   77 1    
   151   77   78 1    
   152   77   79 1    
   153   77  153 1    
   154   78  154 1    
   155   78  155 1    
   156   78  156 1    
   157   79   80 am   BACKBONE|DICT|INTERRES
   158   79  157 1    
   159   80   81 2    
@<TRIPOS>SUBSTRUCTURE
     1 UNK         1 GROUP             0       ****    0 ROOT    
