@<TRIPOS>MOLECULE
3R207
157   159    1
SMALL
USER_CHARGES


@<TRIPOS>ATOM
      1 CA        -49.8324  -30.8591    8.4450 C.3       0 UNK        -0.1975 
      2 C         -49.5218  -29.5823    7.6838 C.2       0 UNK         0.4852 
      3 O         -48.7056  -28.7812    8.1401 O.2       0 UNK        -0.5216 
      4 N         -50.1403  -29.3962    6.5083 N.am      1 UNK        -0.4461 
      5 CA        -49.9543  -28.2395    5.6183 C.3       1 UNK         0.0864 
      6 C6        -50.5479  -26.9402    6.2326 C.3       14 UNK        -0.0898 
      7 S7        -51.0389  -25.7172    4.9711 S.3       14 UNK        -0.2598 
      8 C8        -52.7852  -26.1523    4.6780 C.3       14 UNK         0.0286 
      9 C9        -53.6638  -25.8793    5.8911 C.ar      14 UNK        -0.0844 
     10 C10       -53.8192  -24.5727    6.3636 C.ar      14 UNK        -0.0881 
     11 C11       -54.6001  -24.3102    7.4952 C.ar      14 UNK        -0.0643 
     12 C12       -55.2749  -25.3667    8.1123 C.ar      14 UNK        -0.0930 
     13 C13       -55.1424  -26.6760    7.6413 C.ar      14 UNK        -0.0827 
     14 C14       -54.3260  -26.9289    6.5358 C.ar      14 UNK        -0.1249 
     15 C15       -55.9105  -27.8051    8.3131 C.3       14 UNK         0.0141 
     16 S16       -55.4372  -28.0139   10.0575 S.3       14 UNK        -0.2313 
     17 C17       -53.9081  -28.9975    9.9169 C.3       14 UNK        -0.0915 
     18 CA        -53.5156  -29.5996   11.2928 C.3       13 UNK         0.0968 
     19 C         -52.4400  -30.7192   11.1752 C.2       13 UNK         0.5732 
     20 N         -51.3744  -30.7267   11.9682 N.am      13 UNK        -0.7310 
     21 O         -52.5853  -31.6217   10.3545 O.2       13 UNK        -0.5035 
     22 N         -53.1811  -28.5371   12.2499 N.am      13 UNK        -0.4233 
     23 C         -53.3574  -28.6112   13.5713 C.2       13 UNK         0.4989 
     24 O         -53.8716  -29.5678   14.1559 O.2       13 UNK        -0.4996 
     25 CA        -52.8881  -27.3863   14.3748 C.3       12 UNK         0.0216 
     26 CB        -54.1110  -26.6815   14.9894 C.3       12 UNK        -0.1964 
     27 N         -51.9023  -27.6827   15.4252 N.am      12 UNK        -0.4276 
     28 C         -50.8520  -28.5179   15.3451 C.2       12 UNK         0.5020 
     29 O         -50.5795  -29.1865   14.3470 O.2       12 UNK        -0.5489 
     30 CA        -49.9064  -28.6214   16.5576 C.3       11 UNK         0.0294 
     31 CB        -48.4935  -28.1379   16.1868 C.3       11 UNK        -0.2019 
     32 N         -50.3460  -27.8926   17.7481 N.am      11 UNK        -0.4493 
     33 C         -51.2877  -28.2850   18.6126 C.2       11 UNK         0.4932 
     34 O         -51.9476  -29.3147   18.4750 O.2       11 UNK        -0.5029 
     35 CA        -51.5485  -27.3858   19.8402 C.3       10 UNK         0.0280 
     36 CB        -50.6975  -27.8382   21.0429 C.3       10 UNK        -0.1976 
     37 N         -51.4104  -25.9397   19.5965 N.am      10 UNK        -0.4242 
     38 C         -50.3140  -25.2357   19.2780 C.2       10 UNK         0.5072 
     39 O         -49.1844  -25.7174   19.1705 O.2       10 UNK        -0.5224 
     40 CA        -50.5343  -23.7531   18.9311 C.3       9 UNK         0.0343 
     41 CB        -49.6155  -22.8464   19.7673 C.3       9 UNK        -0.2003 
     42 N         -50.3101  -23.4903   17.5048 N.am      9 UNK        -0.4272 
     43 C         -50.9598  -24.0911   16.4977 C.2       9 UNK         0.4988 
     44 O         -51.8177  -24.9608   16.6579 O.2       9 UNK        -0.5108 
     45 CA        -50.5598  -23.6778   15.0712 C.3       8 UNK         0.0248 
     46 CB        -49.4500  -24.5957   14.5338 C.3       8 UNK        -0.2001 
     47 N         -51.6959  -23.7249   14.1486 N.am      8 UNK        -0.4140 
     48 C         -52.7575  -22.9072   14.1874 C.2       8 UNK         0.5028 
     49 O         -52.8762  -21.9795   14.9909 O.2       8 UNK        -0.5428 
     50 CA        -53.8646  -23.1726   13.1432 C.3       7 UNK         0.0264 
     51 CB        -54.8130  -21.9693   12.9527 C.3       7 UNK        -0.1988 
     52 N         -53.3478  -23.6332   11.8460 N.am      7 UNK        -0.4454 
     53 C         -52.5038  -22.9784   11.0329 C.2       7 UNK         0.5027 
     54 O         -52.0176  -21.8733   11.2799 O.2       7 UNK        -0.5083 
     55 CA        -52.0975  -23.7222    9.7474 C.3       6 UNK         0.0844 
     56 C56       -51.8448  -22.7775    8.5418 C.3       14 UNK        -0.0967 
     57 S57       -53.2684  -21.8312    7.8778 S.3       14 UNK        -0.2604 
     58 C58       -54.7324  -22.9075    8.0874 C.3       14 UNK         0.0134 
     59 N         -50.9075  -24.5238   10.0141 N.am      6 UNK        -0.4116 
     60 C         -50.8605  -25.6850   10.6745 C.2       5 UNK         0.5034 
     61 O         -51.8549  -26.2255   11.1654 O.2       5 UNK        -0.5045 
     62 CA        -49.4724  -26.3487   10.8151 C.3       5 UNK         0.0224 
     63 CB        -49.5842  -27.8343   11.1917 C.3       5 UNK        -0.1978 
     64 N         -48.6260  -26.2241    9.6196 N.am      5 UNK        -0.4737 
     65 C         -47.9718  -25.1148    9.2427 C.2       4 UNK         0.5027 
     66 O         -48.0716  -24.0462    9.8475 O.2       4 UNK        -0.5211 
     67 CA        -47.1092  -25.1907    7.9680 C.3       4 UNK         0.0297 
     68 CB        -46.0394  -24.0803    7.8979 C.3       4 UNK        -0.1993 
     69 N         -46.5155  -26.5122    7.7455 N.am      4 UNK        -0.4486 
     70 C         -45.6298  -27.1586    8.5219 C.2       3 UNK         0.4961 
     71 O         -45.1327  -26.6764    9.5403 O.2       3 UNK        -0.5105 
     72 CA        -45.2328  -28.5912    8.1117 C.3       3 UNK         0.0299 
     73 CB        -45.5179  -29.5849    9.2524 C.3       3 UNK        -0.1972 
     74 N         -45.9408  -29.0403    6.9106 N.am      3 UNK        -0.4305 
     75 C         -45.4680  -28.9610    5.6583 C.2       2 UNK         0.5006 
     76 O         -44.3317  -28.5770    5.3798 O.2       2 UNK        -0.5106 
     77 CA        -46.4225  -29.3587    4.5130 C.3       2 UNK         0.0296 
     78 CB        -46.1273  -30.7931    4.0448 C.3       2 UNK        -0.2002 
     79 N         -47.8472  -29.2462    4.8481 N.am      2 UNK        -0.4032 
     80 C         -48.4804  -28.1034    5.1572 C.2       1 UNK         0.5000 
     81 O         -47.9179  -27.0072    5.1580 O.2       1 UNK        -0.5238 
     82 H82       -50.8081  -31.2626    8.1749 H         1 UNK         0.0889 
     83 H83       -49.8306  -30.6669    9.5167 H         1 UNK         0.0889 
     84 H84       -49.0751  -31.6139    8.2367 H         1 UNK         0.0889 
     85 H85       -50.7932  -30.0955    6.1809 H         1 UNK         0.3028 
     86 H86       -50.5243  -28.4760    4.7184 H         1 UNK         0.0864 
     87 H87       -51.4234  -27.1768    6.8382 H         1 UNK         0.0720 
     88 H88       -49.8459  -26.4731    6.9242 H         1 UNK         0.0720 
     89 H89       -52.8479  -27.1988    4.3761 H         1 UNK         0.0814 
     90 H90       -53.1562  -25.5685    3.8346 H         1 UNK         0.0814 
     91 H91       -53.3048  -23.7664    5.8597 H         1 UNK         0.1469 
     92 H92       -55.8999  -25.1752    8.9741 H         1 UNK         0.1381 
     93 H93       -54.2159  -27.9405    6.1697 H         1 UNK         0.1206 
     94 H94       -55.7802  -28.7478    7.7795 H         1 UNK         0.0813 
     95 H95       -56.9759  -27.5755    8.2677 H         1 UNK         0.0813 
     96 H96       -53.1086  -28.3680    9.5211 H         1 UNK         0.0638 
     97 H97       -54.0809  -29.7848    9.1813 H         1 UNK         0.0638 
     98 H98       -54.3976  -30.1194   11.6720 H         1 UNK         0.0568 
     99 H99       -50.7089  -31.4761   11.8785 H         1 UNK         0.3450 
    100 H100      -51.2473  -30.0350   12.7011 H         1 UNK         0.3450 
    101 H101      -52.7359  -27.7140   11.8510 H         1 UNK         0.2987 
    102 H102      -52.4050  -26.6869   13.6924 H         1 UNK         0.0766 
    103 H103      -53.8575  -25.7083   15.4043 H         1 UNK         0.0798 
    104 H104      -54.5578  -27.2786   15.7854 H         1 UNK         0.0798 
    105 H105      -54.8846  -26.5119   14.2389 H         1 UNK         0.0798 
    106 H106      -51.9832  -27.1238   16.2658 H         1 UNK         0.3198 
    107 H107      -49.8434  -29.6814   16.8129 H         1 UNK         0.0843 
    108 H108      -48.4781  -27.0722   15.9599 H         1 UNK         0.0831 
    109 H109      -48.1124  -28.6644   15.3105 H         1 UNK         0.0831 
    110 H110      -47.7889  -28.3161   16.9993 H         1 UNK         0.0831 
    111 H111      -49.8302  -27.0505   17.9904 H         1 UNK         0.3133 
    112 H112      -52.5954  -27.5336   20.1098 H         1 UNK         0.0566 
    113 H113      -50.9270  -27.2539   21.9339 H         1 UNK         0.0814 
    114 H114      -50.8909  -28.8846   21.2832 H         1 UNK         0.0814 
    115 H115      -49.6289  -27.7457   20.8466 H         1 UNK         0.0814 
    116 H116      -52.2880  -25.4377   19.5812 H         1 UNK         0.3091 
    117 H117      -51.5688  -23.4863   19.1574 H         1 UNK         0.0702 
    118 H118      -49.8180  -21.7920   19.5783 H         1 UNK         0.0785 
    119 H119      -48.5617  -23.0302   19.5530 H         1 UNK         0.0785 
    120 H120      -49.7653  -23.0178   20.8342 H         1 UNK         0.0785 
    121 H121      -49.5950  -22.8130   17.2830 H         1 UNK         0.2998 
    122 H122      -50.1864  -22.6518   15.0960 H         1 UNK         0.0697 
    123 H123      -49.7949  -25.6244   14.4221 H         1 UNK         0.0825 
    124 H124      -48.5909  -24.6088   15.2059 H         1 UNK         0.0825 
    125 H125      -49.0915  -24.2529   13.5631 H         1 UNK         0.0825 
    126 H126      -51.6933  -24.4637   13.4629 H         1 UNK         0.3029 
    127 H127      -54.4601  -23.9939   13.5438 H         1 UNK         0.0897 
    128 H128      -55.5964  -22.1917   12.2282 H         1 UNK         0.0792 
    129 H129      -54.2788  -21.0833   12.6080 H         1 UNK         0.0792 
    130 H130      -55.3058  -21.7068   13.8897 H         1 UNK         0.0792 
    131 H131      -53.6245  -24.5670   11.5698 H         1 UNK         0.3086 
    132 H132      -52.8924  -24.4199    9.4883 H         1 UNK         0.0583 
    133 H133      -51.0539  -22.0635    8.7803 H         1 UNK         0.1020 
    134 H134      -51.4538  -23.3670    7.7104 H         1 UNK         0.1020 
    135 H135      -54.9637  -22.9663    9.1520 H         1 UNK         0.0694 
    136 H136      -55.5866  -22.4179    7.6184 H         1 UNK         0.0694 
    137 H137      -50.0171  -24.1210    9.7406 H         1 UNK         0.2989 
    138 H138      -48.9655  -25.8403   11.6375 H         1 UNK         0.1055 
    139 H139      -50.0750  -27.9505   12.1565 H         1 UNK         0.0806 
    140 H140      -48.6048  -28.3067   11.2687 H         1 UNK         0.0806 
    141 H141      -50.1709  -28.3894   10.4602 H         1 UNK         0.0806 
    142 H142      -48.5282  -27.0644    9.0533 H         1 UNK         0.3061 
    143 H143      -47.7962  -25.0296    7.1360 H         1 UNK         0.0734 
    144 H144      -45.4515  -24.1529    6.9830 H         1 UNK         0.0832 
    145 H145      -46.5007  -23.0921    7.9069 H         1 UNK         0.0832 
    146 H146      -45.3529  -24.1239    8.7439 H         1 UNK         0.0832 
    147 H147      -46.8646  -26.9904    6.9218 H         1 UNK         0.3156 
    148 H148      -44.1564  -28.5893    7.9286 H         1 UNK         0.0589 
    149 H149      -46.5726  -29.5936    9.5294 H         1 UNK         0.0808 
    150 H150      -45.2350  -30.6003    8.9747 H         1 UNK         0.0808 
    151 H151      -44.9507  -29.3263   10.1475 H         1 UNK         0.0808 
    152 H152      -46.9032  -29.3198    7.0559 H         1 UNK         0.3098 
    153 H153      -46.2260  -28.6802    3.6801 H         1 UNK         0.0720 
    154 H154      -45.0804  -30.9024    3.7576 H         1 UNK         0.0791 
    155 H155      -46.7280  -31.0594    3.1748 H         1 UNK         0.0791 
    156 H156      -46.3273  -31.5239    4.8296 H         1 UNK         0.0791 
    157 H157      -48.3726  -30.1080    4.8853 H         1 UNK         0.3028 
@<TRIPOS>BOND
     1    1    2 1    
     2    1   82 1    
     3    1   83 1    
     4    1   84 1    
     5    2    3 2    
     6    2    4 am   BACKBONE|DICT|INTERRES
     7    4    5 1    
     8    4   85 1    
     9    5    6 1    
    10    5   80 1    
    11    5   86 1    
    12    6    7 1    
    13    6   87 1    
    14    6   88 1    
    15    7    8 1    
    16    8    9 1    
    17    8   89 1    
    18    8   90 1    
    19    9   10 ar   
    20    9   14 ar   
    21   10   11 ar   
    22   10   91 1    
    23   11   12 ar   
    24   11   58 1    
    25   12   13 ar   
    26   12   92 1    
    27   13   14 ar   
    28   13   15 1    
    29   14   93 1    
    30   15   16 1    
    31   15   94 1    
    32   15   95 1    
    33   16   17 1    
    34   17   18 1    
    35   17   96 1    
    36   17   97 1    
    37   18   19 1    
    38   18   22 1    
    39   18   98 1    
    40   19   20 am   BACKBONE|DICT|INTERRES
    41   19   21 2    
    42   20   99 1    
    43   20  100 1    
    44   22   23 am   BACKBONE|DICT|INTERRES
    45   22  101 1    
    46   23   24 2    
    47   23   25 1    
    48   25   26 1    
    49   25   27 1    
    50   25  102 1    
    51   26  103 1    
    52   26  104 1    
    53   26  105 1    
    54   27   28 am   BACKBONE|DICT|INTERRES
    55   27  106 1    
    56   28   29 2    
    57   28   30 1    
    58   30   31 1    
    59   30   32 1    
    60   30  107 1    
    61   31  108 1    
    62   31  109 1    
    63   31  110 1    
    64   32   33 am   BACKBONE|DICT|INTERRES
    65   32  111 1    
    66   33   34 2    
    67   33   35 1    
    68   35   36 1    
    69   35   37 1    
    70   35  112 1    
    71   36  113 1    
    72   36  114 1    
    73   36  115 1    
    74   37   38 am   BACKBONE|DICT|INTERRES
    75   37  116 1    
    76   38   39 2    
    77   38   40 1    
    78   40   41 1    
    79   40   42 1    
    80   40  117 1    
    81   41  118 1    
    82   41  119 1    
    83   41  120 1    
    84   42   43 am   BACKBONE|DICT|INTERRES
    85   42  121 1    
    86   43   44 2    
    87   43   45 1    
    88   45   46 1    
    89   45   47 1    
    90   45  122 1    
    91   46  123 1    
    92   46  124 1    
    93   46  125 1    
    94   47   48 am   BACKBONE|DICT|INTERRES
    95   47  126 1    
    96   48   49 2    
    97   48   50 1    
    98   50   51 1    
    99   50   52 1    
   100   50  127 1    
   101   51  128 1    
   102   51  129 1    
   103   51  130 1    
   104   52   53 am   BACKBONE|DICT|INTERRES
   105   52  131 1    
   106   53   54 2    
   107   53   55 1    
   108   55   56 1    
   109   55   59 1    
   110   55  132 1    
   111   56   57 1    
   112   56  133 1    
   113   56  134 1    
   114   57   58 1    
   115   58  135 1    
   116   58  136 1    
   117   59   60 am   BACKBONE|DICT|INTERRES
   118   59  137 1    
   119   60   61 2    
   120   60   62 1    
   121   62   63 1    
   122   62   64 1    
   123   62  138 1    
   124   63  139 1    
   125   63  140 1    
   126   63  141 1    
   127   64   65 am   BACKBONE|DICT|INTERRES
   128   64  142 1    
   129   65   66 2    
   130   65   67 1    
   131   67   68 1    
   132   67   69 1    
   133   67  143 1    
   134   68  144 1    
   135   68  145 1    
   136   68  146 1    
   137   69   70 am   BACKBONE|DICT|INTERRES
   138   69  147 1    
   139   70   71 2    
   140   70   72 1    
   141   72   73 1    
   142   72   74 1    
   143   72  148 1    
   144   73  149 1    
   145   73  150 1    
   146   73  151 1    
   147   74   75 am   BACKBONE|DICT|INTERRES
   148   74  152 1    
   149   75   76 2    
   150   75   77 1    
   151   77   78 1    
   152   77   79 1    
   153   77  153 1    
   154   78  154 1    
   155   78  155 1    
   156   78  156 1    
   157   79   80 am   BACKBONE|DICT|INTERRES
   158   79  157 1    
   159   80   81 2    
@<TRIPOS>SUBSTRUCTURE
     1 UNK         1 GROUP             0       ****    0 ROOT    
