@<TRIPOS>MOLECULE
3R207
157   159    1
SMALL
USER_CHARGES


@<TRIPOS>ATOM
      1 CA        -53.0591  -22.1705    7.4964 C.3       0 UNK        -0.1975 
      2 C         -51.7450  -22.9214    7.6447 C.2       0 UNK         0.4852 
      3 O         -50.7147  -22.3089    7.9243 O.2       0 UNK        -0.5216 
      4 N         -51.7638  -24.2447    7.4434 N.am      1 UNK        -0.4461 
      5 CA        -50.6327  -25.1761    7.5776 C.3       1 UNK         0.0864 
      6 C6        -51.1387  -26.6121    7.8821 C.3       14 UNK        -0.0898 
      7 S7        -52.3587  -27.2271    6.6637 S.3       14 UNK        -0.2598 
      8 C8        -51.7519  -28.9087    6.3256 C.3       14 UNK         0.0286 
      9 C9        -52.0450  -29.8502    7.4850 C.ar      14 UNK        -0.0844 
     10 C10       -51.0204  -30.2479    8.3477 C.ar      14 UNK        -0.0881 
     11 C11       -51.2880  -31.0915    9.4320 C.ar      14 UNK        -0.0643 
     12 C12       -52.5882  -31.5691    9.6195 C.ar      14 UNK        -0.0930 
     13 C13       -53.6205  -31.1927    8.7552 C.ar      14 UNK        -0.0827 
     14 C14       -53.3428  -30.3287    7.6915 C.ar      14 UNK        -0.1249 
     15 C15       -55.0312  -31.7302    8.9653 C.3       14 UNK         0.0141 
     16 S16       -55.7424  -31.2349   10.5697 S.3       14 UNK        -0.2313 
     17 C17       -55.8186  -29.4225   10.3949 C.3       14 UNK        -0.0915 
     18 CA        -54.6441  -28.6922   11.1016 C.3       13 UNK         0.0968 
     19 C         -54.6418  -27.1824   10.7473 C.2       13 UNK         0.5732 
     20 N         -54.2869  -26.8339    9.5202 N.am      13 UNK        -0.7310 
     21 O         -54.9808  -26.3226   11.5597 O.2       13 UNK        -0.5035 
     22 N         -54.6867  -28.8443   12.5587 N.am      13 UNK        -0.4233 
     23 C         -53.8937  -29.6113   13.3111 C.2       13 UNK         0.4989 
     24 O         -53.1495  -30.4812   12.8588 O.2       13 UNK        -0.4996 
     25 CA        -53.9156  -29.3324   14.8290 C.3       12 UNK         0.0216 
     26 CB        -52.7382  -29.9974   15.5665 C.3       12 UNK        -0.1964 
     27 N         -53.8904  -27.8936   15.1152 N.am      12 UNK        -0.4276 
     28 C         -54.9571  -27.0841   15.1102 C.2       12 UNK         0.5020 
     29 O         -56.0999  -27.4839   14.8782 O.2       12 UNK        -0.5489 
     30 CA        -54.6993  -25.5850   15.3586 C.3       11 UNK         0.0294 
     31 CB        -55.9952  -24.7888   15.6229 C.3       11 UNK        -0.2019 
     32 N         -53.7071  -25.3213   16.4090 N.am      11 UNK        -0.4493 
     33 C         -53.7737  -25.7119   17.6922 C.2       11 UNK         0.4932 
     34 O         -54.7001  -26.3772   18.1592 O.2       11 UNK        -0.5029 
     35 CA        -52.6244  -25.2590   18.6163 C.3       10 UNK         0.0280 
     36 CB        -52.5804  -26.0440   19.9452 C.3       10 UNK        -0.1976 
     37 N         -51.3042  -25.2645   17.9762 N.am      10 UNK        -0.4242 
     38 C         -50.6542  -26.3044   17.4353 C.2       10 UNK         0.5072 
     39 O         -51.1250  -27.4397   17.3515 O.2       10 UNK        -0.5224 
     40 CA        -49.2318  -26.0129   16.9090 C.3       9 UNK         0.0343 
     41 CB        -48.5325  -27.2736   16.3683 C.3       9 UNK        -0.2003 
     42 N         -49.2192  -24.9865   15.8647 N.am      9 UNK        -0.4272 
     43 C         -49.4171  -23.6725   16.0387 C.2       9 UNK         0.4988 
     44 O         -49.5893  -23.1471   17.1398 O.2       9 UNK        -0.5108 
     45 CA        -49.4791  -22.8067   14.7704 C.3       8 UNK         0.0248 
     46 CB        -48.0759  -22.3239   14.3684 C.3       8 UNK        -0.2001 
     47 N         -50.1012  -23.5169   13.6498 N.am      8 UNK        -0.4140 
     48 C         -51.4091  -23.8007   13.5678 C.2       8 UNK         0.5028 
     49 O         -52.2384  -23.4501   14.4078 O.2       8 UNK        -0.5428 
     50 CA        -51.8629  -24.6455   12.3644 C.3       7 UNK         0.0264 
     51 CB        -52.0759  -23.7685   11.1226 C.3       7 UNK        -0.1988 
     52 N         -50.9306  -25.7291   12.0476 N.am      7 UNK        -0.4454 
     53 C         -50.7455  -26.8070   12.8236 C.2       7 UNK         0.5027 
     54 O         -51.3744  -27.0147   13.8613 O.2       7 UNK        -0.5083 
     55 CA        -49.6629  -27.8132   12.3775 C.3       6 UNK         0.0844 
     56 C56       -50.2874  -28.8798   11.4516 C.3       14 UNK        -0.0967 
     57 S57       -49.0843  -30.1332   10.8962 S.3       14 UNK        -0.2604 
     58 C58       -50.1887  -31.5018   10.4089 C.3       14 UNK         0.0134 
     59 N         -48.4752  -27.1993   11.7689 N.am      6 UNK        -0.4116 
     60 C         -47.7115  -26.2300   12.2891 C.2       5 UNK         0.5034 
     61 O         -47.9890  -25.6343   13.3291 O.2       5 UNK        -0.5045 
     62 CA        -46.4125  -25.8630   11.5463 C.3       5 UNK         0.0224 
     63 CB        -45.2025  -25.9708   12.4906 C.3       5 UNK        -0.1978 
     64 N         -46.1521  -26.6772   10.3516 N.am      5 UNK        -0.4737 
     65 C         -46.6873  -26.4561    9.1453 C.2       4 UNK         0.5027 
     66 O         -47.5183  -25.5754    8.9212 O.2       4 UNK        -0.5211 
     67 CA        -46.2507  -27.4106    8.0255 C.3       4 UNK         0.0297 
     68 CB        -47.2302  -28.5862    7.8975 C.3       4 UNK        -0.1993 
     69 N         -46.1954  -26.7038    6.7474 N.am      4 UNK        -0.4486 
     70 C         -45.0689  -26.2409    6.1877 C.2       3 UNK         0.4961 
     71 O         -43.9527  -26.3718    6.6925 O.2       3 UNK        -0.5105 
     72 CA        -45.1810  -25.5302    4.8257 C.3       3 UNK         0.0299 
     73 CB        -44.7904  -26.4889    3.6889 C.3       3 UNK        -0.1972 
     74 N         -46.5134  -24.9902    4.5559 N.am      3 UNK        -0.4305 
     75 C         -47.0289  -23.9036    5.1438 C.2       2 UNK         0.5006 
     76 O         -46.4144  -23.1996    5.9464 O.2       2 UNK        -0.5106 
     77 CA        -48.4802  -23.5382    4.7883 C.3       2 UNK         0.0296 
     78 CB        -48.9738  -24.1230    3.4443 C.3       2 UNK        -0.2002 
     79 N         -49.3912  -23.8921    5.8788 N.am      2 UNK        -0.4032 
     80 C         -49.6225  -25.1061    6.4016 C.2       1 UNK         0.5000 
     81 O         -49.0728  -26.1335    5.9929 O.2       1 UNK        -0.5238 
     82 H82       -52.9712  -21.4085    6.7225 H         1 UNK         0.0889 
     83 H83       -53.3148  -21.6772    8.4338 H         1 UNK         0.0889 
     84 H84       -53.8803  -22.8347    7.2277 H         1 UNK         0.0889 
     85 H85       -52.6258  -24.6869    7.1554 H         1 UNK         0.3028 
     86 H86       -50.0613  -24.8577    8.4519 H         1 UNK         0.0864 
     87 H87       -50.3051  -27.3082    7.9682 H         1 UNK         0.0720 
     88 H88       -51.6157  -26.6234    8.8621 H         1 UNK         0.0720 
     89 H89       -50.6842  -28.8748    6.1015 H         1 UNK         0.0814 
     90 H90       -52.2398  -29.2846    5.4253 H         1 UNK         0.0814 
     91 H91       -50.0147  -29.8867    8.1872 H         1 UNK         0.1469 
     92 H92       -52.8063  -32.2241   10.4523 H         1 UNK         0.1381 
     93 H93       -54.1351  -30.0262    7.0202 H         1 UNK         0.1206 
     94 H94       -55.6973  -31.4057    8.1644 H         1 UNK         0.0813 
     95 H95       -55.0038  -32.8195    8.9160 H         1 UNK         0.0813 
     96 H96       -55.8433  -29.1817    9.3305 H         1 UNK         0.0638 
     97 H97       -56.7734  -29.0833   10.8005 H         1 UNK         0.0638 
     98 H98       -53.6977  -29.0917   10.7333 H         1 UNK         0.0568 
     99 H99       -54.3153  -25.8596    9.2716 H         1 UNK         0.3450 
    100 H100      -54.0079  -27.5200    8.8356 H         1 UNK         0.3450 
    101 H101      -55.2595  -28.1548   13.0328 H         1 UNK         0.2987 
    102 H102      -54.8405  -29.7592   15.2219 H         1 UNK         0.0766 
    103 H103      -52.7491  -31.0799   15.4335 H         1 UNK         0.0798 
    104 H104      -52.7815  -29.8021   16.6383 H         1 UNK         0.0798 
    105 H105      -51.7781  -29.6295   15.2010 H         1 UNK         0.0798 
    106 H106      -52.9682  -27.4796   15.2127 H         1 UNK         0.3198 
    107 H107      -54.2741  -25.2038   14.4309 H         1 UNK         0.0843 
    108 H108      -56.6850  -24.8766   14.7825 H         1 UNK         0.0831 
    109 H109      -55.7875  -23.7275   15.7589 H         1 UNK         0.0831 
    110 H110      -56.5173  -25.1471   16.5105 H         1 UNK         0.0831 
    111 H111      -52.9099  -24.7701   16.1120 H         1 UNK         0.3133 
    112 H112      -52.8331  -24.2166   18.8605 H         1 UNK         0.0566 
    113 H113      -51.7795  -25.6862   20.5921 H         1 UNK         0.0814 
    114 H114      -52.4263  -27.1107   19.7783 H         1 UNK         0.0814 
    115 H115      -53.5139  -25.9331   20.4984 H         1 UNK         0.0814 
    116 H116      -50.8238  -24.3681   17.9389 H         1 UNK         0.3091 
    117 H117      -48.6452  -25.6461   17.7538 H         1 UNK         0.0702 
    118 H118      -47.5246  -27.0516   16.0168 H         1 UNK         0.0785 
    119 H119      -49.0876  -27.7129   15.5399 H         1 UNK         0.0785 
    120 H120      -48.4468  -28.0359   17.1437 H         1 UNK         0.0785 
    121 H121      -49.0307  -25.3114   14.9207 H         1 UNK         0.2998 
    122 H122      -50.0878  -21.9287   14.9970 H         1 UNK         0.0697 
    123 H123      -47.4086  -23.1545   14.1361 H         1 UNK         0.0825 
    124 H124      -47.6153  -21.7553   15.1774 H         1 UNK         0.0825 
    125 H125      -48.1154  -21.6707   13.4966 H         1 UNK         0.0825 
    126 H126      -49.4748  -23.9081   12.9604 H         1 UNK         0.3029 
    127 H127      -52.8227  -25.0955   12.6222 H         1 UNK         0.0897 
    128 H128      -52.7706  -22.9545   11.3345 H         1 UNK         0.0792 
    129 H129      -52.5020  -24.3487   10.3046 H         1 UNK         0.0792 
    130 H130      -51.1445  -23.3212   10.7728 H         1 UNK         0.0792 
    131 H131      -50.3640  -25.6265   11.2189 H         1 UNK         0.3086 
    132 H132      -49.3148  -28.3212   13.2783 H         1 UNK         0.0583 
    133 H133      -51.0943  -29.3943   11.9709 H         1 UNK         0.1020 
    134 H134      -50.7366  -28.4167   10.5710 H         1 UNK         0.1020 
    135 H135      -49.5909  -32.2927    9.9545 H         1 UNK         0.0694 
    136 H136      -50.6248  -31.9235   11.3162 H         1 UNK         0.0694 
    137 H137      -48.1492  -27.6389   10.9214 H         1 UNK         0.2989 
    138 H138      -46.5113  -24.8179   11.2434 H         1 UNK         0.1055 
    139 H139      -45.0611  -26.9902   12.8518 H         1 UNK         0.0806 
    140 H140      -44.2830  -25.6581   11.9954 H         1 UNK         0.0806 
    141 H141      -45.3270  -25.3306   13.3654 H         1 UNK         0.0806 
    142 H142      -45.4944  -27.4372   10.4611 H         1 UNK         0.3061 
    143 H143      -45.2677  -27.8176    8.2727 H         1 UNK         0.0734 
    144 H144      -48.2408  -28.2470    7.6751 H         1 UNK         0.0832 
    145 H145      -46.9273  -29.2679    7.1027 H         1 UNK         0.0832 
    146 H146      -47.2671  -29.1659    8.8191 H         1 UNK         0.0832 
    147 H147      -47.0921  -26.4833    6.3228 H         1 UNK         0.3156 
    148 H148      -44.4700  -24.7011    4.8290 H         1 UNK         0.0589 
    149 H149      -44.7936  -25.9830    2.7231 H         1 UNK         0.0808 
    150 H150      -43.7855  -26.8855    3.8410 H         1 UNK         0.0808 
    151 H151      -45.4698  -27.3400    3.6263 H         1 UNK         0.0808 
    152 H152      -47.1068  -25.5218    3.9351 H         1 UNK         0.3098 
    153 H153      -48.5093  -22.4509    4.7016 H         1 UNK         0.0720 
    154 H154      -49.9587  -23.7306    3.1908 H         1 UNK         0.0791 
    155 H155      -49.0534  -25.2103    3.4614 H         1 UNK         0.0791 
    156 H156      -48.3035  -23.8512    2.6277 H         1 UNK         0.0791 
    157 H157      -49.8268  -23.1118    6.3615 H         1 UNK         0.3028 
@<TRIPOS>BOND
     1    1    2 1    
     2    1   82 1    
     3    1   83 1    
     4    1   84 1    
     5    2    3 2    
     6    2    4 am   BACKBONE|DICT|INTERRES
     7    4    5 1    
     8    4   85 1    
     9    5    6 1    
    10    5   80 1    
    11    5   86 1    
    12    6    7 1    
    13    6   87 1    
    14    6   88 1    
    15    7    8 1    
    16    8    9 1    
    17    8   89 1    
    18    8   90 1    
    19    9   10 ar   
    20    9   14 ar   
    21   10   11 ar   
    22   10   91 1    
    23   11   12 ar   
    24   11   58 1    
    25   12   13 ar   
    26   12   92 1    
    27   13   14 ar   
    28   13   15 1    
    29   14   93 1    
    30   15   16 1    
    31   15   94 1    
    32   15   95 1    
    33   16   17 1    
    34   17   18 1    
    35   17   96 1    
    36   17   97 1    
    37   18   19 1    
    38   18   22 1    
    39   18   98 1    
    40   19   20 am   BACKBONE|DICT|INTERRES
    41   19   21 2    
    42   20   99 1    
    43   20  100 1    
    44   22   23 am   BACKBONE|DICT|INTERRES
    45   22  101 1    
    46   23   24 2    
    47   23   25 1    
    48   25   26 1    
    49   25   27 1    
    50   25  102 1    
    51   26  103 1    
    52   26  104 1    
    53   26  105 1    
    54   27   28 am   BACKBONE|DICT|INTERRES
    55   27  106 1    
    56   28   29 2    
    57   28   30 1    
    58   30   31 1    
    59   30   32 1    
    60   30  107 1    
    61   31  108 1    
    62   31  109 1    
    63   31  110 1    
    64   32   33 am   BACKBONE|DICT|INTERRES
    65   32  111 1    
    66   33   34 2    
    67   33   35 1    
    68   35   36 1    
    69   35   37 1    
    70   35  112 1    
    71   36  113 1    
    72   36  114 1    
    73   36  115 1    
    74   37   38 am   BACKBONE|DICT|INTERRES
    75   37  116 1    
    76   38   39 2    
    77   38   40 1    
    78   40   41 1    
    79   40   42 1    
    80   40  117 1    
    81   41  118 1    
    82   41  119 1    
    83   41  120 1    
    84   42   43 am   BACKBONE|DICT|INTERRES
    85   42  121 1    
    86   43   44 2    
    87   43   45 1    
    88   45   46 1    
    89   45   47 1    
    90   45  122 1    
    91   46  123 1    
    92   46  124 1    
    93   46  125 1    
    94   47   48 am   BACKBONE|DICT|INTERRES
    95   47  126 1    
    96   48   49 2    
    97   48   50 1    
    98   50   51 1    
    99   50   52 1    
   100   50  127 1    
   101   51  128 1    
   102   51  129 1    
   103   51  130 1    
   104   52   53 am   BACKBONE|DICT|INTERRES
   105   52  131 1    
   106   53   54 2    
   107   53   55 1    
   108   55   56 1    
   109   55   59 1    
   110   55  132 1    
   111   56   57 1    
   112   56  133 1    
   113   56  134 1    
   114   57   58 1    
   115   58  135 1    
   116   58  136 1    
   117   59   60 am   BACKBONE|DICT|INTERRES
   118   59  137 1    
   119   60   61 2    
   120   60   62 1    
   121   62   63 1    
   122   62   64 1    
   123   62  138 1    
   124   63  139 1    
   125   63  140 1    
   126   63  141 1    
   127   64   65 am   BACKBONE|DICT|INTERRES
   128   64  142 1    
   129   65   66 2    
   130   65   67 1    
   131   67   68 1    
   132   67   69 1    
   133   67  143 1    
   134   68  144 1    
   135   68  145 1    
   136   68  146 1    
   137   69   70 am   BACKBONE|DICT|INTERRES
   138   69  147 1    
   139   70   71 2    
   140   70   72 1    
   141   72   73 1    
   142   72   74 1    
   143   72  148 1    
   144   73  149 1    
   145   73  150 1    
   146   73  151 1    
   147   74   75 am   BACKBONE|DICT|INTERRES
   148   74  152 1    
   149   75   76 2    
   150   75   77 1    
   151   77   78 1    
   152   77   79 1    
   153   77  153 1    
   154   78  154 1    
   155   78  155 1    
   156   78  156 1    
   157   79   80 am   BACKBONE|DICT|INTERRES
   158   79  157 1    
   159   80   81 2    
@<TRIPOS>SUBSTRUCTURE
     1 UNK         1 GROUP             0       ****    0 ROOT    
