@<TRIPOS>MOLECULE
3R207
157   159    1
SMALL
USER_CHARGES


@<TRIPOS>ATOM
      1 CA        -52.5242  -22.5193    8.6960 C.3       0 UNK        -0.1975 
      2 C         -51.8695  -23.8202    8.2584 C.2       0 UNK         0.4852 
      3 O         -50.9182  -24.2711    8.8926 O.2       0 UNK        -0.5216 
      4 N         -52.3569  -24.4317    7.1728 N.am      1 UNK        -0.4461 
      5 CA        -51.8487  -25.6931    6.6218 C.3       1 UNK         0.0864 
      6 C6        -52.9236  -26.4136    5.7659 C.3       14 UNK        -0.0898 
      7 S7        -54.3952  -26.8851    6.7398 S.3       14 UNK        -0.2598 
      8 C8        -54.1687  -28.6833    6.9339 C.3       14 UNK         0.0286 
      9 C9        -53.1055  -29.0148    7.9719 C.ar      14 UNK        -0.0844 
     10 C10       -51.7683  -29.1623    7.5920 C.ar      14 UNK        -0.0881 
     11 C11       -50.7830  -29.4526    8.5402 C.ar      14 UNK        -0.0643 
     12 C12       -51.1570  -29.6388    9.8771 C.ar      14 UNK        -0.0930 
     13 C13       -52.4903  -29.4951   10.2701 C.ar      14 UNK        -0.0827 
     14 C14       -53.4604  -29.1811    9.3139 C.ar      14 UNK        -0.1249 
     15 C15       -52.8781  -29.6612   11.7304 C.3       14 UNK         0.0141 
     16 S16       -53.1485  -31.4102   12.1449 S.3       14 UNK        -0.2313 
     17 C17       -53.7488  -31.2719   13.8626 C.3       14 UNK        -0.0915 
     18 CA        -55.2888  -31.4385   13.9623 C.3       13 UNK         0.0968 
     19 C         -55.7645  -31.5461   15.4411 C.2       13 UNK         0.5732 
     20 N         -56.6830  -30.7148   15.9222 N.am      13 UNK        -0.7310 
     21 O         -55.2990  -32.4191   16.1696 O.2       13 UNK        -0.5035 
     22 N         -55.9952  -30.4062   13.1909 N.am      13 UNK        -0.4233 
     23 C         -57.1787  -30.5801   12.5882 C.2       13 UNK         0.4989 
     24 O         -57.7635  -31.6639   12.5380 O.2       13 UNK        -0.4996 
     25 CA        -57.8210  -29.3376   11.9301 C.3       12 UNK         0.0216 
     26 CB        -59.3616  -29.4281   11.8804 C.3       12 UNK        -0.1964 
     27 N         -57.4022  -28.0592   12.5246 N.am      12 UNK        -0.4276 
     28 C         -57.5209  -27.6923   13.8086 C.2       12 UNK         0.5020 
     29 O         -58.0334  -28.3893   14.6881 O.2       12 UNK        -0.5489 
     30 CA        -56.9119  -26.3327   14.1852 C.3       11 UNK         0.0294 
     31 CB        -58.0120  -25.3343   14.5805 C.3       11 UNK        -0.2019 
     32 N         -55.9507  -26.4617   15.2833 N.am      11 UNK        -0.4493 
     33 C         -54.8371  -27.2062   15.2482 C.2       11 UNK         0.4932 
     34 O         -54.4864  -27.8792   14.2750 O.2       11 UNK        -0.5029 
     35 CA        -53.9977  -27.2254   16.5375 C.3       10 UNK         0.0280 
     36 CB        -54.4142  -28.4058   17.4291 C.3       10 UNK        -0.1976 
     37 N         -52.5617  -27.3174   16.2663 N.am      10 UNK        -0.4242 
     38 C         -51.8338  -26.3733   15.6558 C.2       10 UNK         0.5072 
     39 O         -52.2865  -25.2827   15.2956 O.2       10 UNK        -0.5224 
     40 CA        -50.3548  -26.7254   15.4132 C.3       9 UNK         0.0343 
     41 CB        -50.2176  -27.8390   14.3590 C.3       9 UNK        -0.2003 
     42 N         -49.5890  -25.5548   14.9776 N.am      9 UNK        -0.4272 
     43 C         -49.0860  -24.6271   15.8064 C.2       9 UNK         0.4988 
     44 O         -49.1803  -24.6989   17.0333 O.2       9 UNK        -0.5108 
     45 CA        -48.3382  -23.4238   15.1976 C.3       8 UNK         0.0248 
     46 CB        -46.8782  -23.3887   15.6841 C.3       8 UNK        -0.2001 
     47 N         -48.3425  -23.4374   13.7335 N.am      8 UNK        -0.4140 
     48 C         -49.1407  -22.6899   12.9571 C.2       8 UNK         0.5028 
     49 O         -49.9230  -21.8456   13.3963 O.2       8 UNK        -0.5428 
     50 CA        -49.0708  -22.9111   11.4310 C.3       7 UNK         0.0264 
     51 CB        -48.2498  -21.7985   10.7587 C.3       7 UNK        -0.1988 
     52 N         -48.5307  -24.2106   11.0205 N.am      7 UNK        -0.4454 
     53 C         -49.0512  -25.4021   11.3445 C.2       7 UNK         0.5027 
     54 O         -50.0715  -25.5329   12.0192 O.2       7 UNK        -0.5083 
     55 CA        -48.2551  -26.6604   10.9378 C.3       6 UNK         0.0844 
     56 C56       -48.7062  -27.1947    9.5596 C.3       14 UNK        -0.0967 
     57 S57       -48.1111  -28.8984    9.2877 S.3       14 UNK        -0.2604 
     58 C58       -49.3259  -29.5536    8.0914 C.3       14 UNK         0.0134 
     59 N         -46.7980  -26.4792   11.0083 N.am      6 UNK        -0.4116 
     60 C         -46.1030  -26.0708   12.0779 C.2       5 UNK         0.5034 
     61 O         -46.6279  -25.7544   13.1456 O.2       5 UNK        -0.5045 
     62 CA        -44.5715  -25.9648   11.9588 C.3       5 UNK         0.0224 
     63 CB        -43.8947  -27.2475   12.4799 C.3       5 UNK        -0.1978 
     64 N         -44.0534  -25.5859   10.6340 N.am      5 UNK        -0.4737 
     65 C         -44.0699  -26.2759    9.4868 C.2       4 UNK         0.5027 
     66 O         -44.6397  -27.3577    9.3439 O.2       4 UNK        -0.5211 
     67 CA        -43.3634  -25.6128    8.2911 C.3       4 UNK         0.0297 
     68 CB        -42.9909  -26.6309    7.1975 C.3       4 UNK        -0.1993 
     69 N         -44.2035  -24.5732    7.7006 N.am      4 UNK        -0.4486 
     70 C         -44.4459  -23.3644    8.2259 C.2       3 UNK         0.4961 
     71 O         -43.9177  -22.9508    9.2591 O.2       3 UNK        -0.5105 
     72 CA        -45.4510  -22.4671    7.4769 C.3       3 UNK         0.0299 
     73 CB        -44.7086  -21.4218    6.6291 C.3       3 UNK        -0.1972 
     74 N         -46.3786  -23.2171    6.6200 N.am      3 UNK        -0.4305 
     75 C         -47.3389  -24.0277    7.0828 C.2       2 UNK         0.5006 
     76 O         -47.5636  -24.2035    8.2812 O.2       2 UNK        -0.5106 
     77 CA        -48.1317  -24.8184    6.0373 C.3       2 UNK         0.0296 
     78 CB        -47.3995  -26.1294    5.6869 C.3       2 UNK        -0.2002 
     79 N         -49.4632  -25.1066    6.5638 N.am      2 UNK        -0.4032 
     80 C         -50.5330  -25.4622    5.8426 C.2       1 UNK         0.5000 
     81 O         -50.5129  -25.5868    4.6157 O.2       1 UNK        -0.5238 
     82 H82       -53.3476  -22.2364    8.0406 H         1 UNK         0.0889 
     83 H83       -51.7917  -21.7126    8.6917 H         1 UNK         0.0889 
     84 H84       -52.9138  -22.6202    9.7086 H         1 UNK         0.0889 
     85 H85       -53.1344  -24.0216    6.6755 H         1 UNK         0.3028 
     86 H86       -51.6018  -26.3525    7.4568 H         1 UNK         0.0864 
     87 H87       -53.2529  -25.7696    4.9483 H         1 UNK         0.0720 
     88 H88       -52.5102  -27.3046    5.2912 H         1 UNK         0.0720 
     89 H89       -53.9215  -29.1349    5.9719 H         1 UNK         0.0814 
     90 H90       -55.1213  -29.1229    7.2333 H         1 UNK         0.0814 
     91 H91       -51.4906  -29.0374    6.5547 H         1 UNK         0.1469 
     92 H92       -50.4087  -29.8802   10.6193 H         1 UNK         0.1381 
     93 H93       -54.4931  -29.0664    9.6140 H         1 UNK         0.1206 
     94 H94       -53.7813  -29.0884   11.9426 H         1 UNK         0.0813 
     95 H95       -52.0983  -29.2533   12.3738 H         1 UNK         0.0813 
     96 H96       -53.4290  -30.3227   14.2951 H         1 UNK         0.0638 
     97 H97       -53.2435  -32.0493   14.4385 H         1 UNK         0.0638 
     98 H98       -55.5263  -32.4085   13.5215 H         1 UNK         0.0568 
     99 H99       -56.9796  -30.8207   16.8784 H         1 UNK         0.3450 
    100 H100      -57.0963  -29.9858   15.3488 H         1 UNK         0.3450 
    101 H101      -55.5971  -29.4770   13.2445 H         1 UNK         0.2987 
    102 H102      -57.4584  -29.3278   10.9012 H         1 UNK         0.0766 
    103 H103      -59.7953  -28.5539   11.3948 H         1 UNK         0.0798 
    104 H104      -59.7935  -29.5057   12.8789 H         1 UNK         0.0798 
    105 H105      -59.6873  -30.3030   11.3164 H         1 UNK         0.0798 
    106 H106      -56.9415  -27.4197   11.8909 H         1 UNK         0.3198 
    107 H107      -56.3744  -25.9287   13.3245 H         1 UNK         0.0843 
    108 H108      -58.5673  -25.6717   15.4569 H         1 UNK         0.0831 
    109 H109      -58.7312  -25.2064   13.7703 H         1 UNK         0.0831 
    110 H110      -57.5975  -24.3507   14.8021 H         1 UNK         0.0831 
    111 H111      -56.1800  -25.9771   16.1389 H         1 UNK         0.3133 
    112 H112      -54.1753  -26.2970   17.0845 H         1 UNK         0.0566 
    113 H113      -54.2044  -29.3638   16.9521 H         1 UNK         0.0814 
    114 H114      -53.8921  -28.3858   18.3859 H         1 UNK         0.0814 
    115 H115      -55.4834  -28.3778   17.6443 H         1 UNK         0.0814 
    116 H116      -52.1162  -28.1911   16.5040 H         1 UNK         0.3091 
    117 H117      -49.9329  -27.0914   16.3518 H         1 UNK         0.0702 
    118 H118      -49.1718  -28.0365   14.1224 H         1 UNK         0.0785 
    119 H119      -50.7293  -27.5800   13.4324 H         1 UNK         0.0785 
    120 H120      -50.6501  -28.7753   14.7132 H         1 UNK         0.0785 
    121 H121      -49.5643  -25.3903   13.9772 H         1 UNK         0.2998 
    122 H122      -48.8340  -22.5232   15.5650 H         1 UNK         0.0697 
    123 H123      -46.3341  -24.2889   15.3963 H         1 UNK         0.0825 
    124 H124      -46.8290  -23.3132   16.7711 H         1 UNK         0.0825 
    125 H125      -46.3449  -22.5295   15.2772 H         1 UNK         0.0825 
    126 H126      -47.7435  -24.1347   13.3006 H         1 UNK         0.3029 
    127 H127      -50.0949  -22.8542   11.0568 H         1 UNK         0.0897 
    128 H128      -48.6260  -20.8121   11.0335 H         1 UNK         0.0792 
    129 H129      -48.3031  -21.8719    9.6722 H         1 UNK         0.0792 
    130 H130      -47.1990  -21.8419   11.0480 H         1 UNK         0.0792 
    131 H131      -47.7655  -24.1957   10.3552 H         1 UNK         0.3086 
    132 H132      -48.5018  -27.4190   11.6837 H         1 UNK         0.0583 
    133 H133      -49.7944  -27.1694    9.4821 H         1 UNK         0.1020 
    134 H134      -48.3324  -26.5648    8.7553 H         1 UNK         0.1020 
    135 H135      -49.1835  -29.0234    7.1481 H         1 UNK         0.0694 
    136 H136      -49.0934  -30.6011    7.8964 H         1 UNK         0.0694 
    137 H137      -46.2633  -26.7780   10.1978 H         1 UNK         0.2989 
    138 H138      -44.2783  -25.1517   12.6254 H         1 UNK         0.1055 
    139 H139      -44.2044  -27.4617   13.5038 H         1 UNK         0.0806 
    140 H140      -42.8091  -27.1500   12.4845 H         1 UNK         0.0806 
    141 H141      -44.1515  -28.1191   11.8770 H         1 UNK         0.0806 
    142 H142      -43.6618  -24.6509   10.5801 H         1 UNK         0.3061 
    143 H143      -42.4388  -25.1577    8.6535 H         1 UNK         0.0734 
    144 H144      -42.4283  -26.1600    6.3912 H         1 UNK         0.0832 
    145 H145      -42.3662  -27.4271    7.6048 H         1 UNK         0.0832 
    146 H146      -43.8732  -27.1016    6.7613 H         1 UNK         0.0832 
    147 H147      -44.7010  -24.8250    6.8603 H         1 UNK         0.3156 
    148 H148      -46.0388  -21.9386    8.2306 H         1 UNK         0.0589 
    149 H149      -45.4034  -20.7278    6.1556 H         1 UNK         0.0808 
    150 H150      -44.0324  -20.8284    7.2463 H         1 UNK         0.0808 
    151 H151      -44.1095  -21.8871    5.8453 H         1 UNK         0.0808 
    152 H152      -46.2523  -23.1245    5.6216 H         1 UNK         0.3098 
    153 H153      -48.2354  -24.2040    5.1405 H         1 UNK         0.0720 
    154 H154      -47.9412  -26.7014    4.9336 H         1 UNK         0.0791 
    155 H155      -47.2728  -26.7687    6.5617 H         1 UNK         0.0791 
    156 H156      -46.4067  -25.9303    5.2820 H         1 UNK         0.0791 
    157 H157      -49.5887  -24.9116    7.5560 H         1 UNK         0.3028 
@<TRIPOS>BOND
     1    1    2 1    
     2    1   82 1    
     3    1   83 1    
     4    1   84 1    
     5    2    3 2    
     6    2    4 am   BACKBONE|DICT|INTERRES
     7    4    5 1    
     8    4   85 1    
     9    5    6 1    
    10    5   80 1    
    11    5   86 1    
    12    6    7 1    
    13    6   87 1    
    14    6   88 1    
    15    7    8 1    
    16    8    9 1    
    17    8   89 1    
    18    8   90 1    
    19    9   10 ar   
    20    9   14 ar   
    21   10   11 ar   
    22   10   91 1    
    23   11   12 ar   
    24   11   58 1    
    25   12   13 ar   
    26   12   92 1    
    27   13   14 ar   
    28   13   15 1    
    29   14   93 1    
    30   15   16 1    
    31   15   94 1    
    32   15   95 1    
    33   16   17 1    
    34   17   18 1    
    35   17   96 1    
    36   17   97 1    
    37   18   19 1    
    38   18   22 1    
    39   18   98 1    
    40   19   20 am   BACKBONE|DICT|INTERRES
    41   19   21 2    
    42   20   99 1    
    43   20  100 1    
    44   22   23 am   BACKBONE|DICT|INTERRES
    45   22  101 1    
    46   23   24 2    
    47   23   25 1    
    48   25   26 1    
    49   25   27 1    
    50   25  102 1    
    51   26  103 1    
    52   26  104 1    
    53   26  105 1    
    54   27   28 am   BACKBONE|DICT|INTERRES
    55   27  106 1    
    56   28   29 2    
    57   28   30 1    
    58   30   31 1    
    59   30   32 1    
    60   30  107 1    
    61   31  108 1    
    62   31  109 1    
    63   31  110 1    
    64   32   33 am   BACKBONE|DICT|INTERRES
    65   32  111 1    
    66   33   34 2    
    67   33   35 1    
    68   35   36 1    
    69   35   37 1    
    70   35  112 1    
    71   36  113 1    
    72   36  114 1    
    73   36  115 1    
    74   37   38 am   BACKBONE|DICT|INTERRES
    75   37  116 1    
    76   38   39 2    
    77   38   40 1    
    78   40   41 1    
    79   40   42 1    
    80   40  117 1    
    81   41  118 1    
    82   41  119 1    
    83   41  120 1    
    84   42   43 am   BACKBONE|DICT|INTERRES
    85   42  121 1    
    86   43   44 2    
    87   43   45 1    
    88   45   46 1    
    89   45   47 1    
    90   45  122 1    
    91   46  123 1    
    92   46  124 1    
    93   46  125 1    
    94   47   48 am   BACKBONE|DICT|INTERRES
    95   47  126 1    
    96   48   49 2    
    97   48   50 1    
    98   50   51 1    
    99   50   52 1    
   100   50  127 1    
   101   51  128 1    
   102   51  129 1    
   103   51  130 1    
   104   52   53 am   BACKBONE|DICT|INTERRES
   105   52  131 1    
   106   53   54 2    
   107   53   55 1    
   108   55   56 1    
   109   55   59 1    
   110   55  132 1    
   111   56   57 1    
   112   56  133 1    
   113   56  134 1    
   114   57   58 1    
   115   58  135 1    
   116   58  136 1    
   117   59   60 am   BACKBONE|DICT|INTERRES
   118   59  137 1    
   119   60   61 2    
   120   60   62 1    
   121   62   63 1    
   122   62   64 1    
   123   62  138 1    
   124   63  139 1    
   125   63  140 1    
   126   63  141 1    
   127   64   65 am   BACKBONE|DICT|INTERRES
   128   64  142 1    
   129   65   66 2    
   130   65   67 1    
   131   67   68 1    
   132   67   69 1    
   133   67  143 1    
   134   68  144 1    
   135   68  145 1    
   136   68  146 1    
   137   69   70 am   BACKBONE|DICT|INTERRES
   138   69  147 1    
   139   70   71 2    
   140   70   72 1    
   141   72   73 1    
   142   72   74 1    
   143   72  148 1    
   144   73  149 1    
   145   73  150 1    
   146   73  151 1    
   147   74   75 am   BACKBONE|DICT|INTERRES
   148   74  152 1    
   149   75   76 2    
   150   75   77 1    
   151   77   78 1    
   152   77   79 1    
   153   77  153 1    
   154   78  154 1    
   155   78  155 1    
   156   78  156 1    
   157   79   80 am   BACKBONE|DICT|INTERRES
   158   79  157 1    
   159   80   81 2    
@<TRIPOS>SUBSTRUCTURE
     1 UNK         1 GROUP             0       ****    0 ROOT    
