@<TRIPOS>MOLECULE
3R207
157   159    1
SMALL
USER_CHARGES


@<TRIPOS>ATOM
      1 CA        -46.3847  -26.9663    3.0786 C.3       0 UNK        -0.1975 
      2 C         -46.9774  -27.2944    4.4411 C.2       0 UNK         0.4852 
      3 O         -46.6010  -26.6739    5.4358 O.2       0 UNK        -0.5216 
      4 N         -47.9059  -28.2581    4.4893 N.am      1 UNK        -0.4461 
      5 CA        -48.5694  -28.7409    5.7068 C.3       1 UNK         0.0864 
      6 C6        -49.7807  -29.6518    5.3814 C.3       14 UNK        -0.0898 
      7 S7        -50.9568  -28.8848    4.2140 S.3       14 UNK        -0.2598 
      8 C8        -52.5648  -29.2260    4.9949 C.3       14 UNK         0.0286 
      9 C9        -52.9278  -28.1947    6.0538 C.ar      14 UNK        -0.0844 
     10 C10       -53.2470  -26.8877    5.6722 C.ar      14 UNK        -0.0881 
     11 C11       -53.6516  -25.9440    6.6208 C.ar      14 UNK        -0.0643 
     12 C12       -53.7448  -26.3251    7.9641 C.ar      14 UNK        -0.0930 
     13 C13       -53.4163  -27.6252    8.3622 C.ar      14 UNK        -0.0827 
     14 C14       -53.0026  -28.5549    7.4027 C.ar      14 UNK        -0.1249 
     15 C15       -53.5285  -28.0285    9.8262 C.3       14 UNK         0.0141 
     16 S16       -55.2636  -28.3188   10.2910 S.3       14 UNK        -0.2313 
     17 C17       -55.0878  -28.9335   11.9999 C.3       14 UNK        -0.0915 
     18 CA        -55.2567  -27.8255   13.0833 C.3       13 UNK         0.0968 
     19 C         -56.7396  -27.4630   13.4091 C.2       13 UNK         0.5732 
     20 N         -57.0544  -27.0332   14.6258 N.am      13 UNK        -0.7310 
     21 O         -57.6160  -27.5411   12.5520 O.2       13 UNK        -0.5035 
     22 N         -54.4204  -28.0911   14.2652 N.am      13 UNK        -0.4233 
     23 C         -54.5200  -29.1488   15.0844 C.2       13 UNK         0.4989 
     24 O         -55.3957  -30.0116   14.9965 O.2       13 UNK        -0.4996 
     25 CA        -53.4257  -29.2617   16.1662 C.3       12 UNK         0.0216 
     26 CB        -53.4044  -30.6307   16.8792 C.3       12 UNK        -0.1964 
     27 N         -52.1027  -28.9177   15.6302 N.am      12 UNK        -0.4276 
     28 C         -51.4536  -29.5189   14.6190 C.2       12 UNK         0.5020 
     29 O         -51.8098  -30.5771   14.0996 O.2       12 UNK        -0.5489 
     30 CA        -50.2206  -28.7963   14.0487 C.3       11 UNK         0.0294 
     31 CB        -50.5748  -28.1230   12.7105 C.3       11 UNK        -0.2019 
     32 N         -49.6757  -27.7850   14.9578 N.am      11 UNK        -0.4493 
     33 C         -48.8757  -28.0497   16.0003 C.2       11 UNK         0.4932 
     34 O         -48.4633  -29.1762   16.2741 O.2       11 UNK        -0.5029 
     35 CA        -48.4515  -26.8610   16.8843 C.3       10 UNK         0.0280 
     36 CB        -46.9781  -26.4993   16.6306 C.3       10 UNK        -0.1976 
     37 N         -49.2873  -25.6651   16.7134 N.am      10 UNK        -0.4242 
     38 C         -50.5427  -25.5519   17.1685 C.2       10 UNK         0.5072 
     39 O         -51.1345  -26.4505   17.7682 O.2       10 UNK        -0.5224 
     40 CA        -51.2706  -24.2263   16.8759 C.3       9 UNK         0.0343 
     41 CB        -50.4497  -23.0073   17.3347 C.3       9 UNK        -0.2003 
     42 N         -51.6792  -24.0367   15.4774 N.am      9 UNK        -0.4272 
     43 C         -52.3140  -24.9166   14.6922 C.2       9 UNK         0.4988 
     44 O         -52.5150  -26.0927   14.9905 O.2       9 UNK        -0.5108 
     45 CA        -52.8475  -24.4302   13.3370 C.3       8 UNK         0.0248 
     46 CB        -54.3090  -23.9614   13.4694 C.3       8 UNK        -0.2001 
     47 N         -52.0403  -23.4392   12.6149 N.am      8 UNK        -0.4140 
     48 C         -51.7766  -22.1578   12.9206 C.2       8 UNK         0.5028 
     49 O         -52.0192  -21.6572   14.0191 O.2       8 UNK        -0.5428 
     50 CA        -51.1646  -21.2707   11.8131 C.3       7 UNK         0.0264 
     51 CB        -49.7569  -20.7750   12.1828 C.3       7 UNK        -0.1988 
     52 N         -51.1438  -21.9348   10.5018 N.am      7 UNK        -0.4454 
     53 C         -52.2315  -22.0433    9.7178 C.2       7 UNK         0.5027 
     54 O         -53.2747  -21.4243    9.9333 O.2       7 UNK        -0.5083 
     55 CA        -52.2081  -23.0432    8.5398 C.3       6 UNK         0.0844 
     56 C56       -52.4745  -22.3578    7.1792 C.3       14 UNK        -0.0967 
     57 S57       -52.5518  -23.5315    5.7784 S.3       14 UNK        -0.2604 
     58 C58       -54.0250  -24.5349    6.1722 C.3       14 UNK         0.0134 
     59 N         -51.0321  -23.9156    8.5066 N.am      6 UNK        -0.4116 
     60 C         -50.7966  -24.9119    9.3668 C.2       5 UNK         0.5034 
     61 O         -51.5176  -25.1552   10.3352 O.2       5 UNK        -0.5045 
     62 CA        -49.5191  -25.7460    9.1615 C.3       5 UNK         0.0224 
     63 CB        -48.6963  -25.3637    7.9117 C.3       5 UNK        -0.1978 
     64 N         -48.6707  -25.7111   10.3567 N.am      5 UNK        -0.4737 
     65 C         -48.2429  -24.6168   11.0062 C.2       4 UNK         0.5027 
     66 O         -48.4597  -23.4673   10.6200 O.2       4 UNK        -0.5211 
     67 CA        -47.4869  -24.8223   12.3313 C.3       4 UNK         0.0297 
     68 CB        -48.4108  -24.4956   13.5165 C.3       4 UNK        -0.1993 
     69 N         -46.9542  -26.1769   12.5024 N.am      4 UNK        -0.4486 
     70 C         -45.8857  -26.6666   11.8600 C.2       3 UNK         0.4961 
     71 O         -45.1854  -26.0076   11.0905 O.2       3 UNK        -0.5105 
     72 CA        -45.5435  -28.1521   12.0946 C.3       3 UNK         0.0299 
     73 CB        -46.2698  -28.7889   13.3009 C.3       3 UNK        -0.1972 
     74 N         -45.7644  -28.9543   10.8856 N.am      3 UNK        -0.4305 
     75 C         -46.9026  -29.0552   10.1841 C.2       2 UNK         0.5006 
     76 O         -47.9609  -28.4957   10.4834 O.2       2 UNK        -0.5106 
     77 CA        -46.8611  -29.9498    8.9441 C.3       2 UNK         0.0296 
     78 CB        -47.3162  -31.3803    9.2834 C.3       2 UNK        -0.2002 
     79 N         -47.7407  -29.3709    7.9330 N.am      2 UNK        -0.4032 
     80 C         -47.5680  -29.4898    6.6125 C.2       1 UNK         0.5000 
     81 O         -46.6800  -30.1790    6.1003 O.2       1 UNK        -0.5238 
     82 H82       -45.3083  -27.1357    3.0878 H         1 UNK         0.0889 
     83 H83       -46.5635  -25.9196    2.8342 H         1 UNK         0.0889 
     84 H84       -46.8178  -27.5780    2.2873 H         1 UNK         0.0889 
     85 H85       -48.1709  -28.7353    3.6399 H         1 UNK         0.3028 
     86 H86       -48.9364  -27.8664    6.2474 H         1 UNK         0.0864 
     87 H87       -50.3072  -29.9134    6.3013 H         1 UNK         0.0720 
     88 H88       -49.4483  -30.5948    4.9422 H         1 UNK         0.0720 
     89 H89       -53.3335  -29.2159    4.2208 H         1 UNK         0.0814 
     90 H90       -52.5692  -30.2363    5.4070 H         1 UNK         0.0814 
     91 H91       -53.1907  -26.6065    4.6292 H         1 UNK         0.1469 
     92 H92       -54.0874  -25.6214    8.7084 H         1 UNK         0.1381 
     93 H93       -52.7652  -29.5664    7.7032 H         1 UNK         0.1206 
     94 H94       -53.1110  -27.2478   10.4628 H         1 UNK         0.0813 
     95 H95       -52.9428  -28.9291   10.0167 H         1 UNK         0.0813 
     96 H96       -55.8048  -29.7408   12.1584 H         1 UNK         0.0638 
     97 H97       -54.1048  -29.4004   12.0843 H         1 UNK         0.0638 
     98 H98       -54.8397  -26.9074   12.6700 H         1 UNK         0.0568 
     99 H99       -56.3508  -26.9612   15.3423 H         1 UNK         0.3450 
    100 H100      -58.0113  -26.7927   14.8301 H         1 UNK         0.3450 
    101 H101      -53.6923  -27.4074   14.4594 H         1 UNK         0.2987 
    102 H102      -53.6567  -28.5020   16.9146 H         1 UNK         0.0766 
    103 H103      -52.6206  -30.6710   17.6355 H         1 UNK         0.0798 
    104 H104      -54.3521  -30.8214   17.3841 H         1 UNK         0.0798 
    105 H105      -53.2393  -31.4513   16.1805 H         1 UNK         0.0798 
    106 H106      -51.7396  -28.0262   15.9474 H         1 UNK         0.3198 
    107 H107      -49.4592  -29.5560   13.8612 H         1 UNK         0.0843 
    108 H108      -51.3853  -27.4016   12.8154 H         1 UNK         0.0831 
    109 H109      -50.8950  -28.8635   11.9762 H         1 UNK         0.0831 
    110 H110      -49.7186  -27.6030   12.2855 H         1 UNK         0.0831 
    111 H111      -50.0169  -26.8422   14.8461 H         1 UNK         0.3133 
    112 H112      -48.5402  -27.1863   17.9232 H         1 UNK         0.0566 
    113 H113      -46.7970  -26.2075   15.5969 H         1 UNK         0.0814 
    114 H114      -46.3293  -27.3508   16.8413 H         1 UNK         0.0814 
    115 H115      -46.6514  -25.6826   17.2746 H         1 UNK         0.0814 
    116 H116      -48.8682  -24.8708   16.2539 H         1 UNK         0.3091 
    117 H117      -52.1889  -24.2418   17.4661 H         1 UNK         0.0702 
    118 H118      -51.0542  -22.1001   17.3170 H         1 UNK         0.0785 
    119 H119      -49.5801  -22.8337   16.7000 H         1 UNK         0.0785 
    120 H120      -50.0924  -23.1342   18.3578 H         1 UNK         0.0785 
    121 H121      -51.6277  -23.0858   15.1169 H         1 UNK         0.2998 
    122 H122      -52.8531  -25.3082   12.6896 H         1 UNK         0.0697 
    123 H123      -54.3921  -23.0538   14.0682 H         1 UNK         0.0825 
    124 H124      -54.9257  -24.7208   13.9515 H         1 UNK         0.0825 
    125 H125      -54.7487  -23.7594   12.4926 H         1 UNK         0.0825 
    126 H126      -51.7358  -23.7717   11.7045 H         1 UNK         0.3029 
    127 H127      -51.8029  -20.3869   11.7449 H         1 UNK         0.0897 
    128 H128      -49.3820  -20.0698   11.4411 H         1 UNK         0.0792 
    129 H129      -49.7649  -20.2577   13.1432 H         1 UNK         0.0792 
    130 H130      -49.0373  -21.5863   12.2591 H         1 UNK         0.0792 
    131 H131      -50.3069  -22.4646   10.2764 H         1 UNK         0.3086 
    132 H132      -53.0649  -23.6850    8.7351 H         1 UNK         0.0583 
    133 H133      -53.4117  -21.7977    7.2064 H         1 UNK         0.1020 
    134 H134      -51.6938  -21.6256    6.9652 H         1 UNK         0.1020 
    135 H135      -54.6374  -24.0359    6.9244 H         1 UNK         0.0694 
    136 H136      -54.6471  -24.6001    5.2783 H         1 UNK         0.0694 
    137 H137      -50.3842  -23.7642    7.7479 H         1 UNK         0.2989 
    138 H138      -49.8541  -26.7777    9.0443 H         1 UNK         0.1055 
    139 H139      -49.2844  -25.4650    6.9983 H         1 UNK         0.0806 
    140 H140      -47.8304  -26.0174    7.8058 H         1 UNK         0.0806 
    141 H141      -48.3222  -24.3404    7.9601 H         1 UNK         0.0806 
    142 H142      -48.4208  -26.6240   10.7267 H         1 UNK         0.3061 
    143 H143      -46.6532  -24.1167   12.3407 H         1 UNK         0.0734 
    144 H144      -48.8514  -23.5051   13.4157 H         1 UNK         0.0832 
    145 H145      -49.2353  -25.2036   13.5935 H         1 UNK         0.0832 
    146 H146      -47.8580  -24.4943   14.4535 H         1 UNK         0.0832 
    147 H147      -47.4792  -26.8088   13.0873 H         1 UNK         0.3156 
    148 H148      -44.4728  -28.1884   12.3012 H         1 UNK         0.0589 
    149 H149      -47.3478  -28.8390   13.1542 H         1 UNK         0.0808 
    150 H150      -45.9201  -29.8072   13.4713 H         1 UNK         0.0808 
    151 H151      -46.0784  -28.2334   14.2194 H         1 UNK         0.0808 
    152 H152      -44.9485  -29.4383   10.5365 H         1 UNK         0.3098 
    153 H153      -45.8364  -29.9728    8.5662 H         1 UNK         0.0720 
    154 H154      -47.2734  -32.0286    8.4080 H         1 UNK         0.0791 
    155 H155      -46.6766  -31.8244   10.0471 H         1 UNK         0.0791 
    156 H156      -48.3389  -31.3967    9.6627 H         1 UNK         0.0791 
    157 H157      -48.4706  -28.7803    8.3095 H         1 UNK         0.3028 
@<TRIPOS>BOND
     1    1    2 1    
     2    1   82 1    
     3    1   83 1    
     4    1   84 1    
     5    2    3 2    
     6    2    4 am   BACKBONE|DICT|INTERRES
     7    4    5 1    
     8    4   85 1    
     9    5    6 1    
    10    5   80 1    
    11    5   86 1    
    12    6    7 1    
    13    6   87 1    
    14    6   88 1    
    15    7    8 1    
    16    8    9 1    
    17    8   89 1    
    18    8   90 1    
    19    9   10 ar   
    20    9   14 ar   
    21   10   11 ar   
    22   10   91 1    
    23   11   12 ar   
    24   11   58 1    
    25   12   13 ar   
    26   12   92 1    
    27   13   14 ar   
    28   13   15 1    
    29   14   93 1    
    30   15   16 1    
    31   15   94 1    
    32   15   95 1    
    33   16   17 1    
    34   17   18 1    
    35   17   96 1    
    36   17   97 1    
    37   18   19 1    
    38   18   22 1    
    39   18   98 1    
    40   19   20 am   BACKBONE|DICT|INTERRES
    41   19   21 2    
    42   20   99 1    
    43   20  100 1    
    44   22   23 am   BACKBONE|DICT|INTERRES
    45   22  101 1    
    46   23   24 2    
    47   23   25 1    
    48   25   26 1    
    49   25   27 1    
    50   25  102 1    
    51   26  103 1    
    52   26  104 1    
    53   26  105 1    
    54   27   28 am   BACKBONE|DICT|INTERRES
    55   27  106 1    
    56   28   29 2    
    57   28   30 1    
    58   30   31 1    
    59   30   32 1    
    60   30  107 1    
    61   31  108 1    
    62   31  109 1    
    63   31  110 1    
    64   32   33 am   BACKBONE|DICT|INTERRES
    65   32  111 1    
    66   33   34 2    
    67   33   35 1    
    68   35   36 1    
    69   35   37 1    
    70   35  112 1    
    71   36  113 1    
    72   36  114 1    
    73   36  115 1    
    74   37   38 am   BACKBONE|DICT|INTERRES
    75   37  116 1    
    76   38   39 2    
    77   38   40 1    
    78   40   41 1    
    79   40   42 1    
    80   40  117 1    
    81   41  118 1    
    82   41  119 1    
    83   41  120 1    
    84   42   43 am   BACKBONE|DICT|INTERRES
    85   42  121 1    
    86   43   44 2    
    87   43   45 1    
    88   45   46 1    
    89   45   47 1    
    90   45  122 1    
    91   46  123 1    
    92   46  124 1    
    93   46  125 1    
    94   47   48 am   BACKBONE|DICT|INTERRES
    95   47  126 1    
    96   48   49 2    
    97   48   50 1    
    98   50   51 1    
    99   50   52 1    
   100   50  127 1    
   101   51  128 1    
   102   51  129 1    
   103   51  130 1    
   104   52   53 am   BACKBONE|DICT|INTERRES
   105   52  131 1    
   106   53   54 2    
   107   53   55 1    
   108   55   56 1    
   109   55   59 1    
   110   55  132 1    
   111   56   57 1    
   112   56  133 1    
   113   56  134 1    
   114   57   58 1    
   115   58  135 1    
   116   58  136 1    
   117   59   60 am   BACKBONE|DICT|INTERRES
   118   59  137 1    
   119   60   61 2    
   120   60   62 1    
   121   62   63 1    
   122   62   64 1    
   123   62  138 1    
   124   63  139 1    
   125   63  140 1    
   126   63  141 1    
   127   64   65 am   BACKBONE|DICT|INTERRES
   128   64  142 1    
   129   65   66 2    
   130   65   67 1    
   131   67   68 1    
   132   67   69 1    
   133   67  143 1    
   134   68  144 1    
   135   68  145 1    
   136   68  146 1    
   137   69   70 am   BACKBONE|DICT|INTERRES
   138   69  147 1    
   139   70   71 2    
   140   70   72 1    
   141   72   73 1    
   142   72   74 1    
   143   72  148 1    
   144   73  149 1    
   145   73  150 1    
   146   73  151 1    
   147   74   75 am   BACKBONE|DICT|INTERRES
   148   74  152 1    
   149   75   76 2    
   150   75   77 1    
   151   77   78 1    
   152   77   79 1    
   153   77  153 1    
   154   78  154 1    
   155   78  155 1    
   156   78  156 1    
   157   79   80 am   BACKBONE|DICT|INTERRES
   158   79  157 1    
   159   80   81 2    
@<TRIPOS>SUBSTRUCTURE
     1 UNK         1 GROUP             0       ****    0 ROOT    
