@<TRIPOS>MOLECULE
3R207
157   159    1
SMALL
USER_CHARGES


@<TRIPOS>ATOM
      1 CA        -51.3252  -30.3594    5.0426 C.3       0 UNK        -0.1975 
      2 C         -50.6325  -29.2043    4.3341 C.2       0 UNK         0.4852 
      3 O         -49.7687  -29.4351    3.4877 O.2       0 UNK        -0.5216 
      4 N         -51.0096  -27.9644    4.6756 N.am      1 UNK        -0.4461 
      5 CA        -50.4456  -26.7181    4.1402 C.3       1 UNK         0.0864 
      6 C6        -51.2994  -25.4847    4.5412 C.3       14 UNK        -0.0898 
      7 S7        -51.4019  -25.1914    6.3443 S.3       14 UNK        -0.2598 
      8 C8        -52.9399  -26.0550    6.7946 C.3       14 UNK         0.0286 
      9 C9        -52.8219  -26.7481    8.1464 C.ar      14 UNK        -0.0844 
     10 C10       -51.9397  -27.8212    8.3182 C.ar      14 UNK        -0.0881 
     11 C11       -51.8679  -28.5005    9.5375 C.ar      14 UNK        -0.0643 
     12 C12       -52.6904  -28.0996   10.5935 C.ar      14 UNK        -0.0930 
     13 C13       -53.5736  -27.0262   10.4386 C.ar      14 UNK        -0.0827 
     14 C14       -53.6264  -26.3476    9.2171 C.ar      14 UNK        -0.1249 
     15 C15       -54.4853  -26.6113   11.5857 C.3       14 UNK         0.0141 
     16 S16       -56.2383  -26.9716   11.2306 S.3       14 UNK        -0.2313 
     17 C17       -56.2149  -28.7851   11.0090 C.3       14 UNK        -0.0915 
     18 CA        -57.1500  -29.5524   11.9777 C.3       13 UNK         0.0968 
     19 C         -57.0315  -31.0828   11.7145 C.2       13 UNK         0.5732 
     20 N         -56.2927  -31.8358   12.5240 N.am      13 UNK        -0.7310 
     21 O         -57.6188  -31.5898   10.7618 O.2       13 UNK        -0.5035 
     22 N         -56.9109  -29.1753   13.3763 N.am      13 UNK        -0.4233 
     23 C         -57.6628  -29.5518   14.4166 C.2       13 UNK         0.4989 
     24 O         -58.7615  -30.0972   14.2972 O.2       13 UNK        -0.4996 
     25 CA        -57.0989  -29.2880   15.8292 C.3       12 UNK         0.0216 
     26 CB        -57.3288  -30.4946   16.7632 C.3       12 UNK        -0.1964 
     27 N         -55.6856  -28.8782   15.8782 N.am      12 UNK        -0.4276 
     28 C         -54.6022  -29.5277   15.4297 C.2       12 UNK         0.5020 
     29 O         -54.6595  -30.5861   14.7987 O.2       12 UNK        -0.5489 
     30 CA        -53.2332  -28.8674   15.7140 C.3       11 UNK         0.0294 
     31 CB        -52.0658  -29.6652   15.1052 C.3       11 UNK        -0.2019 
     32 N         -53.1178  -27.4708   15.2714 N.am      11 UNK        -0.4493 
     33 C         -53.7492  -26.4080   15.7905 C.2       11 UNK         0.4932 
     34 O         -54.6115  -26.4784   16.6686 O.2       11 UNK        -0.5029 
     35 CA        -53.2903  -25.0405   15.2588 C.3       10 UNK         0.0280 
     36 CB        -54.1208  -23.8596   15.8025 C.3       10 UNK        -0.1976 
     37 N         -51.8595  -24.8435   15.5077 N.am      10 UNK        -0.4242 
     38 C         -51.2216  -24.8241   16.6900 C.2       10 UNK         0.5072 
     39 O         -51.7803  -24.8844   17.7858 O.2       10 UNK        -0.5224 
     40 CA        -49.6848  -24.7409   16.6470 C.3       9 UNK         0.0343 
     41 CB        -49.0765  -26.1451   16.7950 C.3       9 UNK        -0.2003 
     42 N         -49.1722  -24.1264   15.4209 N.am      9 UNK        -0.4272 
     43 C         -49.3155  -22.8335   15.0961 C.2       9 UNK         0.4988 
     44 O         -49.8238  -21.9898   15.8348 O.2       9 UNK        -0.5108 
     45 CA        -48.8382  -22.4226   13.6961 C.3       8 UNK         0.0248 
     46 CB        -47.3226  -22.1728   13.6847 C.3       8 UNK        -0.2001 
     47 N         -49.1928  -23.4227   12.6853 N.am      8 UNK        -0.4140 
     48 C         -50.4309  -23.5989   12.2004 C.2       8 UNK         0.5028 
     49 O         -51.3948  -22.8991   12.5097 O.2       8 UNK        -0.5428 
     50 CA        -50.6368  -24.7687   11.2282 C.3       7 UNK         0.0264 
     51 CB        -50.3383  -24.3382    9.7854 C.3       7 UNK        -0.1988 
     52 N         -49.8075  -25.9228   11.5716 N.am      7 UNK        -0.4454 
     53 C         -50.0888  -26.7820   12.5624 C.2       7 UNK         0.5027 
     54 O         -51.0846  -26.6949   13.2852 O.2       7 UNK        -0.5083 
     55 CA        -49.0834  -27.9248   12.8171 C.3       6 UNK         0.0844 
     56 C56       -49.5133  -29.2332   12.1077 C.3       14 UNK        -0.0967 
     57 S57       -49.2845  -29.2185   10.2912 S.3       14 UNK        -0.2604 
     58 C58       -50.9361  -29.6953    9.6890 C.3       14 UNK         0.0134 
     59 N         -47.6926  -27.5764   12.5137 N.am      6 UNK        -0.4116 
     60 C         -46.9929  -26.5688   13.0509 C.2       5 UNK         0.5034 
     61 O         -47.4479  -25.7910   13.8908 O.2       5 UNK        -0.5045 
     62 CA        -45.5568  -26.3505   12.5349 C.3       5 UNK         0.0224 
     63 CB        -45.0453  -27.4664   11.5935 C.3       5 UNK        -0.1978 
     64 N         -45.4031  -25.0409   11.8876 N.am      5 UNK        -0.4737 
     65 C         -46.1330  -24.5594   10.8706 C.2       4 UNK         0.5027 
     66 O         -47.0903  -25.1572   10.3759 O.2       4 UNK        -0.5211 
     67 CA        -45.7628  -23.1700   10.3151 C.3       4 UNK         0.0297 
     68 CB        -44.5737  -22.4788   11.0255 C.3       4 UNK        -0.1993 
     69 N         -45.5553  -23.2360    8.8651 N.am      4 UNK        -0.4486 
     70 C         -44.5979  -23.9164    8.2200 C.2       3 UNK         0.4961 
     71 O         -43.6751  -24.5200    8.7709 O.2       3 UNK        -0.5105 
     72 CA        -44.7324  -23.9805    6.6909 C.3       3 UNK         0.0299 
     73 CB        -43.3648  -23.9249    5.9866 C.3       3 UNK        -0.1972 
     74 N         -45.4108  -25.2239    6.3334 N.am      3 UNK        -0.4305 
     75 C         -46.7306  -25.4222    6.4360 C.2       2 UNK         0.5006 
     76 O         -47.5397  -24.5354    6.7199 O.2       2 UNK        -0.5106 
     77 CA        -47.2047  -26.8720    6.2397 C.3       2 UNK         0.0296 
     78 CB        -47.1660  -27.6213    7.5830 C.3       2 UNK        -0.2002 
     79 N         -48.5595  -26.9555    5.6972 N.am      2 UNK        -0.4032 
     80 C         -48.9493  -26.5320    4.4857 C.2       1 UNK         0.5000 
     81 O         -48.1871  -26.0464    3.6465 O.2       1 UNK        -0.5238 
     82 H82       -50.6009  -30.9321    5.6210 H         1 UNK         0.0889 
     83 H83       -51.7821  -31.0269    4.3125 H         1 UNK         0.0889 
     84 H84       -52.1061  -30.0162    5.7209 H         1 UNK         0.0889 
     85 H85       -51.7467  -27.8439    5.3523 H         1 UNK         0.3028 
     86 H86       -50.4953  -26.8001    3.0520 H         1 UNK         0.0864 
     87 H87       -52.3078  -25.5816    4.1357 H         1 UNK         0.0720 
     88 H88       -50.8905  -24.5843    4.0789 H         1 UNK         0.0720 
     89 H89       -53.2029  -26.7980    6.0419 H         1 UNK         0.0814 
     90 H90       -53.7558  -25.3305    6.7980 H         1 UNK         0.0814 
     91 H91       -51.3099  -28.1379    7.5011 H         1 UNK         0.1469 
     92 H92       -52.6507  -28.6294   11.5346 H         1 UNK         0.1381 
     93 H93       -54.3172  -25.5244    9.0958 H         1 UNK         0.1206 
     94 H94       -54.3714  -25.5412   11.7643 H         1 UNK         0.0813 
     95 H95       -54.1959  -27.1093   12.5119 H         1 UNK         0.0813 
     96 H96       -55.1945  -29.1522   11.1224 H         1 UNK         0.0638 
     97 H97       -56.4926  -28.9902    9.9735 H         1 UNK         0.0638 
     98 H98       -58.1780  -29.2712   11.7420 H         1 UNK         0.0568 
     99 H99       -55.7898  -31.4209   13.3019 H         1 UNK         0.3450 
    100 H100      -56.2214  -32.8252   12.3496 H         1 UNK         0.3450 
    101 H101      -56.0225  -28.7414   13.5694 H         1 UNK         0.2987 
    102 H102      -57.6695  -28.4467   16.2253 H         1 UNK         0.0766 
    103 H103      -56.9648  -30.2918   17.7704 H         1 UNK         0.0798 
    104 H104      -56.8225  -31.3887   16.3974 H         1 UNK         0.0798 
    105 H105      -58.3897  -30.7334   16.8481 H         1 UNK         0.0798 
    106 H106      -55.5032  -27.9796   16.3273 H         1 UNK         0.3198 
    107 H107      -53.1065  -28.8773   16.7986 H         1 UNK         0.0843 
    108 H108      -52.1510  -29.7236   14.0204 H         1 UNK         0.0831 
    109 H109      -52.0496  -30.6875   15.4854 H         1 UNK         0.0831 
    110 H110      -51.1027  -29.2157   15.3476 H         1 UNK         0.0831 
    111 H111      -52.4191  -27.2857   14.5548 H         1 UNK         0.3133 
    112 H112      -53.4159  -25.0617   14.1753 H         1 UNK         0.0566 
    113 H113      -53.7796  -22.9125   15.3844 H         1 UNK         0.0814 
    114 H114      -55.1731  -23.9715   15.5388 H         1 UNK         0.0814 
    115 H115      -54.0655  -23.7854   16.8890 H         1 UNK         0.0814 
    116 H116      -51.2822  -24.8439   14.6777 H         1 UNK         0.3091 
    117 H117      -49.3602  -24.1322   17.4935 H         1 UNK         0.0702 
    118 H118      -47.9871  -26.1064   16.8135 H         1 UNK         0.0785 
    119 H119      -49.3746  -26.8002   15.9758 H         1 UNK         0.0785 
    120 H120      -49.4009  -26.6158   17.7241 H         1 UNK         0.0785 
    121 H121      -48.6610  -24.7366   14.7860 H         1 UNK         0.2998 
    122 H122      -49.3341  -21.4832   13.4412 H         1 UNK         0.0697 
    123 H123      -46.7548  -23.0905   13.8413 H         1 UNK         0.0825 
    124 H124      -47.0365  -21.4747   14.4727 H         1 UNK         0.0825 
    125 H125      -47.0090  -21.7308   12.7404 H         1 UNK         0.0825 
    126 H126      -48.4751  -24.0790   12.4111 H         1 UNK         0.3029 
    127 H127      -51.6849  -25.0692   11.2814 H         1 UNK         0.0897 
    128 H128      -51.0454  -23.5784    9.4509 H         1 UNK         0.0792 
    129 H129      -50.4219  -25.1832    9.1030 H         1 UNK         0.0792 
    130 H130      -49.3357  -23.9238    9.6767 H         1 UNK         0.0792 
    131 H131      -48.9537  -26.0453   11.0373 H         1 UNK         0.3086 
    132 H132      -49.1178  -28.1174   13.8911 H         1 UNK         0.0583 
    133 H133      -48.9269  -30.0640   12.5033 H         1 UNK         0.1020 
    134 H134      -50.5467  -29.4771   12.3524 H         1 UNK         0.1020 
    135 H135      -50.8176  -30.1883    8.7228 H         1 UNK         0.0694 
    136 H136      -51.3765  -30.4437   10.3495 H         1 UNK         0.0694 
    137 H137      -47.2550  -28.1272   11.7897 H         1 UNK         0.2989 
    138 H138      -44.9191  -26.3428   13.4204 H         1 UNK         0.1055 
    139 H139      -45.0848  -28.4443   12.0755 H         1 UNK         0.0806 
    140 H140      -44.0049  -27.2930   11.3178 H         1 UNK         0.0806 
    141 H141      -45.6189  -27.5232   10.6672 H         1 UNK         0.0806 
    142 H142      -44.6534  -24.4637   12.2417 H         1 UNK         0.3061 
    143 H143      -46.6441  -22.5449   10.4643 H         1 UNK         0.0734 
    144 H144      -44.3920  -21.4901   10.6040 H         1 UNK         0.0832 
    145 H145      -44.7690  -22.3362   12.0884 H         1 UNK         0.0832 
    146 H146      -43.6469  -23.0460   10.9365 H         1 UNK         0.0832 
    147 H147      -46.3158  -22.8729    8.3051 H         1 UNK         0.3156 
    148 H148      -45.3230  -23.1288    6.3455 H         1 UNK         0.0589 
    149 H149      -42.7288  -24.7683    6.2588 H         1 UNK         0.0808 
    150 H150      -43.4779  -23.9281    4.9023 H         1 UNK         0.0808 
    151 H151      -42.8282  -23.0135    6.2535 H         1 UNK         0.0808 
    152 H152      -44.8152  -26.0155    6.1361 H         1 UNK         0.3098 
    153 H153      -46.5348  -27.3703    5.5360 H         1 UNK         0.0720 
    154 H154      -47.4695  -28.6624    7.4713 H         1 UNK         0.0791 
    155 H155      -47.8235  -27.1565    8.3201 H         1 UNK         0.0791 
    156 H156      -46.1602  -27.6208    8.0053 H         1 UNK         0.0791 
    157 H157      -49.2731  -27.2895    6.3255 H         1 UNK         0.3028 
@<TRIPOS>BOND
     1    1    2 1    
     2    1   82 1    
     3    1   83 1    
     4    1   84 1    
     5    2    3 2    
     6    2    4 am   BACKBONE|DICT|INTERRES
     7    4    5 1    
     8    4   85 1    
     9    5    6 1    
    10    5   80 1    
    11    5   86 1    
    12    6    7 1    
    13    6   87 1    
    14    6   88 1    
    15    7    8 1    
    16    8    9 1    
    17    8   89 1    
    18    8   90 1    
    19    9   10 ar   
    20    9   14 ar   
    21   10   11 ar   
    22   10   91 1    
    23   11   12 ar   
    24   11   58 1    
    25   12   13 ar   
    26   12   92 1    
    27   13   14 ar   
    28   13   15 1    
    29   14   93 1    
    30   15   16 1    
    31   15   94 1    
    32   15   95 1    
    33   16   17 1    
    34   17   18 1    
    35   17   96 1    
    36   17   97 1    
    37   18   19 1    
    38   18   22 1    
    39   18   98 1    
    40   19   20 am   BACKBONE|DICT|INTERRES
    41   19   21 2    
    42   20   99 1    
    43   20  100 1    
    44   22   23 am   BACKBONE|DICT|INTERRES
    45   22  101 1    
    46   23   24 2    
    47   23   25 1    
    48   25   26 1    
    49   25   27 1    
    50   25  102 1    
    51   26  103 1    
    52   26  104 1    
    53   26  105 1    
    54   27   28 am   BACKBONE|DICT|INTERRES
    55   27  106 1    
    56   28   29 2    
    57   28   30 1    
    58   30   31 1    
    59   30   32 1    
    60   30  107 1    
    61   31  108 1    
    62   31  109 1    
    63   31  110 1    
    64   32   33 am   BACKBONE|DICT|INTERRES
    65   32  111 1    
    66   33   34 2    
    67   33   35 1    
    68   35   36 1    
    69   35   37 1    
    70   35  112 1    
    71   36  113 1    
    72   36  114 1    
    73   36  115 1    
    74   37   38 am   BACKBONE|DICT|INTERRES
    75   37  116 1    
    76   38   39 2    
    77   38   40 1    
    78   40   41 1    
    79   40   42 1    
    80   40  117 1    
    81   41  118 1    
    82   41  119 1    
    83   41  120 1    
    84   42   43 am   BACKBONE|DICT|INTERRES
    85   42  121 1    
    86   43   44 2    
    87   43   45 1    
    88   45   46 1    
    89   45   47 1    
    90   45  122 1    
    91   46  123 1    
    92   46  124 1    
    93   46  125 1    
    94   47   48 am   BACKBONE|DICT|INTERRES
    95   47  126 1    
    96   48   49 2    
    97   48   50 1    
    98   50   51 1    
    99   50   52 1    
   100   50  127 1    
   101   51  128 1    
   102   51  129 1    
   103   51  130 1    
   104   52   53 am   BACKBONE|DICT|INTERRES
   105   52  131 1    
   106   53   54 2    
   107   53   55 1    
   108   55   56 1    
   109   55   59 1    
   110   55  132 1    
   111   56   57 1    
   112   56  133 1    
   113   56  134 1    
   114   57   58 1    
   115   58  135 1    
   116   58  136 1    
   117   59   60 am   BACKBONE|DICT|INTERRES
   118   59  137 1    
   119   60   61 2    
   120   60   62 1    
   121   62   63 1    
   122   62   64 1    
   123   62  138 1    
   124   63  139 1    
   125   63  140 1    
   126   63  141 1    
   127   64   65 am   BACKBONE|DICT|INTERRES
   128   64  142 1    
   129   65   66 2    
   130   65   67 1    
   131   67   68 1    
   132   67   69 1    
   133   67  143 1    
   134   68  144 1    
   135   68  145 1    
   136   68  146 1    
   137   69   70 am   BACKBONE|DICT|INTERRES
   138   69  147 1    
   139   70   71 2    
   140   70   72 1    
   141   72   73 1    
   142   72   74 1    
   143   72  148 1    
   144   73  149 1    
   145   73  150 1    
   146   73  151 1    
   147   74   75 am   BACKBONE|DICT|INTERRES
   148   74  152 1    
   149   75   76 2    
   150   75   77 1    
   151   77   78 1    
   152   77   79 1    
   153   77  153 1    
   154   78  154 1    
   155   78  155 1    
   156   78  156 1    
   157   79   80 am   BACKBONE|DICT|INTERRES
   158   79  157 1    
   159   80   81 2    
@<TRIPOS>SUBSTRUCTURE
     1 UNK         1 GROUP             0       ****    0 ROOT    
