@<TRIPOS>MOLECULE
3R207
157   159    1
SMALL
USER_CHARGES


@<TRIPOS>ATOM
      1 CA        -48.0729  -27.6138    1.1149 C.3       0 UNK        -0.1975 
      2 C         -48.6433  -28.9817    1.4818 C.2       0 UNK         0.4852 
      3 O         -48.1963  -29.9819    0.9229 O.2       0 UNK        -0.5216 
      4 N         -49.6288  -29.0956    2.3846 N.am      1 UNK        -0.4461 
      5 CA        -50.2263  -28.0543    3.2273 C.3       1 UNK         0.0864 
      6 C6        -51.5965  -28.4978    3.8119 C.3       14 UNK        -0.0898 
      7 S7        -51.6231  -30.1782    4.5416 S.3       14 UNK        -0.2598 
      8 C8        -52.9669  -30.0386    5.7614 C.3       14 UNK         0.0286 
      9 C9        -52.4599  -29.5247    7.1003 C.ar      14 UNK        -0.0844 
     10 C10       -52.4444  -28.1525    7.3719 C.ar      14 UNK        -0.0881 
     11 C11       -51.9764  -27.6825    8.6006 C.ar      14 UNK        -0.0643 
     12 C12       -51.5344  -28.5927    9.5610 C.ar      14 UNK        -0.0930 
     13 C13       -51.5801  -29.9670    9.3214 C.ar      14 UNK        -0.0827 
     14 C14       -52.0282  -30.4278    8.0793 C.ar      14 UNK        -0.1249 
     15 C15       -51.1669  -30.9423   10.4165 C.3       14 UNK         0.0141 
     16 S16       -52.0383  -30.6208   11.9908 S.3       14 UNK        -0.2313 
     17 C17       -53.7120  -31.2677   11.6498 C.3       14 UNK        -0.0915 
     18 CA        -54.6414  -30.2963   10.8602 C.3       13 UNK         0.0968 
     19 C         -56.0172  -30.9386   10.5012 C.2       13 UNK         0.5732 
     20 N         -57.0886  -30.1674   10.3557 N.am      13 UNK        -0.7310 
     21 O         -56.1165  -32.1498   10.3169 O.2       13 UNK        -0.5035 
     22 N         -54.7212  -28.9403   11.4350 N.am      13 UNK        -0.4233 
     23 C         -55.2914  -28.5962   12.5968 C.2       13 UNK         0.4989 
     24 O         -55.7975  -29.3922   13.3918 O.2       13 UNK        -0.4996 
     25 CA        -55.3711  -27.0843   12.8633 C.3       12 UNK         0.0216 
     26 CB        -56.4990  -26.4456   12.0341 C.3       12 UNK        -0.1964 
     27 N         -55.5879  -26.7701   14.2748 N.am      12 UNK        -0.4276 
     28 C         -54.6126  -26.7353   15.1878 C.2       12 UNK         0.5020 
     29 O         -53.4346  -27.0117   14.9485 O.2       12 UNK        -0.5489 
     30 CA        -55.0185  -26.3120   16.6098 C.3       11 UNK         0.0294 
     31 CB        -55.1615  -27.5405   17.5221 C.3       11 UNK        -0.2019 
     32 N         -54.0114  -25.4123   17.1691 N.am      11 UNK        -0.4493 
     33 C         -53.7969  -24.1524   16.7705 C.2       11 UNK         0.4932 
     34 O         -54.5687  -23.5302   16.0396 O.2       11 UNK        -0.5029 
     35 CA        -52.4911  -23.4780   17.2337 C.3       10 UNK         0.0280 
     36 CB        -52.6359  -22.8586   18.6378 C.3       10 UNK        -0.1976 
     37 N         -51.3099  -24.3498   17.1244 N.am      10 UNK        -0.4242 
     38 C         -51.0059  -25.4416   17.8431 C.2       10 UNK         0.5072 
     39 O         -51.6865  -25.8484   18.7863 O.2       10 UNK        -0.5224 
     40 CA        -49.7793  -26.2648   17.4209 C.3       9 UNK         0.0343 
     41 CB        -50.2296  -27.5666   16.7375 C.3       9 UNK        -0.2003 
     42 N         -48.8557  -25.5472   16.5371 N.am      9 UNK        -0.4272 
     43 C         -47.9144  -24.7008   16.9786 C.2       9 UNK         0.4988 
     44 O         -47.7884  -24.3748   18.1598 O.2       9 UNK        -0.5108 
     45 CA        -46.9221  -24.1502   15.9421 C.3       8 UNK         0.0248 
     46 CB        -45.9173  -25.2377   15.5270 C.3       8 UNK        -0.2001 
     47 N         -47.5691  -23.5942   14.7531 N.am      8 UNK        -0.4140 
     48 C         -48.2723  -22.4531   14.7363 C.2       8 UNK         0.5028 
     49 O         -48.4585  -21.7465   15.7277 O.2       8 UNK        -0.5428 
     50 CA        -48.8792  -22.0263   13.3870 C.3       7 UNK         0.0264 
     51 CB        -47.8186  -21.3727   12.4866 C.3       7 UNK        -0.1988 
     52 N         -49.5230  -23.1303   12.6713 N.am      7 UNK        -0.4454 
     53 C         -50.5937  -23.7983   13.1284 C.2       7 UNK         0.5027 
     54 O         -51.1659  -23.5317   14.1849 O.2       7 UNK        -0.5083 
     55 CA        -51.0913  -24.9828   12.2779 C.3       6 UNK         0.0844 
     56 C56       -51.9871  -24.4656   11.1209 C.3       14 UNK        -0.0967 
     57 S57       -52.9654  -25.7859   10.3361 S.3       14 UNK        -0.2604 
     58 C58       -51.9298  -26.1959    8.9041 C.3       14 UNK         0.0134 
     59 N         -49.9650  -25.8147   11.8275 N.am      6 UNK        -0.4116 
     60 C         -49.1363  -26.4740   12.6549 C.2       5 UNK         0.5034 
     61 O         -49.2719  -26.5145   13.8761 O.2       5 UNK        -0.5045 
     62 CA        -47.8953  -27.1326   12.0365 C.3       5 UNK         0.0224 
     63 CB        -48.2047  -28.5414   11.5069 C.3       5 UNK        -0.1978 
     64 N         -47.3002  -26.3042   10.9858 N.am      5 UNK        -0.4737 
     65 C         -46.6351  -25.1655   11.2321 C.2       4 UNK         0.5027 
     66 O         -46.4464  -24.7270   12.3653 O.2       4 UNK        -0.5211 
     67 CA        -46.1139  -24.3571   10.0310 C.3       4 UNK         0.0297 
     68 CB        -44.6730  -24.7715    9.6955 C.3       4 UNK        -0.1993 
     69 N         -46.9442  -24.4740    8.8321 N.am      4 UNK        -0.4486 
     70 C         -48.2262  -24.0956    8.7419 C.2       3 UNK         0.4961 
     71 O         -48.8544  -23.5686    9.6625 O.2       3 UNK        -0.5105 
     72 CA        -48.9393  -24.4117    7.4129 C.3       3 UNK         0.0299 
     73 CB        -48.7145  -23.2733    6.4061 C.3       3 UNK        -0.1972 
     74 N         -48.5637  -25.6912    6.7881 N.am      3 UNK        -0.4305 
     75 C         -48.4945  -26.8934    7.3798 C.2       2 UNK         0.5006 
     76 O         -48.6751  -27.0636    8.5844 O.2       2 UNK        -0.5106 
     77 CA        -48.1413  -28.1003    6.4860 C.3       2 UNK         0.0296 
     78 CB        -48.0238  -29.4067    7.2952 C.3       2 UNK        -0.2002 
     79 N         -49.0952  -28.3174    5.3947 N.am      2 UNK        -0.4032 
     80 C         -49.2246  -27.5662    4.2944 C.2       1 UNK         0.5000 
     81 O         -48.5722  -26.5398    4.0917 O.2       1 UNK        -0.5238 
     82 H82       -48.8393  -26.8418    1.0761 H         1 UNK         0.0889 
     83 H83       -47.6059  -27.6529    0.1310 H         1 UNK         0.0889 
     84 H84       -47.3092  -27.3155    1.8323 H         1 UNK         0.0889 
     85 H85       -49.9757  -30.0238    2.5836 H         1 UNK         0.3028 
     86 H86       -50.4397  -27.1911    2.5951 H         1 UNK         0.0864 
     87 H87       -52.3388  -28.4917    3.0121 H         1 UNK         0.0720 
     88 H88       -51.9530  -27.7655    4.5363 H         1 UNK         0.0720 
     89 H89       -53.4196  -31.0224    5.8945 H         1 UNK         0.0814 
     90 H90       -53.7588  -29.3947    5.3752 H         1 UNK         0.0814 
     91 H91       -52.7958  -27.4495    6.6305 H         1 UNK         0.1469 
     92 H92       -51.1865  -28.2263   10.5165 H         1 UNK         0.1381 
     93 H93       -52.0570  -31.4901    7.8781 H         1 UNK         0.1206 
     94 H94       -50.0934  -30.8448   10.5820 H         1 UNK         0.0813 
     95 H95       -51.3392  -31.9752   10.1106 H         1 UNK         0.0813 
     96 H96       -54.1689  -31.5217   12.6074 H         1 UNK         0.0638 
     97 H97       -53.6000  -32.2111   11.1128 H         1 UNK         0.0638 
     98 H98       -54.1878  -30.1470    9.8832 H         1 UNK         0.0568 
     99 H99       -57.0267  -29.1717   10.4878 H         1 UNK         0.3450 
    100 H100      -57.9698  -30.5917   10.1131 H         1 UNK         0.3450 
    101 H101      -54.3344  -28.2097   10.8541 H         1 UNK         0.2987 
    102 H102      -54.4232  -26.6368   12.5642 H         1 UNK         0.0766 
    103 H103      -56.5494  -25.3689   12.1987 H         1 UNK         0.0798 
    104 H104      -57.4734  -26.8696   12.2808 H         1 UNK         0.0798 
    105 H105      -56.3370  -26.5953   10.9659 H         1 UNK         0.0798 
    106 H106      -56.5391  -26.5862   14.5593 H         1 UNK         0.3198 
    107 H107      -55.9741  -25.7842   16.5747 H         1 UNK         0.0843 
    108 H108      -54.2256  -28.0961   17.5981 H         1 UNK         0.0831 
    109 H109      -55.9171  -28.2266   17.1368 H         1 UNK         0.0831 
    110 H110      -55.4653  -27.2548   18.5294 H         1 UNK         0.0831 
    111 H111      -53.3039  -25.8281   17.7681 H         1 UNK         0.3133 
    112 H112      -52.3027  -22.6569   16.5404 H         1 UNK         0.0566 
    113 H113      -51.7195  -22.3544   18.9446 H         1 UNK         0.0814 
    114 H114      -53.4349  -22.1163   18.6504 H         1 UNK         0.0814 
    115 H115      -52.8796  -23.6039   19.3952 H         1 UNK         0.0814 
    116 H116      -50.7299  -24.1552   16.3167 H         1 UNK         0.3091 
    117 H117      -49.2455  -26.5395   18.3334 H         1 UNK         0.0702 
    118 H118      -49.3772  -28.1759   16.4369 H         1 UNK         0.0785 
    119 H119      -50.8301  -27.3672   15.8489 H         1 UNK         0.0785 
    120 H120      -50.8406  -28.1705   17.4097 H         1 UNK         0.0785 
    121 H121      -48.9067  -25.7795   15.5465 H         1 UNK         0.2998 
    122 H122      -46.3598  -23.3454   16.4206 H         1 UNK         0.0697 
    123 H123      -46.4038  -26.0569   14.9963 H         1 UNK         0.0825 
    124 H124      -45.4169  -25.6627   16.3981 H         1 UNK         0.0825 
    125 H125      -45.1433  -24.8325   14.8749 H         1 UNK         0.0825 
    126 H126      -47.3989  -24.0786   13.8746 H         1 UNK         0.3029 
    127 H127      -49.6491  -21.2802   13.5960 H         1 UNK         0.0897 
    128 H128      -48.2512  -21.0297   11.5465 H         1 UNK         0.0792 
    129 H129      -47.3755  -20.5045   12.9764 H         1 UNK         0.0792 
    130 H130      -47.0071  -22.0606   12.2502 H         1 UNK         0.0792 
    131 H131      -49.1328  -23.3883   11.7708 H         1 UNK         0.3086 
    132 H132      -51.7086  -25.6037   12.9319 H         1 UNK         0.0583 
    133 H133      -52.7093  -23.7391   11.5001 H         1 UNK         0.1020 
    134 H134      -51.4019  -23.9317   10.3703 H         1 UNK         0.1020 
    135 H135      -52.2440  -25.6004    8.0459 H         1 UNK         0.0694 
    136 H136      -50.8990  -25.9250    9.1185 H         1 UNK         0.0694 
    137 H137      -49.7498  -25.8045   10.8411 H         1 UNK         0.2989 
    138 H138      -47.1585  -27.2407   12.8358 H         1 UNK         0.1055 
    139 H139      -48.6529  -29.1612   12.2848 H         1 UNK         0.0806 
    140 H140      -47.2978  -29.0449   11.1725 H         1 UNK         0.0806 
    141 H141      -48.8983  -28.5214   10.6690 H         1 UNK         0.0806 
    142 H142      -47.5051  -26.5700   10.0257 H         1 UNK         0.3061 
    143 H143      -46.1070  -23.3051   10.3229 H         1 UNK         0.0734 
    144 H144      -44.2517  -24.1468    8.9077 H         1 UNK         0.0832 
    145 H145      -44.0258  -24.6688   10.5680 H         1 UNK         0.0832 
    146 H146      -44.6166  -25.8109    9.3695 H         1 UNK         0.0832 
    147 H147      -46.5239  -24.9131    8.0262 H         1 UNK         0.3156 
    148 H148      -50.0082  -24.4561    7.6195 H         1 UNK         0.0589 
    149 H149      -47.6675  -23.1961    6.1103 H         1 UNK         0.0808 
    150 H150      -49.3077  -23.4190    5.5030 H         1 UNK         0.0808 
    151 H151      -49.0059  -22.3115    6.8310 H         1 UNK         0.0808 
    152 H152      -48.4245  -25.6812    5.7804 H         1 UNK         0.3098 
    153 H153      -47.1634  -27.8937    6.0466 H         1 UNK         0.0720 
    154 H154      -47.7079  -30.2387    6.6659 H         1 UNK         0.0791 
    155 H155      -48.9738  -29.6772    7.7588 H         1 UNK         0.0791 
    156 H156      -47.2881  -29.3094    8.0948 H         1 UNK         0.0791 
    157 H157      -49.7096  -29.1165    5.4879 H         1 UNK         0.3028 
@<TRIPOS>BOND
     1    1    2 1    
     2    1   82 1    
     3    1   83 1    
     4    1   84 1    
     5    2    3 2    
     6    2    4 am   BACKBONE|DICT|INTERRES
     7    4    5 1    
     8    4   85 1    
     9    5    6 1    
    10    5   80 1    
    11    5   86 1    
    12    6    7 1    
    13    6   87 1    
    14    6   88 1    
    15    7    8 1    
    16    8    9 1    
    17    8   89 1    
    18    8   90 1    
    19    9   10 ar   
    20    9   14 ar   
    21   10   11 ar   
    22   10   91 1    
    23   11   12 ar   
    24   11   58 1    
    25   12   13 ar   
    26   12   92 1    
    27   13   14 ar   
    28   13   15 1    
    29   14   93 1    
    30   15   16 1    
    31   15   94 1    
    32   15   95 1    
    33   16   17 1    
    34   17   18 1    
    35   17   96 1    
    36   17   97 1    
    37   18   19 1    
    38   18   22 1    
    39   18   98 1    
    40   19   20 am   BACKBONE|DICT|INTERRES
    41   19   21 2    
    42   20   99 1    
    43   20  100 1    
    44   22   23 am   BACKBONE|DICT|INTERRES
    45   22  101 1    
    46   23   24 2    
    47   23   25 1    
    48   25   26 1    
    49   25   27 1    
    50   25  102 1    
    51   26  103 1    
    52   26  104 1    
    53   26  105 1    
    54   27   28 am   BACKBONE|DICT|INTERRES
    55   27  106 1    
    56   28   29 2    
    57   28   30 1    
    58   30   31 1    
    59   30   32 1    
    60   30  107 1    
    61   31  108 1    
    62   31  109 1    
    63   31  110 1    
    64   32   33 am   BACKBONE|DICT|INTERRES
    65   32  111 1    
    66   33   34 2    
    67   33   35 1    
    68   35   36 1    
    69   35   37 1    
    70   35  112 1    
    71   36  113 1    
    72   36  114 1    
    73   36  115 1    
    74   37   38 am   BACKBONE|DICT|INTERRES
    75   37  116 1    
    76   38   39 2    
    77   38   40 1    
    78   40   41 1    
    79   40   42 1    
    80   40  117 1    
    81   41  118 1    
    82   41  119 1    
    83   41  120 1    
    84   42   43 am   BACKBONE|DICT|INTERRES
    85   42  121 1    
    86   43   44 2    
    87   43   45 1    
    88   45   46 1    
    89   45   47 1    
    90   45  122 1    
    91   46  123 1    
    92   46  124 1    
    93   46  125 1    
    94   47   48 am   BACKBONE|DICT|INTERRES
    95   47  126 1    
    96   48   49 2    
    97   48   50 1    
    98   50   51 1    
    99   50   52 1    
   100   50  127 1    
   101   51  128 1    
   102   51  129 1    
   103   51  130 1    
   104   52   53 am   BACKBONE|DICT|INTERRES
   105   52  131 1    
   106   53   54 2    
   107   53   55 1    
   108   55   56 1    
   109   55   59 1    
   110   55  132 1    
   111   56   57 1    
   112   56  133 1    
   113   56  134 1    
   114   57   58 1    
   115   58  135 1    
   116   58  136 1    
   117   59   60 am   BACKBONE|DICT|INTERRES
   118   59  137 1    
   119   60   61 2    
   120   60   62 1    
   121   62   63 1    
   122   62   64 1    
   123   62  138 1    
   124   63  139 1    
   125   63  140 1    
   126   63  141 1    
   127   64   65 am   BACKBONE|DICT|INTERRES
   128   64  142 1    
   129   65   66 2    
   130   65   67 1    
   131   67   68 1    
   132   67   69 1    
   133   67  143 1    
   134   68  144 1    
   135   68  145 1    
   136   68  146 1    
   137   69   70 am   BACKBONE|DICT|INTERRES
   138   69  147 1    
   139   70   71 2    
   140   70   72 1    
   141   72   73 1    
   142   72   74 1    
   143   72  148 1    
   144   73  149 1    
   145   73  150 1    
   146   73  151 1    
   147   74   75 am   BACKBONE|DICT|INTERRES
   148   74  152 1    
   149   75   76 2    
   150   75   77 1    
   151   77   78 1    
   152   77   79 1    
   153   77  153 1    
   154   78  154 1    
   155   78  155 1    
   156   78  156 1    
   157   79   80 am   BACKBONE|DICT|INTERRES
   158   79  157 1    
   159   80   81 2    
@<TRIPOS>SUBSTRUCTURE
     1 UNK         1 GROUP             0       ****    0 ROOT    
