@<TRIPOS>MOLECULE
3R207
157   159    1
SMALL
USER_CHARGES


@<TRIPOS>ATOM
      1 CA        -48.2693  -32.4188    8.3513 C.3       0 UNK        -0.1975 
      2 C         -48.6148  -31.5212    7.1722 C.2       0 UNK         0.4852 
      3 O         -49.2962  -31.9613    6.2455 O.2       0 UNK        -0.5216 
      4 N         -48.1495  -30.2691    7.2006 N.am      1 UNK        -0.4461 
      5 CA        -48.3681  -29.2536    6.1756 C.3       1 UNK         0.0864 
      6 C6        -49.7863  -28.6294    6.2854 C.3       14 UNK        -0.0898 
      7 S7        -50.1768  -27.4772    4.9248 S.3       14 UNK        -0.2598 
      8 C8        -51.9821  -27.6467    4.8093 C.3       14 UNK         0.0286 
      9 C9        -52.6955  -27.1003    6.0383 C.ar      14 UNK        -0.0844 
     10 C10       -52.6259  -25.7378    6.3475 C.ar      14 UNK        -0.0881 
     11 C11       -53.3424  -25.2171    7.4291 C.ar      14 UNK        -0.0643 
     12 C12       -54.1408  -26.0716    8.1933 C.ar      14 UNK        -0.0930 
     13 C13       -54.1915  -27.4425    7.9206 C.ar      14 UNK        -0.0827 
     14 C14       -53.4649  -27.9495    6.8393 C.ar      14 UNK        -0.1249 
     15 C15       -55.0663  -28.3756    8.7509 C.3       14 UNK         0.0141 
     16 S16       -54.9760  -28.0404   10.5403 S.3       14 UNK        -0.2313 
     17 C17       -56.0863  -29.3383   11.1841 C.3       14 UNK        -0.0915 
     18 CA        -55.3529  -30.4198   12.0196 C.3       13 UNK         0.0968 
     19 C         -54.5189  -31.4018   11.1444 C.2       13 UNK         0.5732 
     20 N         -53.2353  -31.6110   11.4123 N.am      13 UNK        -0.7310 
     21 O         -55.0531  -31.9986   10.2126 O.2       13 UNK        -0.5035 
     22 N         -54.6213  -29.8044   13.1348 N.am      13 UNK        -0.4233 
     23 C         -54.3658  -30.3802   14.3144 C.2       13 UNK         0.4989 
     24 O         -54.7100  -31.5254   14.6081 O.2       13 UNK        -0.4996 
     25 CA        -53.5952  -29.5385   15.3462 C.3       12 UNK         0.0216 
     26 CB        -52.1305  -29.9897   15.4238 C.3       12 UNK        -0.1964 
     27 N         -53.6460  -28.0986   15.0696 N.am      12 UNK        -0.4276 
     28 C         -54.7047  -27.3202   15.3278 C.2       12 UNK         0.5020 
     29 O         -55.7384  -27.7265   15.8635 O.2       12 UNK        -0.5489 
     30 CA        -54.5722  -25.8447   14.9080 C.3       11 UNK         0.0294 
     31 CB        -55.8358  -25.0118   15.2105 C.3       11 UNK        -0.2019 
     32 N         -53.3786  -25.2008   15.4733 N.am      11 UNK        -0.4493 
     33 C         -53.0673  -25.0564   16.7699 C.2       11 UNK         0.4932 
     34 O         -53.7642  -25.4561   17.7045 O.2       11 UNK        -0.5029 
     35 CA        -51.7393  -24.3294   17.0493 C.3       10 UNK         0.0280 
     36 CB        -51.5048  -24.0405   18.5480 C.3       10 UNK        -0.1976 
     37 N         -50.5915  -25.0303   16.4623 N.am      10 UNK        -0.4242 
     38 C         -50.1393  -26.2596   16.7592 C.2       10 UNK         0.5072 
     39 O         -50.6596  -27.0038   17.5910 O.2       10 UNK        -0.5224 
     40 CA        -48.8818  -26.7543   16.0177 C.3       9 UNK         0.0343 
     41 CB        -49.1883  -27.9911   15.1599 C.3       9 UNK        -0.2003 
     42 N         -48.2676  -25.7403   15.1612 N.am      9 UNK        -0.4272 
     43 C         -47.4306  -24.7842   15.5804 C.2       9 UNK         0.4988 
     44 O         -47.1067  -24.6179   16.7566 O.2       9 UNK        -0.5108 
     45 CA        -46.8631  -23.8577   14.4977 C.3       8 UNK         0.0248 
     46 CB        -45.7204  -24.5468   13.7337 C.3       8 UNK        -0.2001 
     47 N         -47.8967  -23.4087   13.5596 N.am      8 UNK        -0.4140 
     48 C         -48.7279  -22.3900   13.8115 C.2       8 UNK         0.5028 
     49 O         -48.7597  -21.7804   14.8813 O.2       8 UNK        -0.5428 
     50 CA        -49.6552  -21.9446   12.6722 C.3       7 UNK         0.0264 
     51 CB        -48.8735  -21.1398   11.6205 C.3       7 UNK        -0.1988 
     52 N         -50.3865  -23.0317   12.0174 N.am      7 UNK        -0.4454 
     53 C         -51.4162  -23.6772   12.5824 C.2       7 UNK         0.5027 
     54 O         -51.6925  -23.6095   13.7807 O.2       7 UNK        -0.5083 
     55 CA        -52.3268  -24.5037   11.6576 C.3       6 UNK         0.0844 
     56 C56       -53.0318  -23.6410   10.5750 C.3       14 UNK        -0.0967 
     57 S57       -52.0735  -23.3397    9.0463 S.3       14 UNK        -0.2604 
     58 C58       -53.2858  -23.7280    7.7421 C.3       14 UNK         0.0134 
     59 N         -51.6135  -25.6627   11.1355 N.am      6 UNK        -0.4116 
     60 C         -51.4909  -26.8319   11.7776 C.2       5 UNK         0.5034 
     61 O         -52.0694  -27.1150   12.8299 O.2       5 UNK        -0.5045 
     62 CA        -50.5253  -27.8526   11.1516 C.3       5 UNK         0.0224 
     63 CB        -51.2376  -28.6767   10.0672 C.3       5 UNK        -0.1978 
     64 N         -49.3174  -27.2460   10.5810 N.am      5 UNK        -0.4737 
     65 C         -48.4312  -26.4982   11.2551 C.2       4 UNK         0.5027 
     66 O         -48.5364  -26.2066   12.4441 O.2       4 UNK        -0.5211 
     67 CA        -47.2415  -25.9471   10.4591 C.3       4 UNK         0.0297 
     68 CB        -46.0772  -26.9494   10.4652 C.3       4 UNK        -0.1993 
     69 N         -47.6075  -25.6021    9.0844 N.am      4 UNK        -0.4486 
     70 C         -48.3772  -24.5498    8.7636 C.2       3 UNK         0.4961 
     71 O         -48.8558  -23.7987    9.6139 O.2       3 UNK        -0.5105 
     72 CA        -48.7053  -24.2972    7.2752 C.3       3 UNK         0.0299 
     73 CB        -48.6192  -22.8012    6.9103 C.3       3 UNK        -0.1972 
     74 N         -47.9402  -25.1211    6.3304 N.am      3 UNK        -0.4305 
     75 C         -46.6119  -25.1387    6.1249 C.2       2 UNK         0.5006 
     76 O         -45.8265  -24.3385    6.6347 O.2       2 UNK        -0.5106 
     77 CA        -46.0725  -26.2853    5.2370 C.3       2 UNK         0.0296 
     78 CB        -44.6061  -26.6436    5.5612 C.3       2 UNK        -0.2002 
     79 N         -46.9184  -27.4907    5.2703 N.am      2 UNK        -0.4032 
     80 C         -47.2713  -28.1931    6.3592 C.2       1 UNK         0.5000 
     81 O         -46.8375  -27.9696    7.4924 O.2       1 UNK        -0.5238 
     82 H82       -49.1808  -32.7674    8.8361 H         1 UNK         0.0889 
     83 H83       -47.6668  -31.8993    9.0964 H         1 UNK         0.0889 
     84 H84       -47.7100  -33.2893    8.0093 H         1 UNK         0.0889 
     85 H85       -47.5545  -29.9499    7.9565 H         1 UNK         0.3028 
     86 H86       -48.2425  -29.7174    5.1946 H         1 UNK         0.0864 
     87 H87       -50.5354  -29.4226    6.2825 H         1 UNK         0.0720 
     88 H88       -49.9124  -28.1046    7.2341 H         1 UNK         0.0720 
     89 H89       -52.2359  -28.6940    4.6379 H         1 UNK         0.0814 
     90 H90       -52.3294  -27.1027    3.9299 H         1 UNK         0.0814 
     91 H91       -52.0263  -25.0805    5.7326 H         1 UNK         0.1469 
     92 H92       -54.7315  -25.6734    9.0039 H         1 UNK         0.1381 
     93 H93       -53.5195  -29.0038    6.6044 H         1 UNK         0.1206 
     94 H94       -56.0999  -28.2735    8.4180 H         1 UNK         0.0813 
     95 H95       -54.7807  -29.4149    8.5795 H         1 UNK         0.0813 
     96 H96       -56.8309  -28.8450   11.8107 H         1 UNK         0.0638 
     97 H97       -56.6521  -29.7920   10.3685 H         1 UNK         0.0638 
     98 H98       -56.1333  -31.0445   12.4579 H         1 UNK         0.0568 
     99 H99       -52.7928  -31.1472   12.1874 H         1 UNK         0.3450 
    100 H100      -52.7145  -32.2582   10.8429 H         1 UNK         0.3450 
    101 H101      -54.2751  -28.8714   12.9639 H         1 UNK         0.2987 
    102 H102      -54.0552  -29.7213   16.3198 H         1 UNK         0.0766 
    103 H103      -51.6193  -29.4895   16.2459 H         1 UNK         0.0798 
    104 H104      -51.5903  -29.7767   14.5006 H         1 UNK         0.0798 
    105 H105      -52.0574  -31.0627   15.6073 H         1 UNK         0.0798 
    106 H106      -52.8668  -27.6941   14.5567 H         1 UNK         0.3198 
    107 H107      -54.4456  -25.8556   13.8260 H         1 UNK         0.0843 
    108 H108      -56.0539  -24.9774   16.2784 H         1 UNK         0.0831 
    109 H109      -56.7098  -25.4366   14.7150 H         1 UNK         0.0831 
    110 H110      -55.7293  -23.9866   14.8562 H         1 UNK         0.0831 
    111 H111      -52.7283  -24.7986   14.8009 H         1 UNK         0.3133 
    112 H112      -51.8002  -23.3652   16.5423 H         1 UNK         0.0566 
    113 H113      -50.5770  -23.4904   18.7046 H         1 UNK         0.0814 
    114 H114      -52.3143  -23.4351   18.9575 H         1 UNK         0.0814 
    115 H115      -51.4557  -24.9559   19.1386 H         1 UNK         0.0814 
    116 H116      -50.1052  -24.5255   15.7341 H         1 UNK         0.3091 
    117 H117      -48.1547  -27.0480   16.7777 H         1 UNK         0.0702 
    118 H118      -49.4646  -28.8368   15.7884 H         1 UNK         0.0785 
    119 H119      -50.0069  -27.8039   14.4653 H         1 UNK         0.0785 
    120 H120      -48.3198  -28.2985   14.5770 H         1 UNK         0.0785 
    121 H121      -48.4437  -25.8302   14.1595 H         1 UNK         0.2998 
    122 H122      -46.4413  -22.9817   14.9961 H         1 UNK         0.0697 
    123 H123      -46.0445  -25.4760   13.2666 H         1 UNK         0.0825 
    124 H124      -44.9009  -24.7965   14.4088 H         1 UNK         0.0825 
    125 H125      -45.3130  -23.9008   12.9558 H         1 UNK         0.0825 
    126 H126      -47.9852  -23.9069   12.6846 H         1 UNK         0.3029 
    127 H127      -50.3973  -21.2724   13.1096 H         1 UNK         0.0897 
    128 H128      -48.1004  -21.7405   11.1404 H         1 UNK         0.0792 
    129 H129      -48.3804  -20.2795   12.0753 H         1 UNK         0.0792 
    130 H130      -49.5332  -20.7602   10.8400 H         1 UNK         0.0792 
    131 H131      -50.1663  -23.2013   11.0391 H         1 UNK         0.3086 
    132 H132      -53.1326  -24.8717   12.2926 H         1 UNK         0.0583 
    133 H133      -53.9736  -24.1193   10.3151 H         1 UNK         0.1020 
    134 H134      -53.3292  -22.6734   10.9849 H         1 UNK         0.1020 
    135 H135      -54.2729  -23.3616    8.0281 H         1 UNK         0.0694 
    136 H136      -53.0107  -23.1729    6.8441 H         1 UNK         0.0694 
    137 H137      -51.0914  -25.5158   10.2841 H         1 UNK         0.2989 
    138 H138      -50.2084  -28.5284   11.9488 H         1 UNK         0.1055 
    139 H139      -52.1293  -29.1591   10.4676 H         1 UNK         0.0806 
    140 H140      -50.5945  -29.4645    9.6745 H         1 UNK         0.0806 
    141 H141      -51.5574  -28.0538    9.2308 H         1 UNK         0.0806 
    142 H142      -49.1342  -27.4214    9.6045 H         1 UNK         0.3061 
    143 H143      -46.9008  -25.0342   10.9513 H         1 UNK         0.0734 
    144 H144      -45.2300  -26.5797    9.8874 H         1 UNK         0.0832 
    145 H145      -45.7239  -27.1301   11.4809 H         1 UNK         0.0832 
    146 H146      -46.3692  -27.9153   10.0527 H         1 UNK         0.0832 
    147 H147      -47.2562  -26.2145    8.3545 H         1 UNK         0.3156 
    148 H148      -49.7457  -24.6016    7.1517 H         1 UNK         0.0589 
    149 H149      -47.6198  -22.3993    7.0778 H         1 UNK         0.0808 
    150 H150      -48.8815  -22.6311    5.8663 H         1 UNK         0.0808 
    151 H151      -49.3097  -22.2123    7.5158 H         1 UNK         0.0808 
    152 H152      -48.4872  -25.8179    5.8416 H         1 UNK         0.3098 
    153 H153      -46.1049  -25.9138    4.2118 H         1 UNK         0.0720 
    154 H154      -44.2439  -27.4489    4.9224 H         1 UNK         0.0791 
    155 H155      -44.4860  -26.9584    6.5985 H         1 UNK         0.0791 
    156 H156      -43.9488  -25.7875    5.4039 H         1 UNK         0.0791 
    157 H157      -47.3539  -27.7359    4.3908 H         1 UNK         0.3028 
@<TRIPOS>BOND
     1    1    2 1    
     2    1   82 1    
     3    1   83 1    
     4    1   84 1    
     5    2    3 2    
     6    2    4 am   BACKBONE|DICT|INTERRES
     7    4    5 1    
     8    4   85 1    
     9    5    6 1    
    10    5   80 1    
    11    5   86 1    
    12    6    7 1    
    13    6   87 1    
    14    6   88 1    
    15    7    8 1    
    16    8    9 1    
    17    8   89 1    
    18    8   90 1    
    19    9   10 ar   
    20    9   14 ar   
    21   10   11 ar   
    22   10   91 1    
    23   11   12 ar   
    24   11   58 1    
    25   12   13 ar   
    26   12   92 1    
    27   13   14 ar   
    28   13   15 1    
    29   14   93 1    
    30   15   16 1    
    31   15   94 1    
    32   15   95 1    
    33   16   17 1    
    34   17   18 1    
    35   17   96 1    
    36   17   97 1    
    37   18   19 1    
    38   18   22 1    
    39   18   98 1    
    40   19   20 am   BACKBONE|DICT|INTERRES
    41   19   21 2    
    42   20   99 1    
    43   20  100 1    
    44   22   23 am   BACKBONE|DICT|INTERRES
    45   22  101 1    
    46   23   24 2    
    47   23   25 1    
    48   25   26 1    
    49   25   27 1    
    50   25  102 1    
    51   26  103 1    
    52   26  104 1    
    53   26  105 1    
    54   27   28 am   BACKBONE|DICT|INTERRES
    55   27  106 1    
    56   28   29 2    
    57   28   30 1    
    58   30   31 1    
    59   30   32 1    
    60   30  107 1    
    61   31  108 1    
    62   31  109 1    
    63   31  110 1    
    64   32   33 am   BACKBONE|DICT|INTERRES
    65   32  111 1    
    66   33   34 2    
    67   33   35 1    
    68   35   36 1    
    69   35   37 1    
    70   35  112 1    
    71   36  113 1    
    72   36  114 1    
    73   36  115 1    
    74   37   38 am   BACKBONE|DICT|INTERRES
    75   37  116 1    
    76   38   39 2    
    77   38   40 1    
    78   40   41 1    
    79   40   42 1    
    80   40  117 1    
    81   41  118 1    
    82   41  119 1    
    83   41  120 1    
    84   42   43 am   BACKBONE|DICT|INTERRES
    85   42  121 1    
    86   43   44 2    
    87   43   45 1    
    88   45   46 1    
    89   45   47 1    
    90   45  122 1    
    91   46  123 1    
    92   46  124 1    
    93   46  125 1    
    94   47   48 am   BACKBONE|DICT|INTERRES
    95   47  126 1    
    96   48   49 2    
    97   48   50 1    
    98   50   51 1    
    99   50   52 1    
   100   50  127 1    
   101   51  128 1    
   102   51  129 1    
   103   51  130 1    
   104   52   53 am   BACKBONE|DICT|INTERRES
   105   52  131 1    
   106   53   54 2    
   107   53   55 1    
   108   55   56 1    
   109   55   59 1    
   110   55  132 1    
   111   56   57 1    
   112   56  133 1    
   113   56  134 1    
   114   57   58 1    
   115   58  135 1    
   116   58  136 1    
   117   59   60 am   BACKBONE|DICT|INTERRES
   118   59  137 1    
   119   60   61 2    
   120   60   62 1    
   121   62   63 1    
   122   62   64 1    
   123   62  138 1    
   124   63  139 1    
   125   63  140 1    
   126   63  141 1    
   127   64   65 am   BACKBONE|DICT|INTERRES
   128   64  142 1    
   129   65   66 2    
   130   65   67 1    
   131   67   68 1    
   132   67   69 1    
   133   67  143 1    
   134   68  144 1    
   135   68  145 1    
   136   68  146 1    
   137   69   70 am   BACKBONE|DICT|INTERRES
   138   69  147 1    
   139   70   71 2    
   140   70   72 1    
   141   72   73 1    
   142   72   74 1    
   143   72  148 1    
   144   73  149 1    
   145   73  150 1    
   146   73  151 1    
   147   74   75 am   BACKBONE|DICT|INTERRES
   148   74  152 1    
   149   75   76 2    
   150   75   77 1    
   151   77   78 1    
   152   77   79 1    
   153   77  153 1    
   154   78  154 1    
   155   78  155 1    
   156   78  156 1    
   157   79   80 am   BACKBONE|DICT|INTERRES
   158   79  157 1    
   159   80   81 2    
@<TRIPOS>SUBSTRUCTURE
     1 UNK         1 GROUP             0       ****    0 ROOT    
