@<TRIPOS>MOLECULE
3R207
157   159    1
SMALL
USER_CHARGES


@<TRIPOS>ATOM
      1 CA        -46.1223  -30.7269    4.9570 C.3       0 UNK        -0.1975 
      2 C         -45.9299  -29.8478    6.1892 C.2       0 UNK         0.4852 
      3 O         -44.8449  -29.8469    6.7674 O.2       0 UNK        -0.5216 
      4 N         -46.9370  -29.0844    6.6252 N.am      1 UNK        -0.4461 
      5 CA        -48.2638  -28.9340    6.0340 C.3       1 UNK         0.0864 
      6 C6        -49.2548  -29.9881    6.5939 C.3       14 UNK        -0.0898 
      7 S7        -50.8837  -29.9552    5.7747 S.3       14 UNK        -0.2598 
      8 C8        -51.9613  -30.6576    7.0671 C.3       14 UNK         0.0286 
      9 C9        -52.0951  -29.7778    8.3065 C.ar      14 UNK        -0.0844 
     10 C10       -52.5578  -28.4604    8.2039 C.ar      14 UNK        -0.0881 
     11 C11       -52.7424  -27.6794    9.3498 C.ar      14 UNK        -0.0643 
     12 C12       -52.4564  -28.2250   10.6013 C.ar      14 UNK        -0.0930 
     13 C13       -52.0068  -29.5419   10.7229 C.ar      14 UNK        -0.0827 
     14 C14       -51.8166  -30.3095    9.5706 C.ar      14 UNK        -0.1249 
     15 C15       -51.7628  -30.1428   12.1015 C.3       14 UNK         0.0141 
     16 S16       -53.1775  -29.9105   13.2329 S.3       14 UNK        -0.2313 
     17 C17       -54.5022  -30.8763   12.4275 C.3       14 UNK        -0.0915 
     18 CA        -55.3353  -30.0795   11.3832 C.3       13 UNK         0.0968 
     19 C         -56.5052  -30.9400   10.8366 C.2       13 UNK         0.5732 
     20 N         -56.2268  -31.8455    9.9052 N.am      13 UNK        -0.7310 
     21 O         -57.6506  -30.8245   11.2736 O.2       13 UNK        -0.5035 
     22 N         -55.7746  -28.7713   11.8912 N.am      13 UNK        -0.4233 
     23 C         -56.2499  -27.7796   11.1279 C.2       13 UNK         0.4989 
     24 O         -56.3483  -27.8516    9.9047 O.2       13 UNK        -0.4996 
     25 CA        -56.7047  -26.4819   11.8251 C.3       12 UNK         0.0216 
     26 CB        -58.2308  -26.3106   11.6997 C.3       12 UNK        -0.1964 
     27 N         -56.3346  -26.3955   13.2420 N.am      12 UNK        -0.4276 
     28 C         -55.1165  -26.0814   13.6997 C.2       12 UNK         0.5020 
     29 O         -54.1432  -25.8555   12.9784 O.2       12 UNK        -0.5489 
     30 CA        -54.9698  -26.0285   15.2246 C.3       11 UNK         0.0294 
     31 CB        -54.9371  -27.4462   15.8281 C.3       11 UNK        -0.2019 
     32 N         -53.7394  -25.3250   15.5737 N.am      11 UNK        -0.4493 
     33 C         -53.5027  -24.7042   16.7362 C.2       11 UNK         0.4932 
     34 O         -54.3458  -24.5717   17.6258 O.2       11 UNK        -0.5029 
     35 CA        -52.0654  -24.1876   16.9433 C.3       10 UNK         0.0280 
     36 CB        -51.8010  -23.6474   18.3650 C.3       10 UNK        -0.1976 
     37 N         -51.0796  -25.2079   16.5670 N.am      10 UNK        -0.4242 
     38 C         -50.9259  -26.4281   17.1071 C.2       10 UNK         0.5072 
     39 O         -51.5144  -26.8216   18.1150 O.2       10 UNK        -0.5224 
     40 CA        -49.9777  -27.3975   16.3831 C.3       9 UNK         0.0343 
     41 CB        -50.7773  -28.2925   15.4236 C.3       9 UNK        -0.2003 
     42 N         -48.9169  -26.7181   15.6375 N.am      9 UNK        -0.4272 
     43 C         -47.8261  -26.1819   16.2019 C.2       9 UNK         0.4988 
     44 O         -47.5856  -26.2261   17.4090 O.2       9 UNK        -0.5108 
     45 CA        -46.8356  -25.4729   15.2636 C.3       8 UNK         0.0248 
     46 CB        -45.9869  -26.4966   14.4933 C.3       8 UNK        -0.2001 
     47 N         -47.4918  -24.5562   14.3268 N.am      8 UNK        -0.4140 
     48 C         -48.1331  -23.4366   14.6960 C.2       8 UNK         0.5028 
     49 O         -48.2197  -23.0470   15.8609 O.2       8 UNK        -0.5428 
     50 CA        -48.7975  -22.6075   13.5861 C.3       7 UNK         0.0264 
     51 CB        -47.7748  -21.6660   12.9319 C.3       7 UNK        -0.1988 
     52 N         -49.4312  -23.4324   12.5579 N.am      7 UNK        -0.4454 
     53 C         -50.5182  -24.1928   12.7563 C.2       7 UNK         0.5027 
     54 O         -51.1233  -24.2582   13.8259 O.2       7 UNK        -0.5083 
     55 CA        -50.9707  -25.0689   11.5744 C.3       6 UNK         0.0844 
     56 C56       -51.7472  -24.2379   10.5192 C.3       14 UNK        -0.0967 
     57 S57       -51.9889  -25.0587    8.9032 S.3       14 UNK        -0.2604 
     58 C58       -53.3001  -26.2681    9.2441 C.3       14 UNK         0.0134 
     59 N         -49.8522  -25.8251   11.0143 N.am      6 UNK        -0.4116 
     60 C         -49.1202  -26.7322   11.6741 C.2       5 UNK         0.5034 
     61 O         -49.2904  -27.0405   12.8520 O.2       5 UNK        -0.5045 
     62 CA        -47.9735  -27.3801   10.8921 C.3       5 UNK         0.0224 
     63 CB        -48.4723  -28.6379   10.1669 C.3       5 UNK        -0.1978 
     64 N         -47.3746  -26.4468    9.9353 N.am      5 UNK        -0.4737 
     65 C         -46.6271  -25.3945   10.2943 C.2       4 UNK         0.5027 
     66 O         -46.3562  -25.1155   11.4632 O.2       4 UNK        -0.5211 
     67 CA        -46.1297  -24.4843    9.1615 C.3       4 UNK         0.0297 
     68 CB        -45.1248  -25.2219    8.2607 C.3       4 UNK        -0.1993 
     69 N         -47.2096  -23.9332    8.3398 N.am      4 UNK        -0.4486 
     70 C         -48.2118  -23.1596    8.7748 C.2       3 UNK         0.4961 
     71 O         -48.3973  -22.8747    9.9567 O.2       3 UNK        -0.5105 
     72 CA        -49.1888  -22.6153    7.7192 C.3       3 UNK         0.0299 
     73 CB        -48.5488  -21.5012    6.8680 C.3       3 UNK        -0.1972 
     74 N         -49.7962  -23.6675    6.8987 N.am      3 UNK        -0.4305 
     75 C         -49.2206  -24.4652    5.9914 C.2       2 UNK         0.5006 
     76 O         -48.0558  -24.3555    5.6000 O.2       2 UNK        -0.5106 
     77 CA        -50.1123  -25.5943    5.4484 C.3       2 UNK         0.0296 
     78 CB        -50.6637  -25.2202    4.0631 C.3       2 UNK        -0.2002 
     79 N         -49.4494  -26.8995    5.3667 N.am      2 UNK        -0.4032 
     80 C         -48.7199  -27.4942    6.3230 C.2       1 UNK         0.5000 
     81 O         -48.4166  -26.9765    7.4017 O.2       1 UNK        -0.5238 
     82 H82       -46.1602  -30.1173    4.0547 H         1 UNK         0.0889 
     83 H83       -47.0361  -31.3148    5.0218 H         1 UNK         0.0889 
     84 H84       -45.2912  -31.4240    4.8536 H         1 UNK         0.0889 
     85 H85       -46.7878  -28.4707    7.4151 H         1 UNK         0.3028 
     86 H86       -48.1898  -29.0472    4.9509 H         1 UNK         0.0864 
     87 H87       -48.8509  -30.9925    6.4702 H         1 UNK         0.0720 
     88 H88       -49.3849  -29.8551    7.6679 H         1 UNK         0.0720 
     89 H89       -51.5878  -31.6475    7.3329 H         1 UNK         0.0814 
     90 H90       -52.9543  -30.8119    6.6444 H         1 UNK         0.0814 
     91 H91       -52.7908  -28.0490    7.2319 H         1 UNK         0.1469 
     92 H92       -52.6347  -27.6443   11.4933 H         1 UNK         0.1381 
     93 H93       -51.4769  -31.3321    9.6596 H         1 UNK         0.1206 
     94 H94       -51.5323  -31.2065   12.0317 H         1 UNK         0.0813 
     95 H95       -50.8866  -29.6619   12.5384 H         1 UNK         0.0813 
     96 H96       -55.1523  -31.2501   13.2211 H         1 UNK         0.0638 
     97 H97       -54.0541  -31.7571   11.9631 H         1 UNK         0.0638 
     98 H98       -54.6923  -29.8752   10.5282 H         1 UNK         0.0568 
     99 H99       -56.9703  -32.4226    9.5487 H         1 UNK         0.3450 
    100 H100      -55.2894  -31.9610    9.5500 H         1 UNK         0.3450 
    101 H101      -55.7236  -28.6409   12.8861 H         1 UNK         0.2987 
    102 H102      -56.2267  -25.6529   11.2954 H         1 UNK         0.0766 
    103 H103      -58.5636  -25.3616   12.1243 H         1 UNK         0.0798 
    104 H104      -58.7717  -27.1144   12.2045 H         1 UNK         0.0798 
    105 H105      -58.5402  -26.3176   10.6532 H         1 UNK         0.0798 
    106 H106      -57.0721  -26.5739   13.9089 H         1 UNK         0.3198 
    107 H107      -55.8237  -25.4774   15.6265 H         1 UNK         0.0843 
    108 H108      -54.0841  -28.0177   15.4592 H         1 UNK         0.0831 
    109 H109      -55.8398  -28.0071   15.5840 H         1 UNK         0.0831 
    110 H110      -54.8664  -27.4128   16.9157 H         1 UNK         0.0831 
    111 H111      -53.0337  -25.3169   14.8435 H         1 UNK         0.3133 
    112 H112      -51.9317  -23.3573   16.2488 H         1 UNK         0.0566 
    113 H113      -50.7760  -23.2904   18.4671 H         1 UNK         0.0814 
    114 H114      -52.4611  -22.8091   18.5909 H         1 UNK         0.0814 
    115 H115      -51.9698  -24.4065   19.1293 H         1 UNK         0.0814 
    116 H116      -50.5890  -25.0127   15.7018 H         1 UNK         0.3091 
    117 H117      -49.5161  -28.0377   17.1379 H         1 UNK         0.0702 
    118 H118      -50.1335  -29.0198   14.9292 H         1 UNK         0.0785 
    119 H119      -51.2774  -27.7086   14.6490 H         1 UNK         0.0785 
    120 H120      -51.5475  -28.8507   15.9573 H         1 UNK         0.0785 
    121 H121      -49.0227  -26.6882   14.6244 H         1 UNK         0.2998 
    122 H122      -46.1604  -24.8800   15.8842 H         1 UNK         0.0697 
    123 H123      -46.5990  -27.1213   13.8435 H         1 UNK         0.0825 
    124 H124      -45.4590  -27.1598   15.1796 H         1 UNK         0.0825 
    125 H125      -45.2353  -26.0053   13.8753 H         1 UNK         0.0825 
    126 H126      -47.4209  -24.7792   13.3401 H         1 UNK         0.3029 
    127 H127      -49.5746  -21.9972   14.0512 H         1 UNK         0.0897 
    128 H128      -48.2505  -21.0128   12.2004 H         1 UNK         0.0792 
    129 H129      -47.2972  -21.0275   13.6760 H         1 UNK         0.0792 
    130 H130      -46.9873  -22.2205   12.4199 H         1 UNK         0.0792 
    131 H131      -49.0040  -23.4072   11.6327 H         1 UNK         0.3086 
    132 H132      -51.6622  -25.7992   11.9896 H         1 UNK         0.0583 
    133 H133      -52.7212  -23.9500   10.9190 H         1 UNK         0.1020 
    134 H134      -51.2266  -23.3015   10.3123 H         1 UNK         0.1020 
    135 H135      -53.8337  -25.9974   10.1558 H         1 UNK         0.0694 
    136 H136      -54.0362  -26.2269    8.4410 H         1 UNK         0.0694 
    137 H137      -49.6401  -25.6546   10.0425 H         1 UNK         0.2989 
    138 H138      -47.2030  -27.6798   11.6049 H         1 UNK         0.1055 
    139 H139      -48.8280  -29.3814   10.8809 H         1 UNK         0.0806 
    140 H140      -47.6822  -29.1039    9.5792 H         1 UNK         0.0806 
    141 H141      -49.3053  -28.4093    9.5010 H         1 UNK         0.0806 
    142 H142      -47.6260  -26.5715    8.9543 H         1 UNK         0.3061 
    143 H143      -45.6125  -23.6420    9.6256 H         1 UNK         0.0734 
    144 H144      -44.6671  -24.5434    7.5409 H         1 UNK         0.0832 
    145 H145      -44.3180  -25.6591    8.8506 H         1 UNK         0.0832 
    146 H146      -45.5972  -26.0309    7.7019 H         1 UNK         0.0832 
    147 H147      -47.1992  -24.1544    7.3476 H         1 UNK         0.3156 
    148 H148      -50.0178  -22.1632    8.2654 H         1 UNK         0.0589 
    149 H149      -47.6855  -21.8537    6.3038 H         1 UNK         0.0808 
    150 H150      -49.2644  -21.0845    6.1594 H         1 UNK         0.0808 
    151 H151      -48.2052  -20.6823    7.5010 H         1 UNK         0.0808 
    152 H152      -50.7465  -23.8947    7.1641 H         1 UNK         0.3098 
    153 H153      -50.9574  -25.7254    6.1261 H         1 UNK         0.0720 
    154 H154      -51.3730  -25.9646    3.7018 H         1 UNK         0.0791 
    155 H155      -49.8659  -25.1281    3.3253 H         1 UNK         0.0791 
    156 H156      -51.1889  -24.2648    4.0954 H         1 UNK         0.0791 
    157 H157      -49.6316  -27.4241    4.5244 H         1 UNK         0.3028 
@<TRIPOS>BOND
     1    1    2 1    
     2    1   82 1    
     3    1   83 1    
     4    1   84 1    
     5    2    3 2    
     6    2    4 am   BACKBONE|DICT|INTERRES
     7    4    5 1    
     8    4   85 1    
     9    5    6 1    
    10    5   80 1    
    11    5   86 1    
    12    6    7 1    
    13    6   87 1    
    14    6   88 1    
    15    7    8 1    
    16    8    9 1    
    17    8   89 1    
    18    8   90 1    
    19    9   10 ar   
    20    9   14 ar   
    21   10   11 ar   
    22   10   91 1    
    23   11   12 ar   
    24   11   58 1    
    25   12   13 ar   
    26   12   92 1    
    27   13   14 ar   
    28   13   15 1    
    29   14   93 1    
    30   15   16 1    
    31   15   94 1    
    32   15   95 1    
    33   16   17 1    
    34   17   18 1    
    35   17   96 1    
    36   17   97 1    
    37   18   19 1    
    38   18   22 1    
    39   18   98 1    
    40   19   20 am   BACKBONE|DICT|INTERRES
    41   19   21 2    
    42   20   99 1    
    43   20  100 1    
    44   22   23 am   BACKBONE|DICT|INTERRES
    45   22  101 1    
    46   23   24 2    
    47   23   25 1    
    48   25   26 1    
    49   25   27 1    
    50   25  102 1    
    51   26  103 1    
    52   26  104 1    
    53   26  105 1    
    54   27   28 am   BACKBONE|DICT|INTERRES
    55   27  106 1    
    56   28   29 2    
    57   28   30 1    
    58   30   31 1    
    59   30   32 1    
    60   30  107 1    
    61   31  108 1    
    62   31  109 1    
    63   31  110 1    
    64   32   33 am   BACKBONE|DICT|INTERRES
    65   32  111 1    
    66   33   34 2    
    67   33   35 1    
    68   35   36 1    
    69   35   37 1    
    70   35  112 1    
    71   36  113 1    
    72   36  114 1    
    73   36  115 1    
    74   37   38 am   BACKBONE|DICT|INTERRES
    75   37  116 1    
    76   38   39 2    
    77   38   40 1    
    78   40   41 1    
    79   40   42 1    
    80   40  117 1    
    81   41  118 1    
    82   41  119 1    
    83   41  120 1    
    84   42   43 am   BACKBONE|DICT|INTERRES
    85   42  121 1    
    86   43   44 2    
    87   43   45 1    
    88   45   46 1    
    89   45   47 1    
    90   45  122 1    
    91   46  123 1    
    92   46  124 1    
    93   46  125 1    
    94   47   48 am   BACKBONE|DICT|INTERRES
    95   47  126 1    
    96   48   49 2    
    97   48   50 1    
    98   50   51 1    
    99   50   52 1    
   100   50  127 1    
   101   51  128 1    
   102   51  129 1    
   103   51  130 1    
   104   52   53 am   BACKBONE|DICT|INTERRES
   105   52  131 1    
   106   53   54 2    
   107   53   55 1    
   108   55   56 1    
   109   55   59 1    
   110   55  132 1    
   111   56   57 1    
   112   56  133 1    
   113   56  134 1    
   114   57   58 1    
   115   58  135 1    
   116   58  136 1    
   117   59   60 am   BACKBONE|DICT|INTERRES
   118   59  137 1    
   119   60   61 2    
   120   60   62 1    
   121   62   63 1    
   122   62   64 1    
   123   62  138 1    
   124   63  139 1    
   125   63  140 1    
   126   63  141 1    
   127   64   65 am   BACKBONE|DICT|INTERRES
   128   64  142 1    
   129   65   66 2    
   130   65   67 1    
   131   67   68 1    
   132   67   69 1    
   133   67  143 1    
   134   68  144 1    
   135   68  145 1    
   136   68  146 1    
   137   69   70 am   BACKBONE|DICT|INTERRES
   138   69  147 1    
   139   70   71 2    
   140   70   72 1    
   141   72   73 1    
   142   72   74 1    
   143   72  148 1    
   144   73  149 1    
   145   73  150 1    
   146   73  151 1    
   147   74   75 am   BACKBONE|DICT|INTERRES
   148   74  152 1    
   149   75   76 2    
   150   75   77 1    
   151   77   78 1    
   152   77   79 1    
   153   77  153 1    
   154   78  154 1    
   155   78  155 1    
   156   78  156 1    
   157   79   80 am   BACKBONE|DICT|INTERRES
   158   79  157 1    
   159   80   81 2    
@<TRIPOS>SUBSTRUCTURE
     1 UNK         1 GROUP             0       ****    0 ROOT    
