@<TRIPOS>MOLECULE
3R207
157   159    1
SMALL
USER_CHARGES


@<TRIPOS>ATOM
      1 CA        -50.6151  -33.6339    4.0321 C.3       0 UNK        -0.1975 
      2 C         -50.7679  -32.1226    4.1238 C.2       0 UNK         0.4852 
      3 O         -51.8126  -31.5894    3.7477 O.2       0 UNK        -0.5216 
      4 N         -49.7358  -31.4314    4.6169 N.am      1 UNK        -0.4461 
      5 CA        -49.6668  -29.9783    4.7546 C.3       1 UNK         0.0864 
      6 C6        -50.4333  -29.4681    6.0075 C.3       14 UNK        -0.0898 
      7 S7        -51.1550  -27.8080    5.7687 S.3       14 UNK        -0.2598 
      8 C8        -50.1122  -26.7408    6.8158 C.3       14 UNK         0.0286 
      9 C9        -50.2532  -27.0526    8.2987 C.ar      14 UNK        -0.0844 
     10 C10       -49.2379  -27.7354    8.9748 C.ar      14 UNK        -0.0881 
     11 C11       -49.3429  -27.9878   10.3450 C.ar      14 UNK        -0.0643 
     12 C12       -50.4805  -27.5596   11.0383 C.ar      14 UNK        -0.0930 
     13 C13       -51.4872  -26.8479   10.3811 C.ar      14 UNK        -0.0827 
     14 C14       -51.3695  -26.6018    9.0096 C.ar      14 UNK        -0.1249 
     15 C15       -52.6794  -26.3042   11.1578 C.3       14 UNK         0.0141 
     16 S16       -54.2405  -27.0931   10.6596 S.3       14 UNK        -0.2313 
     17 C17       -54.1682  -28.6857   11.5465 C.3       14 UNK        -0.0915 
     18 CA        -55.3009  -28.8192   12.6048 C.3       13 UNK         0.0968 
     19 C         -55.5118  -30.2909   13.0571 C.2       13 UNK         0.5732 
     20 N         -55.6943  -30.5876   14.3351 N.am      13 UNK        -0.7310 
     21 O         -55.5466  -31.1938   12.2239 O.2       13 UNK        -0.5035 
     22 N         -55.1148  -27.8652   13.7140 N.am      13 UNK        -0.4233 
     23 C         -55.8539  -26.7664   13.9082 C.2       13 UNK         0.4989 
     24 O         -56.8838  -26.5061   13.2820 O.2       13 UNK        -0.4996 
     25 CA        -55.3181  -25.7700   14.9535 C.3       12 UNK         0.0216 
     26 CB        -56.0330  -24.4019   14.9102 C.3       12 UNK        -0.1964 
     27 N         -55.3147  -26.3121   16.3146 N.am      12 UNK        -0.4276 
     28 C         -56.3592  -26.7156   17.0508 C.2       12 UNK         0.5020 
     29 O         -57.5335  -26.6777   16.6791 O.2       12 UNK        -0.5489 
     30 CA        -56.0034  -27.2502   18.4535 C.3       11 UNK         0.0294 
     31 CB        -57.2012  -27.8967   19.1831 C.3       11 UNK        -0.2019 
     32 N         -54.8457  -28.1554   18.4229 N.am      11 UNK        -0.4493 
     33 C         -54.7566  -29.3198   17.7610 C.2       11 UNK         0.4932 
     34 O         -55.6888  -29.8278   17.1385 O.2       11 UNK        -0.5029 
     35 CA        -53.3727  -30.0012   17.7722 C.3       10 UNK         0.0280 
     36 CB        -53.2809  -31.2171   16.8264 C.3       10 UNK        -0.1976 
     37 N         -52.2766  -29.0622   17.5030 N.am      10 UNK        -0.4242 
     38 C         -52.1423  -28.2591   16.4367 C.2       10 UNK         0.5072 
     39 O         -52.9241  -28.2141   15.4828 O.2       10 UNK        -0.5224 
     40 CA        -50.9192  -27.3306   16.4513 C.3       9 UNK         0.0343 
     41 CB        -49.8726  -27.8197   15.4448 C.3       9 UNK        -0.2003 
     42 N         -51.2633  -25.9344   16.1646 N.am      9 UNK        -0.4272 
     43 C         -52.0975  -25.1872   16.9039 C.2       9 UNK         0.4988 
     44 O         -52.7512  -25.6382   17.8479 O.2       9 UNK        -0.5108 
     45 CA        -52.2627  -23.7006   16.5222 C.3       8 UNK         0.0248 
     46 CB        -52.5811  -22.8161   17.7459 C.3       8 UNK        -0.2001 
     47 N         -51.1471  -23.1339   15.7531 N.am      8 UNK        -0.4140 
     48 C         -49.8561  -23.0442   16.1089 C.2       8 UNK         0.5028 
     49 O         -49.3941  -23.4504   17.1771 O.2       8 UNK        -0.5428 
     50 CA        -48.9211  -22.3991   15.0671 C.3       7 UNK         0.0264 
     51 CB        -47.8813  -21.4846   15.7402 C.3       7 UNK        -0.1988 
     52 N         -48.2194  -23.3555   14.2002 N.am      7 UNK        -0.4454 
     53 C         -48.7603  -24.3668   13.5049 C.2       7 UNK         0.5027 
     54 O         -49.9354  -24.7319   13.5987 O.2       7 UNK        -0.5083 
     55 CA        -47.8474  -25.0737   12.4841 C.3       6 UNK         0.0844 
     56 C56       -47.6735  -26.5718   12.8425 C.3       14 UNK        -0.0967 
     57 S57       -46.8685  -27.5699   11.5420 S.3       14 UNK        -0.2604 
     58 C58       -48.2160  -28.7086   11.0722 C.3       14 UNK         0.0134 
     59 N         -48.4188  -24.8629   11.1534 N.am      6 UNK        -0.4116 
     60 C         -48.3390  -23.7160   10.4686 C.2       5 UNK         0.5034 
     61 O         -47.7013  -22.7286   10.8436 O.2       5 UNK        -0.5045 
     62 CA        -49.1484  -23.6416    9.1670 C.3       5 UNK         0.0224 
     63 CB        -50.5096  -22.9711    9.4121 C.3       5 UNK        -0.1978 
     64 N         -48.4281  -22.9196    8.1184 N.am      5 UNK        -0.4737 
     65 C         -47.4083  -23.4422    7.4295 C.2       4 UNK         0.5027 
     66 O         -46.9871  -24.5909    7.5888 O.2       4 UNK        -0.5211 
     67 CA        -46.7480  -22.5357    6.3861 C.3       4 UNK         0.0297 
     68 CB        -45.6778  -21.6350    7.0263 C.3       4 UNK        -0.1993 
     69 N         -46.1347  -23.3955    5.3811 N.am      4 UNK        -0.4486 
     70 C         -46.0384  -23.1353    4.0738 C.2       3 UNK         0.4961 
     71 O         -46.3707  -22.0642    3.5644 O.2       3 UNK        -0.5105 
     72 CA        -45.4796  -24.2537    3.1708 C.3       3 UNK         0.0299 
     73 CB        -44.0133  -23.9643    2.8091 C.3       3 UNK        -0.1972 
     74 N         -45.5748  -25.6038    3.7420 N.am      3 UNK        -0.4305 
     75 C         -46.7184  -26.2630    3.9736 C.2       2 UNK         0.5006 
     76 O         -47.8397  -25.8014    3.7416 O.2       2 UNK        -0.5106 
     77 CA        -46.5850  -27.6695    4.5736 C.3       2 UNK         0.0296 
     78 CB        -46.0235  -27.6175    6.0110 C.3       2 UNK        -0.2002 
     79 N         -47.9045  -28.2949    4.5606 N.am      2 UNK        -0.4032 
     80 C         -48.1794  -29.5833    4.7783 C.2       1 UNK         0.5000 
     81 O         -47.3202  -30.4430    5.0025 O.2       1 UNK        -0.5238 
     82 H82       -50.7152  -33.9593    2.9970 H         1 UNK         0.0889 
     83 H83       -51.3890  -34.1255    4.6209 H         1 UNK         0.0889 
     84 H84       -49.6453  -33.9683    4.4006 H         1 UNK         0.0889 
     85 H85       -48.8700  -31.8953    4.8681 H         1 UNK         0.3028 
     86 H86       -50.1040  -29.5454    3.8517 H         1 UNK         0.0864 
     87 H87       -49.8125  -29.5039    6.9034 H         1 UNK         0.0720 
     88 H88       -51.2772  -30.1249    6.2238 H         1 UNK         0.0720 
     89 H89       -50.3964  -25.7018    6.6417 H         1 UNK         0.0814 
     90 H90       -49.0707  -26.8145    6.5064 H         1 UNK         0.0814 
     91 H91       -48.3562  -28.0601    8.4389 H         1 UNK         0.1469 
     92 H92       -50.5747  -27.7576   12.0960 H         1 UNK         0.1381 
     93 H93       -52.1455  -26.0505    8.4958 H         1 UNK         0.1206 
     94 H94       -52.7585  -25.2321   10.9740 H         1 UNK         0.0813 
     95 H95       -52.5382  -26.4162   12.2345 H         1 UNK         0.0813 
     96 H96       -53.1905  -28.8169   12.0133 H         1 UNK         0.0638 
     97 H97       -54.2458  -29.4638   10.7853 H         1 UNK         0.0638 
     98 H98       -56.2372  -28.5887   12.0942 H         1 UNK         0.0568 
     99 H99       -55.6884  -29.8849   15.0632 H         1 UNK         0.3450 
    100 H100      -55.8463  -31.5499   14.5881 H         1 UNK         0.3450 
    101 H101      -54.3060  -28.0318   14.3124 H         1 UNK         0.2987 
    102 H102      -54.2733  -25.5961   14.6922 H         1 UNK         0.0766 
    103 H103      -55.6023  -23.7029   15.6267 H         1 UNK         0.0798 
    104 H104      -57.0971  -24.4914   15.1316 H         1 UNK         0.0798 
    105 H105      -55.9457  -23.9495   13.9215 H         1 UNK         0.0798 
    106 H106      -54.3991  -26.4160   16.7377 H         1 UNK         0.3198 
    107 H107      -55.6960  -26.3808   19.0373 H         1 UNK         0.0843 
    108 H108      -57.6098  -28.7410   18.6273 H         1 UNK         0.0831 
    109 H109      -58.0097  -27.1767   19.3156 H         1 UNK         0.0831 
    110 H110      -56.9186  -28.2516   20.1740 H         1 UNK         0.0831 
    111 H111      -54.0093  -27.8054   18.8722 H         1 UNK         0.3133 
    112 H112      -53.2273  -30.3670   18.7896 H         1 UNK         0.0566 
    113 H113      -52.3295  -31.7357   16.9433 H         1 UNK         0.0814 
    114 H114      -54.0698  -31.9410   17.0346 H         1 UNK         0.0814 
    115 H115      -53.3712  -30.9248   15.7804 H         1 UNK         0.0814 
    116 H116      -51.5742  -29.0020   18.2277 H         1 UNK         0.3091 
    117 H117      -50.4692  -27.3507   17.4461 H         1 UNK         0.0702 
    118 H118      -48.9816  -27.1928   15.4674 H         1 UNK         0.0785 
    119 H119      -50.2755  -27.8182   14.4326 H         1 UNK         0.0785 
    120 H120      -49.5582  -28.8400   15.6690 H         1 UNK         0.0785 
    121 H121      -50.8071  -25.5036   15.3677 H         1 UNK         0.2998 
    122 H122      -53.1268  -23.6613   15.8590 H         1 UNK         0.0697 
    123 H123      -51.7815  -22.8513   18.4867 H         1 UNK         0.0825 
    124 H124      -53.4971  -23.1419   18.2406 H         1 UNK         0.0825 
    125 H125      -52.7258  -21.7751   17.4573 H         1 UNK         0.0825 
    126 H126      -51.3875  -22.8281   14.8197 H         1 UNK         0.3029 
    127 H127      -49.5312  -21.7694   14.4160 H         1 UNK         0.0897 
    128 H128      -47.1757  -22.0534   16.3474 H         1 UNK         0.0792 
    129 H129      -48.3650  -20.7602   16.3972 H         1 UNK         0.0792 
    130 H130      -47.3108  -20.9190   15.0032 H         1 UNK         0.0792 
    131 H131      -47.2425  -23.1543   14.0411 H         1 UNK         0.3086 
    132 H132      -46.8574  -24.6126   12.5052 H         1 UNK         0.0583 
    133 H133      -47.0791  -26.6668   13.7530 H         1 UNK         0.1020 
    134 H134      -48.6342  -27.0237   13.0737 H         1 UNK         0.1020 
    135 H135      -47.8070  -29.4885   10.4281 H         1 UNK         0.0694 
    136 H136      -48.5936  -29.2180   11.9604 H         1 UNK         0.0694 
    137 H137      -48.9738  -25.6253   10.7889 H         1 UNK         0.2989 
    138 H138      -49.3213  -24.6560    8.8143 H         1 UNK         0.1055 
    139 H139      -51.0706  -23.5002   10.1836 H         1 UNK         0.0806 
    140 H140      -51.1215  -22.9741    8.5099 H         1 UNK         0.0806 
    141 H141      -50.3979  -21.9375    9.7423 H         1 UNK         0.0806 
    142 H142      -48.6860  -21.9548    7.9673 H         1 UNK         0.3061 
    143 H143      -47.5217  -21.9192    5.9229 H         1 UNK         0.0734 
    144 H144      -46.1145  -20.9884    7.7885 H         1 UNK         0.0832 
    145 H145      -44.8935  -22.2218    7.5061 H         1 UNK         0.0832 
    146 H146      -45.2073  -20.9899    6.2842 H         1 UNK         0.0832 
    147 H147      -45.9041  -24.3210    5.7212 H         1 UNK         0.3156 
    148 H148      -46.0643  -24.2434    2.2485 H         1 UNK         0.0589 
    149 H149      -43.3695  -23.9794    3.6895 H         1 UNK         0.0808 
    150 H150      -43.6275  -24.6929    2.0959 H         1 UNK         0.0808 
    151 H151      -43.9114  -22.9802    2.3491 H         1 UNK         0.0808 
    152 H152      -44.7007  -26.0602    3.9620 H         1 UNK         0.3098 
    153 H153      -45.9151  -28.2502    3.9363 H         1 UNK         0.0720 
    154 H154      -46.6830  -27.0682    6.6822 H         1 UNK         0.0791 
    155 H155      -45.0486  -27.1304    6.0433 H         1 UNK         0.0791 
    156 H156      -45.8889  -28.6162    6.4260 H         1 UNK         0.0791 
    157 H157      -48.6526  -27.6477    4.3364 H         1 UNK         0.3028 
@<TRIPOS>BOND
     1    1    2 1    
     2    1   82 1    
     3    1   83 1    
     4    1   84 1    
     5    2    3 2    
     6    2    4 am   BACKBONE|DICT|INTERRES
     7    4    5 1    
     8    4   85 1    
     9    5    6 1    
    10    5   80 1    
    11    5   86 1    
    12    6    7 1    
    13    6   87 1    
    14    6   88 1    
    15    7    8 1    
    16    8    9 1    
    17    8   89 1    
    18    8   90 1    
    19    9   10 ar   
    20    9   14 ar   
    21   10   11 ar   
    22   10   91 1    
    23   11   12 ar   
    24   11   58 1    
    25   12   13 ar   
    26   12   92 1    
    27   13   14 ar   
    28   13   15 1    
    29   14   93 1    
    30   15   16 1    
    31   15   94 1    
    32   15   95 1    
    33   16   17 1    
    34   17   18 1    
    35   17   96 1    
    36   17   97 1    
    37   18   19 1    
    38   18   22 1    
    39   18   98 1    
    40   19   20 am   BACKBONE|DICT|INTERRES
    41   19   21 2    
    42   20   99 1    
    43   20  100 1    
    44   22   23 am   BACKBONE|DICT|INTERRES
    45   22  101 1    
    46   23   24 2    
    47   23   25 1    
    48   25   26 1    
    49   25   27 1    
    50   25  102 1    
    51   26  103 1    
    52   26  104 1    
    53   26  105 1    
    54   27   28 am   BACKBONE|DICT|INTERRES
    55   27  106 1    
    56   28   29 2    
    57   28   30 1    
    58   30   31 1    
    59   30   32 1    
    60   30  107 1    
    61   31  108 1    
    62   31  109 1    
    63   31  110 1    
    64   32   33 am   BACKBONE|DICT|INTERRES
    65   32  111 1    
    66   33   34 2    
    67   33   35 1    
    68   35   36 1    
    69   35   37 1    
    70   35  112 1    
    71   36  113 1    
    72   36  114 1    
    73   36  115 1    
    74   37   38 am   BACKBONE|DICT|INTERRES
    75   37  116 1    
    76   38   39 2    
    77   38   40 1    
    78   40   41 1    
    79   40   42 1    
    80   40  117 1    
    81   41  118 1    
    82   41  119 1    
    83   41  120 1    
    84   42   43 am   BACKBONE|DICT|INTERRES
    85   42  121 1    
    86   43   44 2    
    87   43   45 1    
    88   45   46 1    
    89   45   47 1    
    90   45  122 1    
    91   46  123 1    
    92   46  124 1    
    93   46  125 1    
    94   47   48 am   BACKBONE|DICT|INTERRES
    95   47  126 1    
    96   48   49 2    
    97   48   50 1    
    98   50   51 1    
    99   50   52 1    
   100   50  127 1    
   101   51  128 1    
   102   51  129 1    
   103   51  130 1    
   104   52   53 am   BACKBONE|DICT|INTERRES
   105   52  131 1    
   106   53   54 2    
   107   53   55 1    
   108   55   56 1    
   109   55   59 1    
   110   55  132 1    
   111   56   57 1    
   112   56  133 1    
   113   56  134 1    
   114   57   58 1    
   115   58  135 1    
   116   58  136 1    
   117   59   60 am   BACKBONE|DICT|INTERRES
   118   59  137 1    
   119   60   61 2    
   120   60   62 1    
   121   62   63 1    
   122   62   64 1    
   123   62  138 1    
   124   63  139 1    
   125   63  140 1    
   126   63  141 1    
   127   64   65 am   BACKBONE|DICT|INTERRES
   128   64  142 1    
   129   65   66 2    
   130   65   67 1    
   131   67   68 1    
   132   67   69 1    
   133   67  143 1    
   134   68  144 1    
   135   68  145 1    
   136   68  146 1    
   137   69   70 am   BACKBONE|DICT|INTERRES
   138   69  147 1    
   139   70   71 2    
   140   70   72 1    
   141   72   73 1    
   142   72   74 1    
   143   72  148 1    
   144   73  149 1    
   145   73  150 1    
   146   73  151 1    
   147   74   75 am   BACKBONE|DICT|INTERRES
   148   74  152 1    
   149   75   76 2    
   150   75   77 1    
   151   77   78 1    
   152   77   79 1    
   153   77  153 1    
   154   78  154 1    
   155   78  155 1    
   156   78  156 1    
   157   79   80 am   BACKBONE|DICT|INTERRES
   158   79  157 1    
   159   80   81 2    
@<TRIPOS>SUBSTRUCTURE
     1 UNK         1 GROUP             0       ****    0 ROOT    
