@<TRIPOS>MOLECULE
3R207
157   159    1
SMALL
USER_CHARGES


@<TRIPOS>ATOM
      1 CA        -49.7102  -32.8247    9.3108 C.3       0 UNK        -0.1975 
      2 C         -50.1025  -31.4405    8.8192 C.2       0 UNK         0.4852 
      3 O         -50.2250  -30.5191    9.6250 O.2       0 UNK        -0.5216 
      4 N         -50.3126  -31.3056    7.5046 N.am      1 UNK        -0.4461 
      5 CA        -50.5251  -30.0537    6.7740 C.3       1 UNK         0.0864 
      6 C6        -51.6897  -29.1677    7.3086 C.3       14 UNK        -0.0898 
      7 S7        -52.2158  -27.9571    6.0472 S.3       14 UNK        -0.2598 
      8 C8        -54.0096  -27.8514    6.3287 C.3       14 UNK         0.0286 
      9 C9        -54.3653  -26.9875    7.5316 C.ar      14 UNK        -0.0844 
     10 C10       -53.9221  -25.6624    7.6108 C.ar      14 UNK        -0.0881 
     11 C11       -54.3013  -24.8457    8.6804 C.ar      14 UNK        -0.0643 
     12 C12       -55.1435  -25.3618    9.6714 C.ar      14 UNK        -0.0930 
     13 C13       -55.5915  -26.6840    9.6037 C.ar      14 UNK        -0.0827 
     14 C14       -55.1914  -27.4945    8.5377 C.ar      14 UNK        -0.1249 
     15 C15       -56.5268  -27.2388   10.6645 C.3       14 UNK         0.0141 
     16 S16       -55.5885  -28.0624   11.9803 S.3       14 UNK        -0.2313 
     17 C17       -56.8614  -29.1383   12.7251 C.3       14 UNK        -0.0915 
     18 CA        -56.9492  -30.6013   12.1780 C.3       13 UNK         0.0968 
     19 C         -57.8554  -30.7747   10.9182 C.2       13 UNK         0.5732 
     20 N         -57.6310  -31.7704   10.0706 N.am      13 UNK        -0.7310 
     21 O         -58.8177  -30.0333   10.7326 O.2       13 UNK        -0.5035 
     22 N         -55.6555  -31.3158   12.1977 N.am      13 UNK        -0.4233 
     23 C         -54.6840  -31.2889   11.2737 C.2       13 UNK         0.4989 
     24 O         -54.7698  -30.7489   10.1696 O.2       13 UNK        -0.4996 
     25 CA        -53.3648  -31.9754   11.6586 C.3       12 UNK         0.0216 
     26 CB        -53.0017  -33.0831   10.6560 C.3       12 UNK        -0.1964 
     27 N         -52.2965  -30.9763   11.7112 N.am      12 UNK        -0.4276 
     28 C         -52.1851  -30.0534   12.6745 C.2       12 UNK         0.5020 
     29 O         -52.8742  -30.0393   13.6987 O.2       12 UNK        -0.5489 
     30 CA        -51.1590  -28.9386   12.4163 C.3       11 UNK         0.0294 
     31 CB        -51.7533  -27.8785   11.4704 C.3       11 UNK        -0.2019 
     32 N         -50.7017  -28.2935   13.6496 N.am      11 UNK        -0.4493 
     33 C         -49.9356  -28.8791   14.5816 C.2       11 UNK         0.4932 
     34 O         -49.4922  -30.0235   14.4717 O.2       11 UNK        -0.5029 
     35 CA        -49.5763  -28.0596   15.8361 C.3       10 UNK         0.0280 
     36 CB        -48.0543  -28.0517   16.0697 C.3       10 UNK        -0.1976 
     37 N         -50.0290  -26.6713   15.7407 N.am      10 UNK        -0.4242 
     38 C         -50.8540  -26.0423   16.5862 C.2       10 UNK         0.5072 
     39 O         -51.3967  -26.5856   17.5505 O.2       10 UNK        -0.5224 
     40 CA        -51.1001  -24.5455   16.2970 C.3       9 UNK         0.0343 
     41 CB        -51.7601  -23.7961   17.4740 C.3       9 UNK        -0.2003 
     42 N         -49.8871  -23.8525   15.8411 N.am      9 UNK        -0.4272 
     43 C         -48.7313  -23.7032   16.5095 C.2       9 UNK         0.4988 
     44 O         -48.5682  -24.0492   17.6804 O.2       9 UNK        -0.5108 
     45 CA        -47.5305  -23.1030   15.7498 C.3       8 UNK         0.0248 
     46 CB        -46.4440  -24.1739   15.5520 C.3       8 UNK        -0.2001 
     47 N         -47.8704  -22.5305   14.4439 N.am      8 UNK        -0.4140 
     48 C         -48.4918  -21.3579   14.2589 C.2       8 UNK         0.5028 
     49 O         -48.7937  -20.5912   15.1742 O.2       8 UNK        -0.5428 
     50 CA        -48.8751  -20.9931   12.8123 C.3       7 UNK         0.0264 
     51 CB        -47.6973  -20.3185   12.0914 C.3       7 UNK        -0.1988 
     52 N         -49.3466  -22.1364   12.0216 N.am      7 UNK        -0.4454 
     53 C         -50.4221  -22.8820   12.3216 C.2       7 UNK         0.5027 
     54 O         -51.1362  -22.6813   13.3049 O.2       7 UNK        -0.5083 
     55 CA        -50.7098  -24.1028   11.4187 C.3       6 UNK         0.0844 
     56 C56       -51.3661  -23.7123   10.0704 C.3       14 UNK        -0.0967 
     57 S57       -53.0129  -22.9521   10.2838 S.3       14 UNK        -0.2604 
     58 C58       -53.8504  -23.3909    8.7278 C.3       14 UNK         0.0134 
     59 N         -49.5053  -24.9154   11.2289 N.am      6 UNK        -0.4116 
     60 C         -48.8248  -25.5123   12.2188 C.2       5 UNK         0.5034 
     61 O         -49.1836  -25.5116   13.3946 O.2       5 UNK        -0.5045 
     62 CA        -47.4942  -26.1821   11.8519 C.3       5 UNK         0.0224 
     63 CB        -47.7189  -27.6018   11.3106 C.3       5 UNK        -0.1978 
     64 N         -46.7282  -25.3808   10.8952 N.am      5 UNK        -0.4737 
     65 C         -46.1805  -24.1922   11.1900 C.2       4 UNK         0.5027 
     66 O         -46.2224  -23.6794   12.3071 O.2       4 UNK        -0.5211 
     67 CA        -45.5181  -23.4270   10.0337 C.3       4 UNK         0.0297 
     68 CB        -44.0788  -23.9182    9.8137 C.3       4 UNK        -0.1993 
     69 N         -46.2748  -23.5364    8.7846 N.am      4 UNK        -0.4486 
     70 C         -47.5061  -23.0395    8.5964 C.2       3 UNK         0.4961 
     71 O         -48.1232  -22.3912    9.4410 O.2       3 UNK        -0.5105 
     72 CA        -48.1833  -23.3753    7.2577 C.3       3 UNK         0.0299 
     73 CB        -47.7449  -22.3887    6.1642 C.3       3 UNK        -0.1972 
     74 N         -47.9216  -24.7519    6.8224 N.am      3 UNK        -0.4305 
     75 C         -48.3466  -25.8394    7.4787 C.2       2 UNK         0.5006 
     76 O         -49.0115  -25.7997    8.5175 O.2       2 UNK        -0.5106 
     77 CA        -47.9252  -27.1964    6.9109 C.3       2 UNK         0.0296 
     78 CB        -46.6152  -27.6822    7.5609 C.3       2 UNK        -0.2002 
     79 N         -49.0177  -28.1327    7.1503 N.am      2 UNK        -0.4032 
     80 C         -49.1751  -29.3298    6.5747 C.2       1 UNK         0.5000 
     81 O         -48.3185  -29.8647    5.8662 O.2       1 UNK        -0.5238 
     82 H82       -49.8147  -32.8927   10.3934 H         1 UNK         0.0889 
     83 H83       -48.6703  -33.0322    9.0597 H         1 UNK         0.0889 
     84 H84       -50.3367  -33.5939    8.8595 H         1 UNK         0.0889 
     85 H85       -50.1800  -32.1142    6.9125 H         1 UNK         0.3028 
     86 H86       -50.8192  -30.3803    5.7749 H         1 UNK         0.0864 
     87 H87       -52.5413  -29.8018    7.5600 H         1 UNK         0.0720 
     88 H88       -51.4298  -28.6443    8.2297 H         1 UNK         0.0720 
     89 H89       -54.4244  -28.8562    6.4240 H         1 UNK         0.0814 
     90 H90       -54.4735  -27.4147    5.4434 H         1 UNK         0.0814 
     91 H91       -53.2926  -25.2646    6.8265 H         1 UNK         0.1469 
     92 H92       -55.4537  -24.7305   10.4929 H         1 UNK         0.1381 
     93 H93       -55.5401  -28.5177    8.4873 H         1 UNK         0.1206 
     94 H94       -57.1384  -26.4451   11.0959 H         1 UNK         0.0813 
     95 H95       -57.2174  -27.9437   10.2019 H         1 UNK         0.0813 
     96 H96       -56.6226  -29.1875   13.7884 H         1 UNK         0.0638 
     97 H97       -57.8291  -28.6357   12.6825 H         1 UNK         0.0638 
     98 H98       -57.5292  -31.1386   12.9291 H         1 UNK         0.0568 
     99 H99       -58.2346  -31.8841    9.2721 H         1 UNK         0.3450 
    100 H100      -56.8327  -32.3716   10.1929 H         1 UNK         0.3450 
    101 H101      -55.4630  -31.8043   13.0598 H         1 UNK         0.2987 
    102 H102      -53.4654  -32.4319   12.6457 H         1 UNK         0.0766 
    103 H103      -52.0990  -33.6117   10.9608 H         1 UNK         0.0798 
    104 H104      -52.8435  -32.6867    9.6523 H         1 UNK         0.0798 
    105 H105      -53.7997  -33.8238   10.5899 H         1 UNK         0.0798 
    106 H106      -51.7084  -30.8761   10.8882 H         1 UNK         0.3198 
    107 H107      -50.2899  -29.3895   11.9353 H         1 UNK         0.0843 
    108 H108      -50.9847  -27.2091   11.0911 H         1 UNK         0.0831 
    109 H109      -52.5202  -27.2781   11.9609 H         1 UNK         0.0831 
    110 H110      -52.2201  -28.3405   10.5988 H         1 UNK         0.0831 
    111 H111      -51.0482  -27.3645   13.8331 H         1 UNK         0.3133 
    112 H112      -50.0534  -28.5560   16.6832 H         1 UNK         0.0566 
    113 H113      -47.7942  -27.4828   16.9627 H         1 UNK         0.0814 
    114 H114      -47.6702  -29.0631   16.2081 H         1 UNK         0.0814 
    115 H115      -47.5217  -27.6109   15.2259 H         1 UNK         0.0814 
    116 H116      -49.6536  -26.1407   14.9527 H         1 UNK         0.3091 
    117 H117      -51.7959  -24.5125   15.4573 H         1 UNK         0.0702 
    118 H118      -52.7297  -24.2313   17.7187 H         1 UNK         0.0785 
    119 H119      -51.1493  -23.8376   18.3763 H         1 UNK         0.0785 
    120 H120      -51.9286  -22.7473   17.2300 H         1 UNK         0.0785 
    121 H121      -49.9198  -23.5298   14.8809 H         1 UNK         0.2998 
    122 H122      -47.1159  -22.3093   16.3747 H         1 UNK         0.0697 
    123 H123      -46.8027  -24.9992   14.9364 H         1 UNK         0.0825 
    124 H124      -46.1258  -24.5941   16.5070 H         1 UNK         0.0825 
    125 H125      -45.5586  -23.7578   15.0710 H         1 UNK         0.0825 
    126 H126      -47.5803  -23.0610   13.6270 H         1 UNK         0.3029 
    127 H127      -49.6967  -20.2757   12.8651 H         1 UNK         0.0897 
    128 H128      -46.8484  -20.9946   11.9858 H         1 UNK         0.0792 
    129 H129      -47.3515  -19.4430   12.6424 H         1 UNK         0.0792 
    130 H130      -47.9824  -19.9828   11.0941 H         1 UNK         0.0792 
    131 H131      -48.8282  -22.3455   11.1699 H         1 UNK         0.3086 
    132 H132      -51.4214  -24.7347   11.9550 H         1 UNK         0.0583 
    133 H133      -50.7317  -23.0269    9.5070 H         1 UNK         0.1020 
    134 H134      -51.4745  -24.6035    9.4493 H         1 UNK         0.1020 
    135 H135      -54.7290  -22.7542    8.6158 H         1 UNK         0.0694 
    136 H136      -53.1915  -23.1536    7.8909 H         1 UNK         0.0694 
    137 H137      -49.1718  -25.0239   10.2753 H         1 UNK         0.2989 
    138 H138      -46.9036  -26.2625   12.7672 H         1 UNK         0.1055 
    139 H139      -48.1892  -28.2296   12.0672 H         1 UNK         0.0806 
    140 H140      -46.7764  -28.0804   11.0458 H         1 UNK         0.0806 
    141 H141      -48.3664  -27.6124   10.4330 H         1 UNK         0.0806 
    142 H142      -46.6819  -25.7146    9.9446 H         1 UNK         0.3061 
    143 H143      -45.4807  -22.3717   10.3124 H         1 UNK         0.0734 
    144 H144      -43.5707  -23.3297    9.0496 H         1 UNK         0.0832 
    145 H145      -43.4939  -23.8285   10.7303 H         1 UNK         0.0832 
    146 H146      -44.0473  -24.9651    9.5092 H         1 UNK         0.0832 
    147 H147      -45.8435  -24.0481    8.0291 H         1 UNK         0.3156 
    148 H148      -49.2613  -23.2689    7.3970 H         1 UNK         0.0589 
    149 H149      -46.6772  -22.4614    5.9534 H         1 UNK         0.0808 
    150 H150      -48.2842  -22.5634    5.2330 H         1 UNK         0.0808 
    151 H151      -47.9481  -21.3597    6.4650 H         1 UNK         0.0808 
    152 H152      -47.3823  -24.8686    5.9759 H         1 UNK         0.3098 
    153 H153      -47.7829  -27.0980    5.8327 H         1 UNK         0.0720 
    154 H154      -46.2591  -28.6034    7.1000 H         1 UNK         0.0791 
    155 H155      -46.7395  -27.8745    8.6252 H         1 UNK         0.0791 
    156 H156      -45.8208  -26.9433    7.4495 H         1 UNK         0.0791 
    157 H157      -49.7632  -27.7565    7.7233 H         1 UNK         0.3028 
@<TRIPOS>BOND
     1    1    2 1    
     2    1   82 1    
     3    1   83 1    
     4    1   84 1    
     5    2    3 2    
     6    2    4 am   BACKBONE|DICT|INTERRES
     7    4    5 1    
     8    4   85 1    
     9    5    6 1    
    10    5   80 1    
    11    5   86 1    
    12    6    7 1    
    13    6   87 1    
    14    6   88 1    
    15    7    8 1    
    16    8    9 1    
    17    8   89 1    
    18    8   90 1    
    19    9   10 ar   
    20    9   14 ar   
    21   10   11 ar   
    22   10   91 1    
    23   11   12 ar   
    24   11   58 1    
    25   12   13 ar   
    26   12   92 1    
    27   13   14 ar   
    28   13   15 1    
    29   14   93 1    
    30   15   16 1    
    31   15   94 1    
    32   15   95 1    
    33   16   17 1    
    34   17   18 1    
    35   17   96 1    
    36   17   97 1    
    37   18   19 1    
    38   18   22 1    
    39   18   98 1    
    40   19   20 am   BACKBONE|DICT|INTERRES
    41   19   21 2    
    42   20   99 1    
    43   20  100 1    
    44   22   23 am   BACKBONE|DICT|INTERRES
    45   22  101 1    
    46   23   24 2    
    47   23   25 1    
    48   25   26 1    
    49   25   27 1    
    50   25  102 1    
    51   26  103 1    
    52   26  104 1    
    53   26  105 1    
    54   27   28 am   BACKBONE|DICT|INTERRES
    55   27  106 1    
    56   28   29 2    
    57   28   30 1    
    58   30   31 1    
    59   30   32 1    
    60   30  107 1    
    61   31  108 1    
    62   31  109 1    
    63   31  110 1    
    64   32   33 am   BACKBONE|DICT|INTERRES
    65   32  111 1    
    66   33   34 2    
    67   33   35 1    
    68   35   36 1    
    69   35   37 1    
    70   35  112 1    
    71   36  113 1    
    72   36  114 1    
    73   36  115 1    
    74   37   38 am   BACKBONE|DICT|INTERRES
    75   37  116 1    
    76   38   39 2    
    77   38   40 1    
    78   40   41 1    
    79   40   42 1    
    80   40  117 1    
    81   41  118 1    
    82   41  119 1    
    83   41  120 1    
    84   42   43 am   BACKBONE|DICT|INTERRES
    85   42  121 1    
    86   43   44 2    
    87   43   45 1    
    88   45   46 1    
    89   45   47 1    
    90   45  122 1    
    91   46  123 1    
    92   46  124 1    
    93   46  125 1    
    94   47   48 am   BACKBONE|DICT|INTERRES
    95   47  126 1    
    96   48   49 2    
    97   48   50 1    
    98   50   51 1    
    99   50   52 1    
   100   50  127 1    
   101   51  128 1    
   102   51  129 1    
   103   51  130 1    
   104   52   53 am   BACKBONE|DICT|INTERRES
   105   52  131 1    
   106   53   54 2    
   107   53   55 1    
   108   55   56 1    
   109   55   59 1    
   110   55  132 1    
   111   56   57 1    
   112   56  133 1    
   113   56  134 1    
   114   57   58 1    
   115   58  135 1    
   116   58  136 1    
   117   59   60 am   BACKBONE|DICT|INTERRES
   118   59  137 1    
   119   60   61 2    
   120   60   62 1    
   121   62   63 1    
   122   62   64 1    
   123   62  138 1    
   124   63  139 1    
   125   63  140 1    
   126   63  141 1    
   127   64   65 am   BACKBONE|DICT|INTERRES
   128   64  142 1    
   129   65   66 2    
   130   65   67 1    
   131   67   68 1    
   132   67   69 1    
   133   67  143 1    
   134   68  144 1    
   135   68  145 1    
   136   68  146 1    
   137   69   70 am   BACKBONE|DICT|INTERRES
   138   69  147 1    
   139   70   71 2    
   140   70   72 1    
   141   72   73 1    
   142   72   74 1    
   143   72  148 1    
   144   73  149 1    
   145   73  150 1    
   146   73  151 1    
   147   74   75 am   BACKBONE|DICT|INTERRES
   148   74  152 1    
   149   75   76 2    
   150   75   77 1    
   151   77   78 1    
   152   77   79 1    
   153   77  153 1    
   154   78  154 1    
   155   78  155 1    
   156   78  156 1    
   157   79   80 am   BACKBONE|DICT|INTERRES
   158   79  157 1    
   159   80   81 2    
@<TRIPOS>SUBSTRUCTURE
     1 UNK         1 GROUP             0       ****    0 ROOT    
