@<TRIPOS>MOLECULE
3R207
157   159    1
SMALL
USER_CHARGES


@<TRIPOS>ATOM
      1 CA        -44.8902  -30.0494    4.9467 C.3       0 UNK        -0.1975 
      2 C         -46.2956  -30.3222    5.4642 C.2       0 UNK         0.4852 
      3 O         -46.4373  -30.9260    6.5276 O.2       0 UNK        -0.5216 
      4 N         -47.3136  -29.8916    4.7033 N.am      1 UNK        -0.4461 
      5 CA        -48.7529  -29.9386    4.9991 C.3       1 UNK         0.0864 
      6 C6        -49.2581  -31.3324    5.4595 C.3       14 UNK        -0.0898 
      7 S7        -51.0539  -31.5483    5.2168 S.3       14 UNK        -0.2598 
      8 C8        -51.5711  -32.2193    6.8297 C.3       14 UNK         0.0286 
      9 C9        -51.5691  -31.1732    7.9378 C.ar      14 UNK        -0.0844 
     10 C10       -50.5454  -31.1505    8.8902 C.ar      14 UNK        -0.0881 
     11 C11       -50.5780  -30.2365    9.9477 C.ar      14 UNK        -0.0643 
     12 C12       -51.6456  -29.3403   10.0501 C.ar      14 UNK        -0.0930 
     13 C13       -52.6714  -29.3428    9.0981 C.ar      14 UNK        -0.0827 
     14 C14       -52.6251  -30.2632    8.0454 C.ar      14 UNK        -0.1249 
     15 C15       -53.8612  -28.3986    9.2278 C.3       14 UNK         0.0141 
     16 S16       -53.3696  -26.6742    9.5513 S.3       14 UNK        -0.2313 
     17 C17       -54.9873  -25.8317    9.5574 C.3       14 UNK        -0.0915 
     18 CA        -55.4985  -25.4829   10.9813 C.3       13 UNK         0.0968 
     19 C         -56.7991  -24.6425   10.8789 C.2       13 UNK         0.5732 
     20 N         -56.6945  -23.3234   10.9529 N.am      13 UNK        -0.7310 
     21 O         -57.8924  -25.1769   10.7067 O.2       13 UNK        -0.5035 
     22 N         -55.6719  -26.6989   11.7906 N.am      13 UNK        -0.4233 
     23 C         -55.9490  -26.8225   13.0960 C.2       13 UNK         0.4989 
     24 O         -56.0764  -27.9339   13.6099 O.2       13 UNK        -0.4996 
     25 CA        -56.1081  -25.5896   14.0041 C.3       12 UNK         0.0216 
     26 CB        -57.5868  -25.3400   14.3589 C.3       12 UNK        -0.1964 
     27 N         -55.3433  -25.8553   15.2155 N.am      12 UNK        -0.4276 
     28 C         -54.8594  -24.9497   16.0706 C.2       12 UNK         0.5020 
     29 O         -55.1429  -23.7513   16.0282 O.2       12 UNK        -0.5489 
     30 CA        -53.8572  -25.4451   17.1318 C.3       11 UNK         0.0294 
     31 CB        -54.5642  -25.8576   18.4378 C.3       11 UNK        -0.2019 
     32 N         -52.9417  -26.4837   16.6333 N.am      11 UNK        -0.4493 
     33 C         -53.1939  -27.7655   16.3308 C.2       11 UNK         0.4932 
     34 O         -54.2773  -28.3116   16.5360 O.2       11 UNK        -0.5029 
     35 CA        -52.0906  -28.5613   15.6085 C.3       10 UNK         0.0280 
     36 CB        -52.5123  -28.8403   14.1544 C.3       10 UNK        -0.1976 
     37 N         -50.7878  -27.8911   15.5984 N.am      10 UNK        -0.4242 
     38 C         -49.9486  -27.8221   16.6400 C.2       10 UNK         0.5072 
     39 O         -50.1668  -28.3465   17.7329 O.2       10 UNK        -0.5224 
     40 CA        -48.6547  -27.0140   16.4340 C.3       9 UNK         0.0343 
     41 CB        -47.5990  -27.8568   15.7002 C.3       9 UNK        -0.2003 
     42 N         -48.8658  -25.7519   15.7167 N.am      9 UNK        -0.4272 
     43 C         -49.5976  -24.7268   16.1802 C.2       9 UNK         0.4988 
     44 O         -50.1656  -24.7287   17.2725 O.2       9 UNK        -0.5108 
     45 CA        -49.7491  -23.5011   15.2630 C.3       8 UNK         0.0248 
     46 CB        -48.4791  -22.6356   15.2882 C.3       8 UNK        -0.2001 
     47 N         -50.0812  -23.8640   13.8839 N.am      8 UNK        -0.4140 
     48 C         -51.2116  -24.4866   13.5180 C.2       8 UNK         0.5028 
     49 O         -52.1271  -24.7550   14.2919 O.2       8 UNK        -0.5428 
     50 CA        -51.3251  -24.9337   12.0538 C.3       7 UNK         0.0264 
     51 CB        -51.7480  -23.7621   11.1535 C.3       7 UNK        -0.1988 
     52 N         -50.0889  -25.5306   11.5463 N.am      7 UNK        -0.4454 
     53 C         -49.4924  -26.6172   12.0581 C.2       7 UNK         0.5027 
     54 O         -49.9489  -27.2713   12.9939 O.2       7 UNK        -0.5083 
     55 CA        -48.1260  -27.0026   11.4640 C.3       6 UNK         0.0844 
     56 C56       -48.2764  -27.8219   10.1523 C.3       14 UNK        -0.0967 
     57 S57       -47.9024  -29.5908   10.3953 S.3       14 UNK        -0.2604 
     58 C58       -49.4850  -30.2518   11.0064 C.3       14 UNK         0.0134 
     59 N         -47.2813  -25.8174   11.3008 N.am      6 UNK        -0.4116 
     60 C         -46.7491  -25.1185   12.3136 C.2       5 UNK         0.5034 
     61 O         -46.8784  -25.4204   13.5001 O.2       5 UNK        -0.5045 
     62 CA        -45.9720  -23.8447   11.9399 C.3       5 UNK         0.0224 
     63 CB        -44.5171  -24.1837   11.5791 C.3       5 UNK        -0.1978 
     64 N         -46.5929  -23.1049   10.8370 N.am      5 UNK        -0.4737 
     65 C         -47.7798  -22.4883   10.9227 C.2       4 UNK         0.5027 
     66 O         -48.4492  -22.4396   11.9536 O.2       4 UNK        -0.5211 
     67 CA        -48.3378  -21.8692    9.6285 C.3       4 UNK         0.0297 
     68 CB        -47.7834  -20.4498    9.4302 C.3       4 UNK        -0.1993 
     69 N         -48.0913  -22.6698    8.4209 N.am      4 UNK        -0.4486 
     70 C         -48.4628  -23.9469    8.2576 C.2       3 UNK         0.4961 
     71 O         -48.9946  -24.6224    9.1410 O.2       3 UNK        -0.5105 
     72 CA        -48.1342  -24.5946    6.9037 C.3       3 UNK         0.0299 
     73 CB        -46.6569  -25.0190    6.8571 C.3       3 UNK        -0.1972 
     74 N         -48.9649  -25.7777    6.6868 N.am      3 UNK        -0.4305 
     75 C         -50.2680  -25.7752    6.3880 C.2       2 UNK         0.5006 
     76 O         -50.8879  -24.7553    6.0782 O.2       2 UNK        -0.5106 
     77 CA        -50.9936  -27.1391    6.4483 C.3       2 UNK         0.0296 
     78 CB        -52.4609  -27.0412    5.9871 C.3       2 UNK        -0.2002 
     79 N         -50.3412  -28.2070    5.6818 N.am      2 UNK        -0.4032 
     80 C         -49.1733  -28.8050    5.9590 C.2       1 UNK         0.5000 
     81 O         -48.4485  -28.4785    6.9016 O.2       1 UNK        -0.5238 
     82 H82       -44.8991  -29.5279    3.9898 H         1 UNK         0.0889 
     83 H83       -44.3498  -30.9867    4.8165 H         1 UNK         0.0889 
     84 H84       -44.3417  -29.4362    5.6613 H         1 UNK         0.0889 
     85 H85       -47.0862  -29.4019    3.8489 H         1 UNK         0.3028 
     86 H86       -49.2192  -29.7285    4.0348 H         1 UNK         0.0864 
     87 H87       -48.9918  -31.5169    6.5008 H         1 UNK         0.0720 
     88 H88       -48.7635  -32.1150    4.8824 H         1 UNK         0.0720 
     89 H89       -50.9319  -33.0637    7.0926 H         1 UNK         0.0814 
     90 H90       -52.5777  -32.6278    6.7282 H         1 UNK         0.0814 
     91 H91       -49.7268  -31.8539    8.8222 H         1 UNK         0.1469 
     92 H92       -51.6836  -28.6450   10.8778 H         1 UNK         0.1381 
     93 H93       -53.4224  -30.2884    7.3151 H         1 UNK         0.1206 
     94 H94       -54.4986  -28.7544   10.0373 H         1 UNK         0.0813 
     95 H95       -54.4645  -28.4227    8.3189 H         1 UNK         0.0813 
     96 H96       -54.8668  -24.9203    8.9683 H         1 UNK         0.0638 
     97 H97       -55.7182  -26.4396    9.0206 H         1 UNK         0.0638 
     98 H98       -54.7320  -24.8770   11.4671 H         1 UNK         0.0568 
     99 H99       -55.8022  -22.8699   11.0699 H         1 UNK         0.3450 
    100 H100      -57.5298  -22.7645   10.8748 H         1 UNK         0.3450 
    101 H101      -55.6097  -27.5523   11.2601 H         1 UNK         0.2987 
    102 H102      -55.6888  -24.7016   13.5316 H         1 UNK         0.0766 
    103 H103      -57.7011  -24.4596   14.9914 H         1 UNK         0.0798 
    104 H104      -58.0207  -26.1894   14.8882 H         1 UNK         0.0798 
    105 H105      -58.1878  -25.1739   13.4650 H         1 UNK         0.0798 
    106 H106      -55.0902  -26.8301   15.3551 H         1 UNK         0.3198 
    107 H107      -53.2141  -24.5945   17.3647 H         1 UNK         0.0843 
    108 H108      -55.2821  -26.6628   18.2814 H         1 UNK         0.0831 
    109 H109      -55.1152  -25.0156   18.8585 H         1 UNK         0.0831 
    110 H110      -53.8475  -26.1856   19.1906 H         1 UNK         0.0831 
    111 H111      -52.0389  -26.1259   16.3467 H         1 UNK         0.3133 
    112 H112      -51.9846  -29.5180   16.1238 H         1 UNK         0.0566 
    113 H113      -51.7734  -29.4513   13.6358 H         1 UNK         0.0814 
    114 H114      -53.4613  -29.3770   14.1143 H         1 UNK         0.0814 
    115 H115      -52.6382  -27.9159   13.5883 H         1 UNK         0.0814 
    116 H116      -50.4956  -27.4860   14.7091 H         1 UNK         0.3091 
    117 H117      -48.2610  -26.7671   17.4221 H         1 UNK         0.0702 
    118 H118      -47.4060  -28.7900   16.2309 H         1 UNK         0.0785 
    119 H119      -47.9181  -28.1152   14.6901 H         1 UNK         0.0785 
    120 H120      -46.6505  -27.3248   15.6242 H         1 UNK         0.0785 
    121 H121      -48.3953  -25.6538   14.8223 H         1 UNK         0.2998 
    122 H122      -50.5740  -22.8993   15.6503 H         1 UNK         0.0697 
    123 H123      -47.6179  -23.1660   14.8816 H         1 UNK         0.0825 
    124 H124      -48.2289  -22.3389   16.3076 H         1 UNK         0.0825 
    125 H125      -48.6116  -21.7222   14.7081 H         1 UNK         0.0825 
    126 H126      -49.4101  -23.6041   13.1655 H         1 UNK         0.3029 
    127 H127      -52.0991  -25.7020   12.0097 H         1 UNK         0.0897 
    128 H128      -51.8595  -24.0768   10.1157 H         1 UNK         0.0792 
    129 H129      -51.0206  -22.9513   11.1785 H         1 UNK         0.0792 
    130 H130      -52.7050  -23.3500   11.4749 H         1 UNK         0.0792 
    131 H131      -49.6627  -25.0838   10.7345 H         1 UNK         0.3086 
    132 H132      -47.6270  -27.6248   12.2104 H         1 UNK         0.0583 
    133 H133      -49.2571  -27.7077    9.6848 H         1 UNK         0.1020 
    134 H134      -47.5733  -27.4669    9.3974 H         1 UNK         0.1020 
    135 H135      -49.3264  -31.2796   11.3356 H         1 UNK         0.0694 
    136 H136      -49.7924  -29.6987   11.8943 H         1 UNK         0.0694 
    137 H137      -47.2060  -25.4427   10.3665 H         1 UNK         0.2989 
    138 H138      -45.9645  -23.1969   12.8197 H         1 UNK         0.1055 
    139 H139      -44.0293  -24.7210   12.3939 H         1 UNK         0.0806 
    140 H140      -43.9338  -23.2814   11.3946 H         1 UNK         0.0806 
    141 H141      -44.4539  -24.8129   10.6903 H         1 UNK         0.0806 
    142 H142      -46.1061  -23.0917    9.9524 H         1 UNK         0.3061 
    143 H143      -49.4204  -21.7945    9.7472 H         1 UNK         0.0734 
    144 H144      -48.2553  -19.9528    8.5824 H         1 UNK         0.0832 
    145 H145      -47.9718  -19.8319   10.3096 H         1 UNK         0.0832 
    146 H146      -46.7059  -20.4548    9.2612 H         1 UNK         0.0832 
    147 H147      -47.6443  -22.1955    7.6490 H         1 UNK         0.3156 
    148 H148      -48.3287  -23.8736    6.1072 H         1 UNK         0.0589 
    149 H149      -46.4173  -25.7380    7.6418 H         1 UNK         0.0808 
    150 H150      -46.4084  -25.4778    5.8998 H         1 UNK         0.0808 
    151 H151      -45.9940  -24.1622    6.9841 H         1 UNK         0.0808 
    152 H152      -48.5582  -26.6802    6.9276 H         1 UNK         0.3098 
    153 H153      -50.9954  -27.4414    7.4978 H         1 UNK         0.0720 
    154 H154      -52.9816  -27.9900    6.1144 H         1 UNK         0.0791 
    155 H155      -52.5355  -26.7537    4.9377 H         1 UNK         0.0791 
    156 H156      -53.0071  -26.2971    6.5680 H         1 UNK         0.0791 
    157 H157      -50.8605  -28.5428    4.8837 H         1 UNK         0.3028 
@<TRIPOS>BOND
     1    1    2 1    
     2    1   82 1    
     3    1   83 1    
     4    1   84 1    
     5    2    3 2    
     6    2    4 am   BACKBONE|DICT|INTERRES
     7    4    5 1    
     8    4   85 1    
     9    5    6 1    
    10    5   80 1    
    11    5   86 1    
    12    6    7 1    
    13    6   87 1    
    14    6   88 1    
    15    7    8 1    
    16    8    9 1    
    17    8   89 1    
    18    8   90 1    
    19    9   10 ar   
    20    9   14 ar   
    21   10   11 ar   
    22   10   91 1    
    23   11   12 ar   
    24   11   58 1    
    25   12   13 ar   
    26   12   92 1    
    27   13   14 ar   
    28   13   15 1    
    29   14   93 1    
    30   15   16 1    
    31   15   94 1    
    32   15   95 1    
    33   16   17 1    
    34   17   18 1    
    35   17   96 1    
    36   17   97 1    
    37   18   19 1    
    38   18   22 1    
    39   18   98 1    
    40   19   20 am   BACKBONE|DICT|INTERRES
    41   19   21 2    
    42   20   99 1    
    43   20  100 1    
    44   22   23 am   BACKBONE|DICT|INTERRES
    45   22  101 1    
    46   23   24 2    
    47   23   25 1    
    48   25   26 1    
    49   25   27 1    
    50   25  102 1    
    51   26  103 1    
    52   26  104 1    
    53   26  105 1    
    54   27   28 am   BACKBONE|DICT|INTERRES
    55   27  106 1    
    56   28   29 2    
    57   28   30 1    
    58   30   31 1    
    59   30   32 1    
    60   30  107 1    
    61   31  108 1    
    62   31  109 1    
    63   31  110 1    
    64   32   33 am   BACKBONE|DICT|INTERRES
    65   32  111 1    
    66   33   34 2    
    67   33   35 1    
    68   35   36 1    
    69   35   37 1    
    70   35  112 1    
    71   36  113 1    
    72   36  114 1    
    73   36  115 1    
    74   37   38 am   BACKBONE|DICT|INTERRES
    75   37  116 1    
    76   38   39 2    
    77   38   40 1    
    78   40   41 1    
    79   40   42 1    
    80   40  117 1    
    81   41  118 1    
    82   41  119 1    
    83   41  120 1    
    84   42   43 am   BACKBONE|DICT|INTERRES
    85   42  121 1    
    86   43   44 2    
    87   43   45 1    
    88   45   46 1    
    89   45   47 1    
    90   45  122 1    
    91   46  123 1    
    92   46  124 1    
    93   46  125 1    
    94   47   48 am   BACKBONE|DICT|INTERRES
    95   47  126 1    
    96   48   49 2    
    97   48   50 1    
    98   50   51 1    
    99   50   52 1    
   100   50  127 1    
   101   51  128 1    
   102   51  129 1    
   103   51  130 1    
   104   52   53 am   BACKBONE|DICT|INTERRES
   105   52  131 1    
   106   53   54 2    
   107   53   55 1    
   108   55   56 1    
   109   55   59 1    
   110   55  132 1    
   111   56   57 1    
   112   56  133 1    
   113   56  134 1    
   114   57   58 1    
   115   58  135 1    
   116   58  136 1    
   117   59   60 am   BACKBONE|DICT|INTERRES
   118   59  137 1    
   119   60   61 2    
   120   60   62 1    
   121   62   63 1    
   122   62   64 1    
   123   62  138 1    
   124   63  139 1    
   125   63  140 1    
   126   63  141 1    
   127   64   65 am   BACKBONE|DICT|INTERRES
   128   64  142 1    
   129   65   66 2    
   130   65   67 1    
   131   67   68 1    
   132   67   69 1    
   133   67  143 1    
   134   68  144 1    
   135   68  145 1    
   136   68  146 1    
   137   69   70 am   BACKBONE|DICT|INTERRES
   138   69  147 1    
   139   70   71 2    
   140   70   72 1    
   141   72   73 1    
   142   72   74 1    
   143   72  148 1    
   144   73  149 1    
   145   73  150 1    
   146   73  151 1    
   147   74   75 am   BACKBONE|DICT|INTERRES
   148   74  152 1    
   149   75   76 2    
   150   75   77 1    
   151   77   78 1    
   152   77   79 1    
   153   77  153 1    
   154   78  154 1    
   155   78  155 1    
   156   78  156 1    
   157   79   80 am   BACKBONE|DICT|INTERRES
   158   79  157 1    
   159   80   81 2    
@<TRIPOS>SUBSTRUCTURE
     1 UNK         1 GROUP             0       ****    0 ROOT    
