@<TRIPOS>MOLECULE
3R207
157   159    1
SMALL
USER_CHARGES


@<TRIPOS>ATOM
      1 CA        -45.5671  -30.8155    8.0273 C.3       0 UNK        -0.1975 
      2 C         -46.2160  -30.4461    6.7016 C.2       0 UNK         0.4852 
      3 O         -45.5110  -30.2761    5.7064 O.2       0 UNK        -0.5216 
      4 N         -47.5522  -30.3397    6.6754 N.am      1 UNK        -0.4461 
      5 CA        -48.3422  -30.0611    5.4699 C.3       1 UNK         0.0864 
      6 C6        -49.8272  -30.4605    5.6450 C.3       14 UNK        -0.0898 
      7 S7        -50.6930  -29.6028    7.0079 S.3       14 UNK        -0.2598 
      8 C8        -51.9480  -28.6871    6.0628 C.3       14 UNK         0.0286 
      9 C9        -52.9805  -28.0447    6.9746 C.ar      14 UNK        -0.0844 
     10 C10       -52.8968  -26.6859    7.2927 C.ar      14 UNK        -0.0881 
     11 C11       -53.8726  -26.0870    8.0960 C.ar      14 UNK        -0.0643 
     12 C12       -54.9364  -26.8552    8.5752 C.ar      14 UNK        -0.0930 
     13 C13       -55.0241  -28.2175    8.2749 C.ar      14 UNK        -0.0827 
     14 C14       -54.0421  -28.8068    7.4734 C.ar      14 UNK        -0.1249 
     15 C15       -56.1969  -29.0416    8.7893 C.3       14 UNK         0.0141 
     16 S16       -56.3368  -28.9936   10.6041 S.3       14 UNK        -0.2313 
     17 C17       -54.8665  -29.9452   11.1122 C.3       14 UNK        -0.0915 
     18 CA        -55.0481  -30.5459   12.5295 C.3       13 UNK         0.0968 
     19 C         -53.8962  -31.5234   12.8820 C.2       13 UNK         0.5732 
     20 N         -53.9782  -32.7650   12.4238 N.am      13 UNK        -0.7310 
     21 O         -52.9185  -31.1647   13.5357 O.2       13 UNK        -0.5035 
     22 N         -55.1960  -29.4876   13.5367 N.am      13 UNK        -0.4233 
     23 C         -55.8431  -29.6156   14.7000 C.2       13 UNK         0.4989 
     24 O         -56.4275  -30.6455   15.0414 O.2       13 UNK        -0.4996 
     25 CA        -55.8505  -28.4038   15.6549 C.3       12 UNK         0.0216 
     26 CB        -55.2477  -28.7871   17.0169 C.3       12 UNK        -0.1964 
     27 N         -55.1543  -27.2208   15.1272 N.am      12 UNK        -0.4276 
     28 C         -55.6828  -26.3644   14.2369 C.2       12 UNK         0.5020 
     29 O         -56.8218  -26.4915   13.7851 O.2       12 UNK        -0.5489 
     30 CA        -54.8018  -25.1969   13.7358 C.3       11 UNK         0.0294 
     31 CB        -55.6269  -23.9508   13.3524 C.3       11 UNK        -0.2019 
     32 N         -53.6992  -24.8327   14.6322 N.am      11 UNK        -0.4493 
     33 C         -53.7735  -24.4022   15.9009 C.2       11 UNK         0.4932 
     34 O         -54.8316  -24.1830   16.4928 O.2       11 UNK        -0.5029 
     35 CA        -52.4257  -24.2273   16.6352 C.3       10 UNK         0.0280 
     36 CB        -52.5819  -24.1781   18.1694 C.3       10 UNK        -0.1976 
     37 N         -51.4271  -25.2370   16.2536 N.am      10 UNK        -0.4242 
     38 C         -51.5655  -26.5720   16.3118 C.2       10 UNK         0.5072 
     39 O         -52.5704  -27.1256   16.7561 O.2       10 UNK        -0.5224 
     40 CA        -50.4480  -27.4560   15.7269 C.3       9 UNK         0.0343 
     41 CB        -50.9947  -28.2825   14.5494 C.3       9 UNK        -0.2003 
     42 N         -49.2778  -26.7046   15.2710 N.am      9 UNK        -0.4272 
     43 C         -48.3174  -26.2176   16.0674 C.2       9 UNK         0.4988 
     44 O         -48.2733  -26.4063   17.2834 O.2       9 UNK        -0.5108 
     45 CA        -47.2458  -25.3369   15.3993 C.3       8 UNK         0.0248 
     46 CB        -46.1266  -26.2056   14.8043 C.3       8 UNK        -0.2001 
     47 N         -47.7868  -24.4438   14.3667 N.am      8 UNK        -0.4140 
     48 C         -48.7046  -23.4908   14.5929 C.2       8 UNK         0.5028 
     49 O         -49.1808  -23.2497   15.7022 O.2       8 UNK        -0.5428 
     50 CA        -49.2208  -22.7042   13.3781 C.3       7 UNK         0.0264 
     51 CB        -48.1981  -21.6482   12.9300 C.3       7 UNK        -0.1988 
     52 N         -49.5728  -23.5652   12.2487 N.am      7 UNK        -0.4454 
     53 C         -50.5319  -24.5040   12.2660 C.2       7 UNK         0.5027 
     54 O         -51.2505  -24.7366   13.2388 O.2       7 UNK        -0.5083 
     55 CA        -50.6766  -25.3650   10.9937 C.3       6 UNK         0.0844 
     56 C56       -51.3631  -24.5770    9.8523 C.3       14 UNK        -0.0967 
     57 S57       -53.1514  -24.3420   10.1181 S.3       14 UNK        -0.2604 
     58 C58       -53.8000  -24.6078    8.4394 C.3       14 UNK         0.0134 
     59 N         -49.3865  -25.9169   10.5682 N.am      6 UNK        -0.4116 
     60 C         -48.5730  -26.6693   11.3243 C.2       5 UNK         0.5034 
     61 O         -48.8489  -27.0701   12.4531 O.2       5 UNK        -0.5045 
     62 CA        -47.1835  -26.9706   10.7470 C.3       5 UNK         0.0224 
     63 CB        -47.2309  -28.1735    9.7941 C.3       5 UNK        -0.1978 
     64 N         -46.6193  -25.8059   10.0613 N.am      5 UNK        -0.4737 
     65 C         -46.2028  -24.6955   10.6872 C.2       4 UNK         0.5027 
     66 O         -46.2033  -24.5592   11.9102 O.2       4 UNK        -0.5211 
     67 CA        -45.7579  -23.5248    9.7942 C.3       4 UNK         0.0297 
     68 CB        -44.3028  -23.7142    9.3382 C.3       4 UNK        -0.1993 
     69 N         -46.6242  -23.3511    8.6247 N.am      4 UNK        -0.4486 
     70 C         -47.9172  -23.0021    8.6896 C.2       3 UNK         0.4961 
     71 O         -48.4946  -22.7223    9.7390 O.2       3 UNK        -0.5105 
     72 CA        -48.7166  -23.0133    7.3737 C.3       3 UNK         0.0299 
     73 CB        -48.6619  -21.6325    6.7023 C.3       3 UNK        -0.1972 
     74 N         -48.2817  -24.0417    6.4212 N.am      3 UNK        -0.4305 
     75 C         -48.2829  -25.3610    6.6574 C.2       2 UNK         0.5006 
     76 O         -48.6542  -25.8681    7.7195 O.2       2 UNK        -0.5106 
     77 CA        -47.7268  -26.2467    5.5369 C.3       2 UNK         0.0296 
     78 CB        -46.2095  -26.0364    5.3669 C.3       2 UNK        -0.2002 
     79 N         -47.9824  -27.6516    5.8428 N.am      2 UNK        -0.4032 
     80 C         -48.1738  -28.6203    4.9385 C.2       1 UNK         0.5000 
     81 O         -48.1984  -28.4227    3.7216 O.2       1 UNK        -0.5238 
     82 H82       -44.8413  -30.0561    8.3165 H         1 UNK         0.0889 
     83 H83       -45.0421  -31.7656    7.9324 H         1 UNK         0.0889 
     84 H84       -46.2993  -30.9145    8.8282 H         1 UNK         0.0889 
     85 H85       -48.0878  -30.4950    7.5180 H         1 UNK         0.3028 
     86 H86       -47.9430  -30.7085    4.6853 H         1 UNK         0.0864 
     87 H87       -50.3653  -30.3163    4.7062 H         1 UNK         0.0720 
     88 H88       -49.8888  -31.5314    5.8450 H         1 UNK         0.0720 
     89 H89       -52.4542  -29.3654    5.3741 H         1 UNK         0.0814 
     90 H90       -51.4554  -27.9329    5.4468 H         1 UNK         0.0814 
     91 H91       -52.0772  -26.0948    6.9073 H         1 UNK         0.1469 
     92 H92       -55.6948  -26.3926    9.1922 H         1 UNK         0.1381 
     93 H93       -54.1062  -29.8578    7.2262 H         1 UNK         0.1206 
     94 H94       -57.1175  -28.6471    8.3572 H         1 UNK         0.0813 
     95 H95       -56.1250  -30.0796    8.4608 H         1 UNK         0.0813 
     96 H96       -54.6998  -30.7373   10.3798 H         1 UNK         0.0638 
     97 H97       -53.9913  -29.2939   11.0692 H         1 UNK         0.0638 
     98 H98       -55.9700  -31.1314   12.5230 H         1 UNK         0.0568 
     99 H99       -53.2341  -33.4120   12.6324 H         1 UNK         0.3450 
    100 H100      -54.7698  -33.0705   11.8797 H         1 UNK         0.3450 
    101 H101      -54.7251  -28.6191   13.3408 H         1 UNK         0.2987 
    102 H102      -56.8966  -28.1377   15.8210 H         1 UNK         0.0766 
    103 H103      -55.2204  -27.9348   17.6964 H         1 UNK         0.0798 
    104 H104      -54.2311  -29.1684   16.9136 H         1 UNK         0.0798 
    105 H105      -55.8372  -29.5672   17.5003 H         1 UNK         0.0798 
    106 H106      -54.2262  -27.0429   15.5000 H         1 UNK         0.3198 
    107 H107      -54.3268  -25.5617   12.8236 H         1 UNK         0.0843 
    108 H108      -56.1819  -23.5553   14.2034 H         1 UNK         0.0831 
    109 H109      -56.3511  -24.1850   12.5712 H         1 UNK         0.0831 
    110 H110      -54.9871  -23.1568   12.9672 H         1 UNK         0.0831 
    111 H111      -52.7670  -24.9228   14.2259 H         1 UNK         0.3133 
    112 H112      -52.0246  -23.2665   16.3100 H         1 UNK         0.0566 
    113 H113      -51.6193  -24.0356   18.6605 H         1 UNK         0.0814 
    114 H114      -53.2246  -23.3506   18.4719 H         1 UNK         0.0814 
    115 H115      -53.0257  -25.0948   18.5595 H         1 UNK         0.0814 
    116 H116      -50.5739  -24.8627   15.8534 H         1 UNK         0.3091 
    117 H117      -50.1362  -28.1468   16.5127 H         1 UNK         0.0702 
    118 H118      -51.8381  -28.9019   14.8579 H         1 UNK         0.0785 
    119 H119      -51.3388  -27.6433   13.7351 H         1 UNK         0.0785 
    120 H120      -50.2347  -28.9531   14.1481 H         1 UNK         0.0785 
    121 H121      -49.1993  -26.5630   14.2666 H         1 UNK         0.2998 
    122 H122      -46.8083  -24.7067   16.1762 H         1 UNK         0.0697 
    123 H123      -46.4979  -26.8502   14.0076 H         1 UNK         0.0825 
    124 H124      -45.6850  -26.8494   15.5660 H         1 UNK         0.0825 
    125 H125      -45.3243  -25.5929   14.3928 H         1 UNK         0.0825 
    126 H126      -47.4085  -24.5488   13.4281 H         1 UNK         0.3029 
    127 H127      -50.1306  -22.1847   13.6868 H         1 UNK         0.0897 
    128 H128      -47.2744  -22.1039   12.5722 H         1 UNK         0.0792 
    129 H129      -47.9373  -20.9823   13.7537 H         1 UNK         0.0792 
    130 H130      -48.5960  -21.0290   12.1256 H         1 UNK         0.0792 
    131 H131      -49.0615  -23.4062   11.3825 H         1 UNK         0.3086 
    132 H132      -51.3051  -26.2223   11.2446 H         1 UNK         0.0583 
    133 H133      -50.9115  -23.5950    9.7126 H         1 UNK         0.1020 
    134 H134      -51.2135  -25.1054    8.9110 H         1 UNK         0.1020 
    135 H135      -54.7986  -24.1728    8.3775 H         1 UNK         0.0694 
    136 H136      -53.1881  -24.0668    7.7157 H         1 UNK         0.0694 
    137 H137      -49.0794  -25.6899    9.6275 H         1 UNK         0.2989 
    138 H138      -46.5229  -27.2238   11.5791 H         1 UNK         0.1055 
    139 H139      -47.5186  -29.0782   10.3313 H         1 UNK         0.0806 
    140 H140      -46.2543  -28.3540    9.3476 H         1 UNK         0.0806 
    141 H141      -47.9522  -28.0343    8.9897 H         1 UNK         0.0806 
    142 H142      -46.6481  -25.8113    9.0521 H         1 UNK         0.3061 
    143 H143      -45.8130  -22.6126   10.3925 H         1 UNK         0.0734 
    144 H144      -43.9487  -22.8524    8.7721 H         1 UNK         0.0832 
    145 H145      -43.6390  -23.8301   10.1963 H         1 UNK         0.0832 
    146 H146      -44.1835  -24.6000    8.7130 H         1 UNK         0.0832 
    147 H147      -46.2244  -23.5489    7.7194 H         1 UNK         0.3156 
    148 H148      -49.7576  -23.2245    7.6240 H         1 UNK         0.0589 
    149 H149      -47.6491  -21.3714    6.3929 H         1 UNK         0.0808 
    150 H150      -49.3041  -21.5923    5.8223 H         1 UNK         0.0808 
    151 H151      -49.0045  -20.8535    7.3853 H         1 UNK         0.0808 
    152 H152      -47.9590  -23.7128    5.5221 H         1 UNK         0.3098 
    153 H153      -48.2420  -25.9738    4.6134 H         1 UNK         0.0720 
    154 H154      -45.8119  -26.6643    4.5692 H         1 UNK         0.0791 
    155 H155      -45.6647  -26.2793    6.2802 H         1 UNK         0.0791 
    156 H156      -45.9729  -25.0043    5.1063 H         1 UNK         0.0791 
    157 H157      -48.0737  -27.8665    6.8264 H         1 UNK         0.3028 
@<TRIPOS>BOND
     1    1    2 1    
     2    1   82 1    
     3    1   83 1    
     4    1   84 1    
     5    2    3 2    
     6    2    4 am   BACKBONE|DICT|INTERRES
     7    4    5 1    
     8    4   85 1    
     9    5    6 1    
    10    5   80 1    
    11    5   86 1    
    12    6    7 1    
    13    6   87 1    
    14    6   88 1    
    15    7    8 1    
    16    8    9 1    
    17    8   89 1    
    18    8   90 1    
    19    9   10 ar   
    20    9   14 ar   
    21   10   11 ar   
    22   10   91 1    
    23   11   12 ar   
    24   11   58 1    
    25   12   13 ar   
    26   12   92 1    
    27   13   14 ar   
    28   13   15 1    
    29   14   93 1    
    30   15   16 1    
    31   15   94 1    
    32   15   95 1    
    33   16   17 1    
    34   17   18 1    
    35   17   96 1    
    36   17   97 1    
    37   18   19 1    
    38   18   22 1    
    39   18   98 1    
    40   19   20 am   BACKBONE|DICT|INTERRES
    41   19   21 2    
    42   20   99 1    
    43   20  100 1    
    44   22   23 am   BACKBONE|DICT|INTERRES
    45   22  101 1    
    46   23   24 2    
    47   23   25 1    
    48   25   26 1    
    49   25   27 1    
    50   25  102 1    
    51   26  103 1    
    52   26  104 1    
    53   26  105 1    
    54   27   28 am   BACKBONE|DICT|INTERRES
    55   27  106 1    
    56   28   29 2    
    57   28   30 1    
    58   30   31 1    
    59   30   32 1    
    60   30  107 1    
    61   31  108 1    
    62   31  109 1    
    63   31  110 1    
    64   32   33 am   BACKBONE|DICT|INTERRES
    65   32  111 1    
    66   33   34 2    
    67   33   35 1    
    68   35   36 1    
    69   35   37 1    
    70   35  112 1    
    71   36  113 1    
    72   36  114 1    
    73   36  115 1    
    74   37   38 am   BACKBONE|DICT|INTERRES
    75   37  116 1    
    76   38   39 2    
    77   38   40 1    
    78   40   41 1    
    79   40   42 1    
    80   40  117 1    
    81   41  118 1    
    82   41  119 1    
    83   41  120 1    
    84   42   43 am   BACKBONE|DICT|INTERRES
    85   42  121 1    
    86   43   44 2    
    87   43   45 1    
    88   45   46 1    
    89   45   47 1    
    90   45  122 1    
    91   46  123 1    
    92   46  124 1    
    93   46  125 1    
    94   47   48 am   BACKBONE|DICT|INTERRES
    95   47  126 1    
    96   48   49 2    
    97   48   50 1    
    98   50   51 1    
    99   50   52 1    
   100   50  127 1    
   101   51  128 1    
   102   51  129 1    
   103   51  130 1    
   104   52   53 am   BACKBONE|DICT|INTERRES
   105   52  131 1    
   106   53   54 2    
   107   53   55 1    
   108   55   56 1    
   109   55   59 1    
   110   55  132 1    
   111   56   57 1    
   112   56  133 1    
   113   56  134 1    
   114   57   58 1    
   115   58  135 1    
   116   58  136 1    
   117   59   60 am   BACKBONE|DICT|INTERRES
   118   59  137 1    
   119   60   61 2    
   120   60   62 1    
   121   62   63 1    
   122   62   64 1    
   123   62  138 1    
   124   63  139 1    
   125   63  140 1    
   126   63  141 1    
   127   64   65 am   BACKBONE|DICT|INTERRES
   128   64  142 1    
   129   65   66 2    
   130   65   67 1    
   131   67   68 1    
   132   67   69 1    
   133   67  143 1    
   134   68  144 1    
   135   68  145 1    
   136   68  146 1    
   137   69   70 am   BACKBONE|DICT|INTERRES
   138   69  147 1    
   139   70   71 2    
   140   70   72 1    
   141   72   73 1    
   142   72   74 1    
   143   72  148 1    
   144   73  149 1    
   145   73  150 1    
   146   73  151 1    
   147   74   75 am   BACKBONE|DICT|INTERRES
   148   74  152 1    
   149   75   76 2    
   150   75   77 1    
   151   77   78 1    
   152   77   79 1    
   153   77  153 1    
   154   78  154 1    
   155   78  155 1    
   156   78  156 1    
   157   79   80 am   BACKBONE|DICT|INTERRES
   158   79  157 1    
   159   80   81 2    
@<TRIPOS>SUBSTRUCTURE
     1 UNK         1 GROUP             0       ****    0 ROOT    
