@<TRIPOS>MOLECULE
3R207
157   159    1
SMALL
USER_CHARGES


@<TRIPOS>ATOM
      1 CA        -50.5115  -25.0928    2.6201 C.3       0 UNK        -0.1975 
      2 C         -50.5767  -25.9544    3.8721 C.2       0 UNK         0.4852 
      3 O         -50.2331  -25.4833    4.9575 O.2       0 UNK        -0.5216 
      4 N         -51.0158  -27.2130    3.7340 N.am      1 UNK        -0.4461 
      5 CA        -51.1107  -28.1885    4.8247 C.3       1 UNK         0.0864 
      6 C6        -51.8278  -29.4889    4.3871 C.3       14 UNK        -0.0898 
      7 S7        -53.6150  -29.2016    4.1644 S.3       14 UNK        -0.2598 
      8 C8        -54.3325  -30.1212    5.5724 C.3       14 UNK         0.0286 
      9 C9        -53.7142  -29.7646    6.9223 C.ar      14 UNK        -0.0844 
     10 C10       -53.6170  -28.4311    7.3376 C.ar      14 UNK        -0.0881 
     11 C11       -53.0226  -28.1137    8.5614 C.ar      14 UNK        -0.0643 
     12 C12       -52.5631  -29.1384    9.3882 C.ar      14 UNK        -0.0930 
     13 C13       -52.7045  -30.4760    9.0179 C.ar      14 UNK        -0.0827 
     14 C14       -53.2561  -30.7820    7.7685 C.ar      14 UNK        -0.1249 
     15 C15       -52.2617  -31.5577    9.9978 C.3       14 UNK         0.0141 
     16 S16       -53.3721  -33.0059   10.1130 S.3       14 UNK        -0.2313 
     17 C17       -55.0276  -32.4699   10.7025 C.3       14 UNK        -0.0915 
     18 CA        -55.2979  -30.9791   11.0586 C.3       13 UNK         0.0968 
     19 C         -56.8304  -30.7238   11.2044 C.2       13 UNK         0.5732 
     20 N         -57.3423  -30.3358   12.3671 N.am      13 UNK        -0.7310 
     21 O         -57.5728  -30.8773   10.2372 O.2       13 UNK        -0.5035 
     22 N         -54.5013  -30.5217   12.2122 N.am      13 UNK        -0.4233 
     23 C         -54.2573  -29.2315   12.4796 C.2       13 UNK         0.4989 
     24 O         -54.6095  -28.3049   11.7461 O.2       13 UNK        -0.4996 
     25 CA        -53.4686  -28.9301   13.7697 C.3       12 UNK         0.0216 
     26 CB        -51.9952  -29.3457   13.6203 C.3       12 UNK        -0.1964 
     27 N         -53.5334  -27.5064   14.1197 N.am      12 UNK        -0.4276 
     28 C         -54.6405  -26.8836   14.5460 C.2       12 UNK         0.5020 
     29 O         -55.6611  -27.4710   14.9135 O.2       12 UNK        -0.5489 
     30 CA        -54.5899  -25.3466   14.5138 C.3       11 UNK         0.0294 
     31 CB        -55.9571  -24.6805   14.7861 C.3       11 UNK        -0.2019 
     32 N         -53.5378  -24.8026   15.3784 N.am      11 UNK        -0.4493 
     33 C         -53.4966  -24.8091   16.7185 C.2       11 UNK         0.4932 
     34 O         -54.3579  -25.3153   17.4400 O.2       11 UNK        -0.5029 
     35 CA        -52.2786  -24.1063   17.3461 C.3       10 UNK         0.0280 
     36 CB        -52.4296  -23.8684   18.8642 C.3       10 UNK        -0.1976 
     37 N         -51.0203  -24.7960   17.0464 N.am      10 UNK        -0.4242 
     38 C         -50.6730  -26.0492   17.3844 C.2       10 UNK         0.5072 
     39 O         -51.3937  -26.8106   18.0308 O.2       10 UNK        -0.5224 
     40 CA        -49.2909  -26.5617   16.9327 C.3       9 UNK         0.0343 
     41 CB        -49.4411  -27.8082   16.0478 C.3       9 UNK        -0.2003 
     42 N         -48.5008  -25.5572   16.2142 N.am      9 UNK        -0.4272 
     43 C         -47.7430  -24.6267   16.8121 C.2       9 UNK         0.4988 
     44 O         -47.5900  -24.5513   18.0317 O.2       9 UNK        -0.5108 
     45 CA        -47.0596  -23.5837   15.9096 C.3       8 UNK         0.0248 
     46 CB        -45.6915  -24.0952   15.4336 C.3       8 UNK        -0.2001 
     47 N         -47.8675  -23.1558   14.7600 N.am      8 UNK        -0.4140 
     48 C         -49.0516  -22.5310   14.8620 C.2       8 UNK         0.5028 
     49 O         -49.6362  -22.3395   15.9281 O.2       8 UNK        -0.5428 
     50 CA        -49.7088  -22.0572   13.5585 C.3       7 UNK         0.0264 
     51 CB        -48.9768  -20.8359   12.9779 C.3       7 UNK        -0.1988 
     52 N         -49.7594  -23.1248   12.5642 N.am      7 UNK        -0.4454 
     53 C         -50.6185  -24.1535   12.6055 C.2       7 UNK         0.5027 
     54 O         -51.4987  -24.2828   13.4586 O.2       7 UNK        -0.5083 
     55 CA        -50.4376  -25.2397   11.5261 C.3       6 UNK         0.0844 
     56 C56       -51.1605  -24.8138   10.2225 C.3       14 UNK        -0.0967 
     57 S57       -51.1578  -26.1267    8.9578 S.3       14 UNK        -0.2604 
     58 C58       -52.8907  -26.6740    9.0248 C.3       14 UNK         0.0134 
     59 N         -49.0160  -25.5565   11.3238 N.am      6 UNK        -0.4116 
     60 C         -48.2086  -26.0454   12.2818 C.2       5 UNK         0.5034 
     61 O         -48.5979  -26.3460   13.4080 O.2       5 UNK        -0.5045 
     62 CA        -46.7041  -26.1621   11.9851 C.3       5 UNK         0.0224 
     63 CB        -46.3144  -27.6006   11.6253 C.3       5 UNK        -0.1978 
     64 N         -46.2372  -25.2365   10.9538 N.am      5 UNK        -0.4737 
     65 C         -46.2144  -23.9039   11.1035 C.2       4 UNK         0.5027 
     66 O         -46.5483  -23.3328   12.1433 O.2       4 UNK        -0.5211 
     67 CA        -45.8013  -23.0647    9.8807 C.3       4 UNK         0.0297 
     68 CB        -44.3126  -22.6948    9.9667 C.3       4 UNK        -0.1993 
     69 N         -46.0702  -23.7102    8.5891 N.am      4 UNK        -0.4486 
     70 C         -47.2783  -24.1052    8.1619 C.2       3 UNK         0.4961 
     71 O         -48.3050  -23.9713    8.8277 O.2       3 UNK        -0.5105 
     72 CA        -47.3709  -24.7742    6.7780 C.3       3 UNK         0.0299 
     73 CB        -46.0349  -24.8407    6.0024 C.3       3 UNK        -0.1972 
     74 N         -47.9912  -26.1007    6.8631 N.am      3 UNK        -0.4305 
     75 C         -47.5414  -27.1655    7.5502 C.2       2 UNK         0.5006 
     76 O         -46.5064  -27.1479    8.2181 O.2       2 UNK        -0.5106 
     77 CA        -48.3613  -28.4745    7.4924 C.3       2 UNK         0.0296 
     78 CB        -48.6958  -29.0071    8.8971 C.3       2 UNK        -0.2002 
     79 N         -49.6083  -28.3346    6.7419 N.am      2 UNK        -0.4032 
     80 C         -49.7237  -28.4914    5.4179 C.2       1 UNK         0.5000 
     81 O         -48.8012  -28.8371    4.6750 O.2       1 UNK        -0.5238 
     82 H82       -50.8459  -25.6335    1.7349 H         1 UNK         0.0889 
     83 H83       -49.4883  -24.7594    2.4485 H         1 UNK         0.0889 
     84 H84       -51.1421  -24.2121    2.7386 H         1 UNK         0.0889 
     85 H85       -51.2784  -27.5531    2.8202 H         1 UNK         0.3028 
     86 H86       -51.7017  -27.7130    5.6082 H         1 UNK         0.0864 
     87 H87       -51.4091  -29.8673    3.4529 H         1 UNK         0.0720 
     88 H88       -51.6860  -30.2857    5.1200 H         1 UNK         0.0720 
     89 H89       -54.2272  -31.1887    5.3725 H         1 UNK         0.0814 
     90 H90       -55.4042  -29.9226    5.6132 H         1 UNK         0.0814 
     91 H91       -53.9870  -27.6415    6.6977 H         1 UNK         0.1469 
     92 H92       -52.1196  -28.8852   10.3410 H         1 UNK         0.1381 
     93 H93       -53.3484  -31.8158    7.4654 H         1 UNK         0.1206 
     94 H94       -51.2790  -31.9107    9.6830 H         1 UNK         0.0813 
     95 H95       -52.1225  -31.1469   10.9971 H         1 UNK         0.0813 
     96 H96       -55.2781  -33.0952   11.5611 H         1 UNK         0.0638 
     97 H97       -55.7135  -32.7841    9.9133 H         1 UNK         0.0638 
     98 H98       -55.0181  -30.3771   10.1960 H         1 UNK         0.0568 
     99 H99       -56.7493  -30.1859   13.1670 H         1 UNK         0.3450 
    100 H100      -58.3342  -30.1729   12.4372 H         1 UNK         0.3450 
    101 H101      -54.1902  -31.2365   12.8530 H         1 UNK         0.2987 
    102 H102      -53.9161  -29.5074   14.5817 H         1 UNK         0.0766 
    103 H103      -51.4681  -28.7338   12.8870 H         1 UNK         0.0798 
    104 H104      -51.4730  -29.2638   14.5718 H         1 UNK         0.0798 
    105 H105      -51.9019  -30.3859   13.3071 H         1 UNK         0.0798 
    106 H106      -52.7524  -26.9347   13.8342 H         1 UNK         0.3198 
    107 H107      -54.3074  -25.0761   13.4947 H         1 UNK         0.0843 
    108 H108      -56.6969  -25.0072   14.0543 H         1 UNK         0.0831 
    109 H109      -55.8910  -23.5948   14.7178 H         1 UNK         0.0831 
    110 H110      -56.3494  -24.9328   15.7715 H         1 UNK         0.0831 
    111 H111      -52.7401  -24.4184   14.8740 H         1 UNK         0.3133 
    112 H112      -52.2076  -23.1257   16.8728 H         1 UNK         0.0566 
    113 H113      -51.5771  -23.3201   19.2650 H         1 UNK         0.0814 
    114 H114      -53.3230  -23.2803   19.0775 H         1 UNK         0.0814 
    115 H115      -52.5180  -24.8028   19.4192 H         1 UNK         0.0814 
    116 H116      -50.3472  -24.2388   16.5317 H         1 UNK         0.3091 
    117 H117      -48.7497  -26.8592   17.8334 H         1 UNK         0.0702 
    118 H118      -48.4723  -28.1862   15.7211 H         1 UNK         0.0785 
    119 H119      -50.0330  -27.5885   15.1601 H         1 UNK         0.0785 
    120 H120      -49.9413  -28.6154   16.5845 H         1 UNK         0.0785 
    121 H121      -48.5509  -25.5906   15.1991 H         1 UNK         0.2998 
    122 H122      -46.8864  -22.6936   16.5182 H         1 UNK         0.0697 
    123 H123      -45.7764  -25.0464   14.9117 H         1 UNK         0.0825 
    124 H124      -45.0238  -24.2545   16.2812 H         1 UNK         0.0825 
    125 H125      -45.2047  -23.3833   14.7665 H         1 UNK         0.0825 
    126 H126      -47.4475  -23.2591   13.8388 H         1 UNK         0.3029 
    127 H127      -50.7321  -21.7541   13.7928 H         1 UNK         0.0897 
    128 H128      -49.4848  -20.4555   12.0915 H         1 UNK         0.0792 
    129 H129      -48.9421  -20.0226   13.7040 H         1 UNK         0.0792 
    130 H130      -47.9481  -21.0674   12.6996 H         1 UNK         0.0792 
    131 H131      -49.0399  -23.1214   11.8542 H         1 UNK         0.3086 
    132 H132      -50.9203  -26.1459   11.8985 H         1 UNK         0.0583 
    133 H133      -52.1923  -24.5242   10.4322 H         1 UNK         0.1020 
    134 H134      -50.6940  -23.9261    9.7927 H         1 UNK         0.1020 
    135 H135      -53.2651  -26.6019   10.0472 H         1 UNK         0.0694 
    136 H136      -53.5053  -26.0063    8.4191 H         1 UNK         0.0694 
    137 H137      -48.6235  -25.2871   10.4282 H         1 UNK         0.2989 
    138 H138      -46.1813  -25.9096   12.9070 H         1 UNK         0.1055 
    139 H139      -46.6405  -28.3002   12.3965 H         1 UNK         0.0806 
    140 H140      -45.2342  -27.7069   11.5256 H         1 UNK         0.0806 
    141 H141      -46.7681  -27.9121   10.6891 H         1 UNK         0.0806 
    142 H142      -45.9880  -25.6332   10.0560 H         1 UNK         0.3061 
    143 H143      -46.3858  -22.1428    9.9131 H         1 UNK         0.0734 
    144 H144      -44.0904  -22.1915   10.9090 H         1 UNK         0.0832 
    145 H145      -43.6730  -23.5766    9.9105 H         1 UNK         0.0832 
    146 H146      -44.0234  -22.0159    9.1643 H         1 UNK         0.0832 
    147 H147      -45.2759  -23.8749    7.9878 H         1 UNK         0.3156 
    148 H148      -48.0564  -24.1581    6.1947 H         1 UNK         0.0589 
    149 H149      -45.2828  -25.4390    6.5180 H         1 UNK         0.0808 
    150 H150      -46.1821  -25.2824    5.0167 H         1 UNK         0.0808 
    151 H151      -45.6198  -23.8448    5.8417 H         1 UNK         0.0808 
    152 H152      -48.8737  -26.1784    6.3680 H         1 UNK         0.3098 
    153 H153      -47.7361  -29.2208    6.9979 H         1 UNK         0.0720 
    154 H154      -49.4132  -29.8272    8.8548 H         1 UNK         0.0791 
    155 H155      -49.1118  -28.2321    9.5417 H         1 UNK         0.0791 
    156 H156      -47.8017  -29.3994    9.3803 H         1 UNK         0.0791 
    157 H157      -50.4115  -28.0238    7.2736 H         1 UNK         0.3028 
@<TRIPOS>BOND
     1    1    2 1    
     2    1   82 1    
     3    1   83 1    
     4    1   84 1    
     5    2    3 2    
     6    2    4 am   BACKBONE|DICT|INTERRES
     7    4    5 1    
     8    4   85 1    
     9    5    6 1    
    10    5   80 1    
    11    5   86 1    
    12    6    7 1    
    13    6   87 1    
    14    6   88 1    
    15    7    8 1    
    16    8    9 1    
    17    8   89 1    
    18    8   90 1    
    19    9   10 ar   
    20    9   14 ar   
    21   10   11 ar   
    22   10   91 1    
    23   11   12 ar   
    24   11   58 1    
    25   12   13 ar   
    26   12   92 1    
    27   13   14 ar   
    28   13   15 1    
    29   14   93 1    
    30   15   16 1    
    31   15   94 1    
    32   15   95 1    
    33   16   17 1    
    34   17   18 1    
    35   17   96 1    
    36   17   97 1    
    37   18   19 1    
    38   18   22 1    
    39   18   98 1    
    40   19   20 am   BACKBONE|DICT|INTERRES
    41   19   21 2    
    42   20   99 1    
    43   20  100 1    
    44   22   23 am   BACKBONE|DICT|INTERRES
    45   22  101 1    
    46   23   24 2    
    47   23   25 1    
    48   25   26 1    
    49   25   27 1    
    50   25  102 1    
    51   26  103 1    
    52   26  104 1    
    53   26  105 1    
    54   27   28 am   BACKBONE|DICT|INTERRES
    55   27  106 1    
    56   28   29 2    
    57   28   30 1    
    58   30   31 1    
    59   30   32 1    
    60   30  107 1    
    61   31  108 1    
    62   31  109 1    
    63   31  110 1    
    64   32   33 am   BACKBONE|DICT|INTERRES
    65   32  111 1    
    66   33   34 2    
    67   33   35 1    
    68   35   36 1    
    69   35   37 1    
    70   35  112 1    
    71   36  113 1    
    72   36  114 1    
    73   36  115 1    
    74   37   38 am   BACKBONE|DICT|INTERRES
    75   37  116 1    
    76   38   39 2    
    77   38   40 1    
    78   40   41 1    
    79   40   42 1    
    80   40  117 1    
    81   41  118 1    
    82   41  119 1    
    83   41  120 1    
    84   42   43 am   BACKBONE|DICT|INTERRES
    85   42  121 1    
    86   43   44 2    
    87   43   45 1    
    88   45   46 1    
    89   45   47 1    
    90   45  122 1    
    91   46  123 1    
    92   46  124 1    
    93   46  125 1    
    94   47   48 am   BACKBONE|DICT|INTERRES
    95   47  126 1    
    96   48   49 2    
    97   48   50 1    
    98   50   51 1    
    99   50   52 1    
   100   50  127 1    
   101   51  128 1    
   102   51  129 1    
   103   51  130 1    
   104   52   53 am   BACKBONE|DICT|INTERRES
   105   52  131 1    
   106   53   54 2    
   107   53   55 1    
   108   55   56 1    
   109   55   59 1    
   110   55  132 1    
   111   56   57 1    
   112   56  133 1    
   113   56  134 1    
   114   57   58 1    
   115   58  135 1    
   116   58  136 1    
   117   59   60 am   BACKBONE|DICT|INTERRES
   118   59  137 1    
   119   60   61 2    
   120   60   62 1    
   121   62   63 1    
   122   62   64 1    
   123   62  138 1    
   124   63  139 1    
   125   63  140 1    
   126   63  141 1    
   127   64   65 am   BACKBONE|DICT|INTERRES
   128   64  142 1    
   129   65   66 2    
   130   65   67 1    
   131   67   68 1    
   132   67   69 1    
   133   67  143 1    
   134   68  144 1    
   135   68  145 1    
   136   68  146 1    
   137   69   70 am   BACKBONE|DICT|INTERRES
   138   69  147 1    
   139   70   71 2    
   140   70   72 1    
   141   72   73 1    
   142   72   74 1    
   143   72  148 1    
   144   73  149 1    
   145   73  150 1    
   146   73  151 1    
   147   74   75 am   BACKBONE|DICT|INTERRES
   148   74  152 1    
   149   75   76 2    
   150   75   77 1    
   151   77   78 1    
   152   77   79 1    
   153   77  153 1    
   154   78  154 1    
   155   78  155 1    
   156   78  156 1    
   157   79   80 am   BACKBONE|DICT|INTERRES
   158   79  157 1    
   159   80   81 2    
@<TRIPOS>SUBSTRUCTURE
     1 UNK         1 GROUP             0       ****    0 ROOT    
