@<TRIPOS>MOLECULE
3R207
157   159    1
SMALL
USER_CHARGES


@<TRIPOS>ATOM
      1 CA        -48.0558  -28.2658    3.8568 C.3       0 UNK        -0.1975 
      2 C         -49.0799  -27.1737    4.1280 C.2       0 UNK         0.4852 
      3 O         -48.9205  -26.0513    3.6446 O.2       0 UNK        -0.5216 
      4 N         -50.1327  -27.4953    4.8921 N.am      1 UNK        -0.4461 
      5 CA        -51.1520  -26.5443    5.3483 C.3       1 UNK         0.0864 
      6 C6        -52.4506  -27.2766    5.8086 C.3       14 UNK        -0.0898 
      7 S7        -52.5494  -27.7736    7.5676 S.3       14 UNK        -0.2598 
      8 C8        -51.8387  -29.4486    7.5383 C.3       14 UNK         0.0286 
      9 C9        -51.3883  -29.8990    8.9235 C.ar      14 UNK        -0.0844 
     10 C10       -50.0660  -30.3003    9.1431 C.ar      14 UNK        -0.0881 
     11 C11       -49.6548  -30.7448   10.4045 C.ar      14 UNK        -0.0643 
     12 C12       -50.5764  -30.7763   11.4562 C.ar      14 UNK        -0.0930 
     13 C13       -51.8990  -30.3692   11.2529 C.ar      14 UNK        -0.0827 
     14 C14       -52.2964  -29.9339    9.9851 C.ar      14 UNK        -0.1249 
     15 C15       -52.8926  -30.3647   12.4052 C.3       14 UNK         0.0141 
     16 S16       -54.3715  -31.3647   12.0494 S.3       14 UNK        -0.2313 
     17 C17       -55.5512  -30.7015   13.2732 C.3       14 UNK        -0.0915 
     18 CA        -56.4789  -29.6148   12.6608 C.3       13 UNK         0.0968 
     19 C         -57.7046  -29.3221   13.5681 C.2       13 UNK         0.5732 
     20 N         -58.5942  -30.2929   13.7305 N.am      13 UNK        -0.7310 
     21 O         -57.8729  -28.2387   14.1238 O.2       13 UNK        -0.5035 
     22 N         -55.7229  -28.3903   12.3629 N.am      13 UNK        -0.4233 
     23 C         -55.5532  -27.8534   11.1477 C.2       13 UNK         0.4989 
     24 O         -56.0549  -28.3206   10.1237 O.2       13 UNK        -0.4996 
     25 CA        -54.6351  -26.6155   11.0331 C.3       12 UNK         0.0216 
     26 CB        -55.0632  -25.6546    9.9040 C.3       12 UNK        -0.1964 
     27 N         -54.4272  -25.8850   12.2892 N.am      12 UNK        -0.4276 
     28 C         -55.3400  -25.2747   13.0566 C.2       12 UNK         0.5020 
     29 O         -56.5348  -25.1886   12.7674 O.2       12 UNK        -0.5489 
     30 CA        -54.8168  -24.6783   14.3828 C.3       11 UNK         0.0294 
     31 CB        -55.9541  -24.3551   15.3744 C.3       11 UNK        -0.2019 
     32 N         -53.7893  -25.4989   15.0463 N.am      11 UNK        -0.4493 
     33 C         -53.8797  -26.7894   15.4043 C.2       11 UNK         0.4932 
     34 O         -54.8567  -27.4955   15.1543 O.2       11 UNK        -0.5029 
     35 CA        -52.6888  -27.4154   16.1565 C.3       10 UNK         0.0280 
     36 CB        -52.3853  -28.8361   15.6555 C.3       10 UNK        -0.1976 
     37 N         -51.4576  -26.6230   16.0817 N.am      10 UNK        -0.4242 
     38 C         -51.0625  -25.7363   17.0049 C.2       10 UNK         0.5072 
     39 O         -51.7343  -25.4245   17.9890 O.2       10 UNK        -0.5224 
     40 CA        -49.6824  -25.0880   16.8021 C.3       9 UNK         0.0343 
     41 CB        -48.5650  -26.0500   17.2370 C.3       9 UNK        -0.2003 
     42 N         -49.4457  -24.6517   15.4248 N.am      9 UNK        -0.4272 
     43 C         -50.1043  -23.6501   14.8235 C.2       9 UNK         0.4988 
     44 O         -50.9709  -22.9702   15.3743 O.2       9 UNK        -0.5108 
     45 CA        -49.7602  -23.3762   13.3490 C.3       8 UNK         0.0248 
     46 CB        -48.4552  -22.5739   13.2271 C.3       8 UNK        -0.2001 
     47 N         -49.6654  -24.5990   12.5496 N.am      8 UNK        -0.4140 
     48 C         -50.6758  -25.4601   12.3647 C.2       8 UNK         0.5028 
     49 O         -51.8071  -25.2996   12.8156 O.2       8 UNK        -0.5428 
     50 CA        -50.3715  -26.7388   11.5789 C.3       7 UNK         0.0264 
     51 CB        -50.3452  -26.4462   10.0772 C.3       7 UNK        -0.1988 
     52 N         -49.1114  -27.3518   11.9872 N.am      7 UNK        -0.4454 
     53 C         -48.8735  -27.8637   13.2022 C.2       7 UNK         0.5027 
     54 O         -49.6964  -27.8767   14.1177 O.2       7 UNK        -0.5083 
     55 CA        -47.4509  -28.3964   13.4541 C.3       6 UNK         0.0844 
     56 C56       -47.2446  -29.8195   12.8759 C.3       14 UNK        -0.0967 
     57 S57       -47.0832  -29.8835   11.0525 S.3       14 UNK        -0.2604 
     58 C58       -48.2261  -31.2313   10.6098 C.3       14 UNK         0.0134 
     59 N         -46.4272  -27.4517   13.0009 N.am      6 UNK        -0.4116 
     60 C         -46.2563  -26.2124   13.4817 C.2       5 UNK         0.5034 
     61 O         -46.9103  -25.7336   14.4078 O.2       5 UNK        -0.5045 
     62 CA        -45.2032  -25.3437   12.7764 C.3       5 UNK         0.0224 
     63 CB        -43.8032  -25.6170   13.3488 C.3       5 UNK        -0.1978 
     64 N         -45.1855  -25.5196   11.3193 N.am      5 UNK        -0.4737 
     65 C         -46.2061  -25.2082   10.5102 C.2       4 UNK         0.5027 
     66 O         -47.2934  -24.7851   10.9086 O.2       4 UNK        -0.5211 
     67 CA        -45.9864  -25.4289    9.0125 C.3       4 UNK         0.0297 
     68 CB        -46.5153  -26.8072    8.5767 C.3       4 UNK        -0.1993 
     69 N         -46.6823  -24.3691    8.2912 N.am      4 UNK        -0.4486 
     70 C         -46.3722  -23.9139    7.0731 C.2       3 UNK         0.4961 
     71 O         -45.4547  -24.3768    6.3922 O.2       3 UNK        -0.5105 
     72 CA        -47.2237  -22.7463    6.5266 C.3       3 UNK         0.0299 
     73 CB        -46.8645  -22.3790    5.0742 C.3       3 UNK        -0.1972 
     74 N         -48.6577  -23.0342    6.5956 N.am      3 UNK        -0.4305 
     75 C         -49.4210  -22.9268    7.6912 C.2       2 UNK         0.5006 
     76 O         -49.0040  -22.4916    8.7649 O.2       2 UNK        -0.5106 
     77 CA        -50.8830  -23.4066    7.5964 C.3       2 UNK         0.0296 
     78 CB        -51.8298  -22.2071    7.4284 C.3       2 UNK        -0.2002 
     79 N         -51.1679  -24.3950    6.5457 N.am      2 UNK        -0.4032 
     80 C         -50.5634  -25.5851    6.4088 C.2       1 UNK         0.5000 
     81 O         -49.6025  -25.9480    7.0902 O.2       1 UNK        -0.5238 
     82 H82       -47.9572  -28.4306    2.7842 H         1 UNK         0.0889 
     83 H83       -48.3345  -29.2115    4.3213 H         1 UNK         0.0889 
     84 H84       -47.0829  -27.9698    4.2480 H         1 UNK         0.0889 
     85 H85       -50.1896  -28.4201    5.2891 H         1 UNK         0.3028 
     86 H86       -51.4177  -25.9366    4.4802 H         1 UNK         0.0864 
     87 H87       -52.6515  -28.1431    5.1763 H         1 UNK         0.0720 
     88 H88       -53.2976  -26.6092    5.6419 H         1 UNK         0.0720 
     89 H89       -50.9986  -29.4701    6.8445 H         1 UNK         0.0814 
     90 H90       -52.5812  -30.1485    7.1529 H         1 UNK         0.0814 
     91 H91       -49.3539  -30.2792    8.3296 H         1 UNK         0.1469 
     92 H92       -50.2639  -31.1188   12.4326 H         1 UNK         0.1381 
     93 H93       -53.3188  -29.6203    9.8227 H         1 UNK         0.1206 
     94 H94       -53.1799  -29.3323   12.6017 H         1 UNK         0.0813 
     95 H95       -52.4323  -30.7460   13.3174 H         1 UNK         0.0813 
     96 H96       -55.0141  -30.3128   14.1403 H         1 UNK         0.0638 
     97 H97       -56.1321  -31.5511   13.6356 H         1 UNK         0.0638 
     98 H98       -56.8986  -30.0147   11.7361 H         1 UNK         0.0568 
     99 H99       -59.3985  -30.1245   14.3142 H         1 UNK         0.3450 
    100 H100      -58.4815  -31.1869   13.2786 H         1 UNK         0.3450 
    101 H101      -55.3726  -27.9005   13.1797 H         1 UNK         0.2987 
    102 H102      -53.6547  -27.0105   10.7620 H         1 UNK         0.0766 
    103 H103      -54.3729  -24.8157    9.8158 H         1 UNK         0.0798 
    104 H104      -56.0630  -25.2537   10.0723 H         1 UNK         0.0798 
    105 H105      -55.0732  -26.1630    8.9390 H         1 UNK         0.0798 
    106 H106      -53.4545  -25.8101   12.5974 H         1 UNK         0.3198 
    107 H107      -54.3291  -23.7388   14.1175 H         1 UNK         0.0843 
    108 H108      -56.5150  -25.2504   15.6457 H         1 UNK         0.0831 
    109 H109      -56.6616  -23.6460   14.9429 H         1 UNK         0.0831 
    110 H110      -55.5682  -23.9088   16.2908 H         1 UNK         0.0831 
    111 H111      -52.9108  -25.0315   15.2272 H         1 UNK         0.3133 
    112 H112      -52.9991  -27.5028   17.1996 H         1 UNK         0.0566 
    113 H113      -51.5825  -29.2963   16.2317 H         1 UNK         0.0814 
    114 H114      -53.2559  -29.4876   15.7385 H         1 UNK         0.0814 
    115 H115      -52.0770  -28.8209   14.6124 H         1 UNK         0.0814 
    116 H116      -50.8303  -26.8436   15.3112 H         1 UNK         0.3091 
    117 H117      -49.6346  -24.2053   17.4434 H         1 UNK         0.0702 
    118 H118      -47.5884  -25.5675   17.1915 H         1 UNK         0.0785 
    119 H119      -48.5270  -26.9377   16.6039 H         1 UNK         0.0785 
    120 H120      -48.7138  -26.3854   18.2643 H         1 UNK         0.0785 
    121 H121      -48.7097  -25.1326   14.9146 H         1 UNK         0.2998 
    122 H122      -50.5681  -22.7748   12.9271 H         1 UNK         0.0697 
    123 H123      -47.6017  -23.1292   13.6164 H         1 UNK         0.0825 
    124 H124      -48.5186  -21.6380   13.7836 H         1 UNK         0.0825 
    125 H125      -48.2426  -22.3213   12.1878 H         1 UNK         0.0825 
    126 H126      -48.7770  -24.7803   12.0866 H         1 UNK         0.3029 
    127 H127      -51.1697  -27.4578   11.7752 H         1 UNK         0.0897 
    128 H128      -49.5885  -25.7055    9.8172 H         1 UNK         0.0792 
    129 H129      -51.3077  -26.0593    9.7417 H         1 UNK         0.0792 
    130 H130      -50.1404  -27.3466    9.4991 H         1 UNK         0.0792 
    131 H131      -48.3717  -27.3775   11.3012 H         1 UNK         0.3086 
    132 H132      -47.3417  -28.4746   14.5382 H         1 UNK         0.0583 
    133 H133      -46.3322  -30.2452   13.2965 H         1 UNK         0.1020 
    134 H134      -48.0454  -30.4814   13.2097 H         1 UNK         0.1020 
    135 H135      -47.8675  -31.6943    9.6892 H         1 UNK         0.0694 
    136 H136      -48.1917  -32.0161   11.3669 H         1 UNK         0.0694 
    137 H137      -45.8549  -27.7528   12.2259 H         1 UNK         0.2989 
    138 H138      -45.4564  -24.3009   12.9805 H         1 UNK         0.1055 
    139 H139      -43.7905  -25.4761   14.4307 H         1 UNK         0.0806 
    140 H140      -43.0626  -24.9366   12.9280 H         1 UNK         0.0806 
    141 H141      -43.4742  -26.6377   13.1495 H         1 UNK         0.0806 
    142 H142      -44.3277  -25.8665   10.9128 H         1 UNK         0.3061 
    143 H143      -44.9171  -25.3643    8.7998 H         1 UNK         0.0734 
    144 H144      -47.5821  -26.9113    8.7784 H         1 UNK         0.0832 
    145 H145      -46.3655  -26.9711    7.5095 H         1 UNK         0.0832 
    146 H146      -46.0010  -27.6113    9.1040 H         1 UNK         0.0832 
    147 H147      -47.4355  -23.9232    8.8089 H         1 UNK         0.3156 
    148 H148      -47.0085  -21.8754    7.1492 H         1 UNK         0.0589 
    149 H149      -47.0425  -23.2121    4.3925 H         1 UNK         0.0808 
    150 H150      -47.4479  -21.5274    4.7238 H         1 UNK         0.0808 
    151 H151      -45.8123  -22.1047    4.9880 H         1 UNK         0.0808 
    152 H152      -49.0681  -23.4582    5.7763 H         1 UNK         0.3098 
    153 H153      -51.1145  -23.8846    8.5500 H         1 UNK         0.0720 
    154 H154      -52.8745  -22.5123    7.4923 H         1 UNK         0.0791 
    155 H155      -51.6813  -21.7073    6.4704 H         1 UNK         0.0791 
    156 H156      -51.6646  -21.4656    8.2117 H         1 UNK         0.0791 
    157 H157      -51.9460  -24.1812    5.9386 H         1 UNK         0.3028 
@<TRIPOS>BOND
     1    1    2 1    
     2    1   82 1    
     3    1   83 1    
     4    1   84 1    
     5    2    3 2    
     6    2    4 am   BACKBONE|DICT|INTERRES
     7    4    5 1    
     8    4   85 1    
     9    5    6 1    
    10    5   80 1    
    11    5   86 1    
    12    6    7 1    
    13    6   87 1    
    14    6   88 1    
    15    7    8 1    
    16    8    9 1    
    17    8   89 1    
    18    8   90 1    
    19    9   10 ar   
    20    9   14 ar   
    21   10   11 ar   
    22   10   91 1    
    23   11   12 ar   
    24   11   58 1    
    25   12   13 ar   
    26   12   92 1    
    27   13   14 ar   
    28   13   15 1    
    29   14   93 1    
    30   15   16 1    
    31   15   94 1    
    32   15   95 1    
    33   16   17 1    
    34   17   18 1    
    35   17   96 1    
    36   17   97 1    
    37   18   19 1    
    38   18   22 1    
    39   18   98 1    
    40   19   20 am   BACKBONE|DICT|INTERRES
    41   19   21 2    
    42   20   99 1    
    43   20  100 1    
    44   22   23 am   BACKBONE|DICT|INTERRES
    45   22  101 1    
    46   23   24 2    
    47   23   25 1    
    48   25   26 1    
    49   25   27 1    
    50   25  102 1    
    51   26  103 1    
    52   26  104 1    
    53   26  105 1    
    54   27   28 am   BACKBONE|DICT|INTERRES
    55   27  106 1    
    56   28   29 2    
    57   28   30 1    
    58   30   31 1    
    59   30   32 1    
    60   30  107 1    
    61   31  108 1    
    62   31  109 1    
    63   31  110 1    
    64   32   33 am   BACKBONE|DICT|INTERRES
    65   32  111 1    
    66   33   34 2    
    67   33   35 1    
    68   35   36 1    
    69   35   37 1    
    70   35  112 1    
    71   36  113 1    
    72   36  114 1    
    73   36  115 1    
    74   37   38 am   BACKBONE|DICT|INTERRES
    75   37  116 1    
    76   38   39 2    
    77   38   40 1    
    78   40   41 1    
    79   40   42 1    
    80   40  117 1    
    81   41  118 1    
    82   41  119 1    
    83   41  120 1    
    84   42   43 am   BACKBONE|DICT|INTERRES
    85   42  121 1    
    86   43   44 2    
    87   43   45 1    
    88   45   46 1    
    89   45   47 1    
    90   45  122 1    
    91   46  123 1    
    92   46  124 1    
    93   46  125 1    
    94   47   48 am   BACKBONE|DICT|INTERRES
    95   47  126 1    
    96   48   49 2    
    97   48   50 1    
    98   50   51 1    
    99   50   52 1    
   100   50  127 1    
   101   51  128 1    
   102   51  129 1    
   103   51  130 1    
   104   52   53 am   BACKBONE|DICT|INTERRES
   105   52  131 1    
   106   53   54 2    
   107   53   55 1    
   108   55   56 1    
   109   55   59 1    
   110   55  132 1    
   111   56   57 1    
   112   56  133 1    
   113   56  134 1    
   114   57   58 1    
   115   58  135 1    
   116   58  136 1    
   117   59   60 am   BACKBONE|DICT|INTERRES
   118   59  137 1    
   119   60   61 2    
   120   60   62 1    
   121   62   63 1    
   122   62   64 1    
   123   62  138 1    
   124   63  139 1    
   125   63  140 1    
   126   63  141 1    
   127   64   65 am   BACKBONE|DICT|INTERRES
   128   64  142 1    
   129   65   66 2    
   130   65   67 1    
   131   67   68 1    
   132   67   69 1    
   133   67  143 1    
   134   68  144 1    
   135   68  145 1    
   136   68  146 1    
   137   69   70 am   BACKBONE|DICT|INTERRES
   138   69  147 1    
   139   70   71 2    
   140   70   72 1    
   141   72   73 1    
   142   72   74 1    
   143   72  148 1    
   144   73  149 1    
   145   73  150 1    
   146   73  151 1    
   147   74   75 am   BACKBONE|DICT|INTERRES
   148   74  152 1    
   149   75   76 2    
   150   75   77 1    
   151   77   78 1    
   152   77   79 1    
   153   77  153 1    
   154   78  154 1    
   155   78  155 1    
   156   78  156 1    
   157   79   80 am   BACKBONE|DICT|INTERRES
   158   79  157 1    
   159   80   81 2    
@<TRIPOS>SUBSTRUCTURE
     1 UNK         1 GROUP             0       ****    0 ROOT    
