@<TRIPOS>MOLECULE
3R207
157   159    1
SMALL
USER_CHARGES


@<TRIPOS>ATOM
      1 CA        -44.6503  -30.7383    5.1377 C.3       0 UNK        -0.1975 
      2 C         -45.4500  -29.5588    5.6718 C.2       0 UNK         0.4852 
      3 O         -45.3946  -28.4716    5.0951 O.2       0 UNK        -0.5216 
      4 N         -46.1989  -29.7701    6.7609 N.am      1 UNK        -0.4461 
      5 CA        -46.9718  -28.7417    7.4632 C.3       1 UNK         0.0864 
      6 C6        -48.1816  -29.3500    8.2163 C.3       14 UNK        -0.0898 
      7 S7        -47.7666  -30.6880    9.3884 S.3       14 UNK        -0.2598 
      8 C8        -49.0466  -31.9254    8.9992 C.3       14 UNK         0.0286 
      9 C9        -50.4549  -31.3710    9.1751 C.ar      14 UNK        -0.0844 
     10 C10       -51.2522  -31.1049    8.0575 C.ar      14 UNK        -0.0881 
     11 C11       -52.5432  -30.5927    8.2109 C.ar      14 UNK        -0.0643 
     12 C12       -53.0424  -30.3606    9.4965 C.ar      14 UNK        -0.0930 
     13 C13       -52.2531  -30.6163   10.6219 C.ar      14 UNK        -0.0827 
     14 C14       -50.9618  -31.1257   10.4544 C.ar      14 UNK        -0.1249 
     15 C15       -52.7982  -30.3572   12.0181 C.3       14 UNK         0.0141 
     16 S16       -53.0393  -28.5790   12.3250 S.3       14 UNK        -0.2313 
     17 C17       -54.8563  -28.4933   12.4685 C.3       14 UNK        -0.0915 
     18 CA        -55.4071  -27.0420   12.5136 C.3       13 UNK         0.0968 
     19 C         -56.9647  -27.0383   12.5683 C.2       13 UNK         0.5732 
     20 N         -57.6069  -26.4800   13.5896 N.am      13 UNK        -0.7310 
     21 O         -57.6083  -27.5539   11.6575 O.2       13 UNK        -0.5035 
     22 N         -54.7596  -26.2485   13.5676 N.am      13 UNK        -0.4233 
     23 C         -54.7507  -24.9114   13.6343 C.2       13 UNK         0.4989 
     24 O         -55.2280  -24.1745   12.7705 O.2       13 UNK        -0.4996 
     25 CA        -54.1005  -24.3108   14.8949 C.3       12 UNK         0.0216 
     26 CB        -54.4744  -22.8306   15.1217 C.3       12 UNK        -0.1964 
     27 N         -54.3624  -25.1101   16.1006 N.am      12 UNK        -0.4276 
     28 C         -55.5587  -25.4079   16.6370 C.2       12 UNK         0.5020 
     29 O         -56.6275  -25.0306   16.1542 O.2       12 UNK        -0.5489 
     30 CA        -55.5955  -26.3215   17.8818 C.3       11 UNK         0.0294 
     31 CB        -56.4511  -27.5714   17.6073 C.3       11 UNK        -0.2019 
     32 N         -54.2734  -26.7571   18.3374 N.am      11 UNK        -0.4493 
     33 C         -53.3932  -26.0095   19.0174 C.2       11 UNK         0.4932 
     34 O         -53.6377  -24.8798   19.4401 O.2       11 UNK        -0.5029 
     35 CA        -51.9863  -26.6080   19.2224 C.3       10 UNK         0.0280 
     36 CB        -51.8551  -27.1942   20.6374 C.3       10 UNK        -0.1976 
     37 N         -51.6140  -27.6341   18.2358 N.am      10 UNK        -0.4242 
     38 C         -51.5320  -27.4417   16.9112 C.2       10 UNK         0.5072 
     39 O         -51.7830  -26.3682   16.3586 O.2       10 UNK        -0.5224 
     40 CA        -51.2153  -28.6818   16.0623 C.3       9 UNK         0.0343 
     41 CB        -52.4972  -29.4979   15.8230 C.3       9 UNK        -0.2003 
     42 N         -50.6345  -28.3079   14.7711 N.am      9 UNK        -0.4272 
     43 C         -49.3554  -27.9473   14.5990 C.2       9 UNK         0.4988 
     44 O         -48.5173  -27.9566   15.5021 O.2       9 UNK        -0.5108 
     45 CA        -48.9204  -27.5207   13.1866 C.3       8 UNK         0.0248 
     46 CB        -48.3290  -28.7124   12.4183 C.3       8 UNK        -0.2001 
     47 N         -49.9967  -26.9256   12.3907 N.am      8 UNK        -0.4140 
     48 C         -50.4249  -25.6617   12.5202 C.2       8 UNK         0.5028 
     49 O         -49.9630  -24.8689   13.3414 O.2       8 UNK        -0.5428 
     50 CA        -51.5271  -25.2003   11.5509 C.3       7 UNK         0.0264 
     51 CB        -51.5490  -23.6729   11.3470 C.3       7 UNK        -0.1988 
     52 N         -51.4100  -25.8771   10.2594 N.am      7 UNK        -0.4454 
     53 C         -52.4228  -26.1459    9.4284 C.2       7 UNK         0.5027 
     54 O         -53.5854  -25.7939    9.6321 O.2       7 UNK        -0.5083 
     55 CA        -52.0687  -26.9323    8.1472 C.3       6 UNK         0.0844 
     56 C56       -53.3305  -27.5106    7.4556 C.3       14 UNK        -0.0967 
     57 S57       -52.9036  -28.7367    6.1742 S.3       14 UNK        -0.2604 
     58 C58       -53.3946  -30.2942    6.9847 C.3       14 UNK         0.0134 
     59 N         -51.2829  -26.1100    7.2213 N.am      6 UNK        -0.4116 
     60 C         -50.0065  -25.7427    7.3839 C.2       5 UNK         0.5034 
     61 O         -49.3166  -26.0904    8.3447 O.2       5 UNK        -0.5045 
     62 CA        -49.3658  -24.8570    6.3008 C.3       5 UNK         0.0224 
     63 CB        -50.2654  -24.5802    5.0734 C.3       5 UNK        -0.1978 
     64 N         -48.8435  -23.6105    6.8734 N.am      5 UNK        -0.4737 
     65 C         -49.5424  -22.6197    7.4506 C.2       4 UNK         0.5027 
     66 O         -50.7694  -22.6255    7.5539 O.2       4 UNK        -0.5211 
     67 CA        -48.7427  -21.4196    8.0016 C.3       4 UNK         0.0297 
     68 CB        -49.4347  -20.7569    9.2076 C.3       4 UNK        -0.1993 
     69 N         -47.3849  -21.8060    8.3912 N.am      4 UNK        -0.4486 
     70 C         -46.2647  -21.5411    7.7053 C.2       3 UNK         0.4961 
     71 O         -46.2292  -20.8574    6.6823 O.2       3 UNK        -0.5105 
     72 CA        -44.9608  -22.1752    8.2349 C.3       3 UNK         0.0299 
     73 CB        -44.1832  -21.1633    9.0918 C.3       3 UNK        -0.1972 
     74 N         -45.1670  -23.4090    9.0076 N.am      3 UNK        -0.4305 
     75 C         -45.7262  -24.5273    8.5233 C.2       2 UNK         0.5006 
     76 O         -46.0831  -24.6473    7.3479 O.2       2 UNK        -0.5106 
     77 CA        -45.9772  -25.6630    9.5311 C.3       2 UNK         0.0296 
     78 CB        -46.8709  -25.1865   10.6918 C.3       2 UNK        -0.2002 
     79 N         -46.6597  -26.7650    8.8584 N.am      2 UNK        -0.4032 
     80 C         -46.0765  -27.8616    8.3646 C.2       1 UNK         0.5000 
     81 O         -44.9009  -28.1722    8.5839 O.2       1 UNK        -0.5238 
     82 H82       -44.8107  -31.6405    5.7280 H         1 UNK         0.0889 
     83 H83       -43.5855  -30.5071    5.1544 H         1 UNK         0.0889 
     84 H84       -44.9374  -30.9514    4.1082 H         1 UNK         0.0889 
     85 H85       -46.1777  -30.6709    7.2176 H         1 UNK         0.3028 
     86 H86       -47.3820  -28.0673    6.7076 H         1 UNK         0.0864 
     87 H87       -48.8780  -29.7345    7.4712 H         1 UNK         0.0720 
     88 H88       -48.7412  -28.5897    8.7616 H         1 UNK         0.0720 
     89 H89       -48.8957  -32.2884    7.9813 H         1 UNK         0.0814 
     90 H90       -48.9146  -32.7886    9.6530 H         1 UNK         0.0814 
     91 H91       -50.8674  -31.2861    7.0631 H         1 UNK         0.1469 
     92 H92       -54.0423  -29.9703    9.6250 H         1 UNK         0.1381 
     93 H93       -50.3452  -31.3331   11.3181 H         1 UNK         0.1206 
     94 H94       -52.1142  -30.7477   12.7726 H         1 UNK         0.0813 
     95 H95       -53.7339  -30.9021   12.1496 H         1 UNK         0.0813 
     96 H96       -55.2856  -29.0301   11.6206 H         1 UNK         0.0638 
     97 H97       -55.1539  -29.0413   13.3644 H         1 UNK         0.0638 
     98 H98       -55.1534  -26.5721   11.5632 H         1 UNK         0.0568 
     99 H99       -57.1088  -26.0200   14.3418 H         1 UNK         0.3450 
    100 H100      -58.6140  -26.4913   13.5948 H         1 UNK         0.3450 
    101 H101      -54.3470  -26.7715   14.3236 H         1 UNK         0.2987 
    102 H102      -53.0228  -24.3559   14.7281 H         1 UNK         0.0766 
    103 H103      -53.9882  -22.4314   16.0118 H         1 UNK         0.0798 
    104 H104      -54.1604  -22.2145   14.2782 H         1 UNK         0.0798 
    105 H105      -55.5505  -22.6978   15.2386 H         1 UNK         0.0798 
    106 H106      -53.5296  -25.5140   16.5222 H         1 UNK         0.3198 
    107 H107      -56.0685  -25.7506   18.6838 H         1 UNK         0.0843 
    108 H108      -56.0414  -28.1729   16.7948 H         1 UNK         0.0831 
    109 H109      -57.4689  -27.2971   17.3259 H         1 UNK         0.0831 
    110 H110      -56.5253  -28.2048   18.4916 H         1 UNK         0.0831 
    111 H111      -53.9821  -27.6806   18.0533 H         1 UNK         0.3133 
    112 H112      -51.2712  -25.7886   19.1249 H         1 UNK         0.0566 
    113 H113      -52.5279  -28.0393   20.7894 H         1 UNK         0.0814 
    114 H114      -52.0970  -26.4461   21.3940 H         1 UNK         0.0814 
    115 H115      -50.8380  -27.5328   20.8356 H         1 UNK         0.0814 
    116 H116      -51.4079  -28.5530   18.6023 H         1 UNK         0.3091 
    117 H117      -50.5002  -29.3059   16.6029 H         1 UNK         0.0702 
    118 H118      -52.2986  -30.3769   15.2101 H         1 UNK         0.0785 
    119 H119      -53.2684  -28.9086   15.3263 H         1 UNK         0.0785 
    120 H120      -52.9180  -29.8555   16.7635 H         1 UNK         0.0785 
    121 H121      -51.2695  -28.2364   13.9889 H         1 UNK         0.2998 
    122 H122      -48.1313  -26.7767   13.3115 H         1 UNK         0.0697 
    123 H123      -49.0722  -29.4904   12.2436 H         1 UNK         0.0825 
    124 H124      -47.5059  -29.1664   12.9716 H         1 UNK         0.0825 
    125 H125      -47.9335  -28.4032   11.4507 H         1 UNK         0.0825 
    126 H126      -50.4533  -27.5248   11.7176 H         1 UNK         0.3029 
    127 H127      -52.4703  -25.4988   12.0082 H         1 UNK         0.0897 
    128 H128      -52.3672  -23.3693   10.6937 H         1 UNK         0.0792 
    129 H129      -51.6836  -23.1486   12.2939 H         1 UNK         0.0792 
    130 H130      -50.6178  -23.3231   10.9026 H         1 UNK         0.0792 
    131 H131      -50.4712  -26.1088    9.9457 H         1 UNK         0.3086 
    132 H132      -51.4486  -27.7749    8.4631 H         1 UNK         0.0583 
    133 H133      -53.9959  -27.9776    8.1836 H         1 UNK         0.1020 
    134 H134      -53.9172  -26.7129    6.9961 H         1 UNK         0.1020 
    135 H135      -54.4525  -30.2496    7.2484 H         1 UNK         0.0694 
    136 H136      -53.2953  -31.1103    6.2675 H         1 UNK         0.0694 
    137 H137      -51.7772  -25.7642    6.4129 H         1 UNK         0.2989 
    138 H138      -48.4956  -25.4123    5.9462 H         1 UNK         0.1055 
    139 H139      -49.7320  -23.9909    4.3273 H         1 UNK         0.0806 
    140 H140      -51.1720  -24.0329    5.3333 H         1 UNK         0.0806 
    141 H141      -50.5648  -25.5089    4.5855 H         1 UNK         0.0806 
    142 H142      -47.8310  -23.5535    6.8985 H         1 UNK         0.3061 
    143 H143      -48.7055  -20.6824    7.1971 H         1 UNK         0.0734 
    144 H144      -50.4421  -20.4242    8.9537 H         1 UNK         0.0832 
    145 H145      -49.5177  -21.4400   10.0521 H         1 UNK         0.0832 
    146 H146      -48.8838  -19.8781    9.5431 H         1 UNK         0.0832 
    147 H147      -47.3059  -22.3856    9.2140 H         1 UNK         0.3156 
    148 H148      -44.3482  -22.4292    7.3673 H         1 UNK         0.0589 
    149 H149      -44.7345  -20.8863    9.9914 H         1 UNK         0.0808 
    150 H150      -43.2157  -21.5614    9.3982 H         1 UNK         0.0808 
    151 H151      -43.9905  -20.2460    8.5333 H         1 UNK         0.0808 
    152 H152      -44.8867  -23.3858    9.9780 H         1 UNK         0.3098 
    153 H153      -45.0155  -25.9929    9.9291 H         1 UNK         0.0720 
    154 H154      -47.0905  -26.0086   11.3703 H         1 UNK         0.0791 
    155 H155      -46.3873  -24.4100   11.2849 H         1 UNK         0.0791 
    156 H156      -47.8227  -24.7879   10.3372 H         1 UNK         0.0791 
    157 H157      -47.6292  -26.5739    8.6097 H         1 UNK         0.3028 
@<TRIPOS>BOND
     1    1    2 1    
     2    1   82 1    
     3    1   83 1    
     4    1   84 1    
     5    2    3 2    
     6    2    4 am   BACKBONE|DICT|INTERRES
     7    4    5 1    
     8    4   85 1    
     9    5    6 1    
    10    5   80 1    
    11    5   86 1    
    12    6    7 1    
    13    6   87 1    
    14    6   88 1    
    15    7    8 1    
    16    8    9 1    
    17    8   89 1    
    18    8   90 1    
    19    9   10 ar   
    20    9   14 ar   
    21   10   11 ar   
    22   10   91 1    
    23   11   12 ar   
    24   11   58 1    
    25   12   13 ar   
    26   12   92 1    
    27   13   14 ar   
    28   13   15 1    
    29   14   93 1    
    30   15   16 1    
    31   15   94 1    
    32   15   95 1    
    33   16   17 1    
    34   17   18 1    
    35   17   96 1    
    36   17   97 1    
    37   18   19 1    
    38   18   22 1    
    39   18   98 1    
    40   19   20 am   BACKBONE|DICT|INTERRES
    41   19   21 2    
    42   20   99 1    
    43   20  100 1    
    44   22   23 am   BACKBONE|DICT|INTERRES
    45   22  101 1    
    46   23   24 2    
    47   23   25 1    
    48   25   26 1    
    49   25   27 1    
    50   25  102 1    
    51   26  103 1    
    52   26  104 1    
    53   26  105 1    
    54   27   28 am   BACKBONE|DICT|INTERRES
    55   27  106 1    
    56   28   29 2    
    57   28   30 1    
    58   30   31 1    
    59   30   32 1    
    60   30  107 1    
    61   31  108 1    
    62   31  109 1    
    63   31  110 1    
    64   32   33 am   BACKBONE|DICT|INTERRES
    65   32  111 1    
    66   33   34 2    
    67   33   35 1    
    68   35   36 1    
    69   35   37 1    
    70   35  112 1    
    71   36  113 1    
    72   36  114 1    
    73   36  115 1    
    74   37   38 am   BACKBONE|DICT|INTERRES
    75   37  116 1    
    76   38   39 2    
    77   38   40 1    
    78   40   41 1    
    79   40   42 1    
    80   40  117 1    
    81   41  118 1    
    82   41  119 1    
    83   41  120 1    
    84   42   43 am   BACKBONE|DICT|INTERRES
    85   42  121 1    
    86   43   44 2    
    87   43   45 1    
    88   45   46 1    
    89   45   47 1    
    90   45  122 1    
    91   46  123 1    
    92   46  124 1    
    93   46  125 1    
    94   47   48 am   BACKBONE|DICT|INTERRES
    95   47  126 1    
    96   48   49 2    
    97   48   50 1    
    98   50   51 1    
    99   50   52 1    
   100   50  127 1    
   101   51  128 1    
   102   51  129 1    
   103   51  130 1    
   104   52   53 am   BACKBONE|DICT|INTERRES
   105   52  131 1    
   106   53   54 2    
   107   53   55 1    
   108   55   56 1    
   109   55   59 1    
   110   55  132 1    
   111   56   57 1    
   112   56  133 1    
   113   56  134 1    
   114   57   58 1    
   115   58  135 1    
   116   58  136 1    
   117   59   60 am   BACKBONE|DICT|INTERRES
   118   59  137 1    
   119   60   61 2    
   120   60   62 1    
   121   62   63 1    
   122   62   64 1    
   123   62  138 1    
   124   63  139 1    
   125   63  140 1    
   126   63  141 1    
   127   64   65 am   BACKBONE|DICT|INTERRES
   128   64  142 1    
   129   65   66 2    
   130   65   67 1    
   131   67   68 1    
   132   67   69 1    
   133   67  143 1    
   134   68  144 1    
   135   68  145 1    
   136   68  146 1    
   137   69   70 am   BACKBONE|DICT|INTERRES
   138   69  147 1    
   139   70   71 2    
   140   70   72 1    
   141   72   73 1    
   142   72   74 1    
   143   72  148 1    
   144   73  149 1    
   145   73  150 1    
   146   73  151 1    
   147   74   75 am   BACKBONE|DICT|INTERRES
   148   74  152 1    
   149   75   76 2    
   150   75   77 1    
   151   77   78 1    
   152   77   79 1    
   153   77  153 1    
   154   78  154 1    
   155   78  155 1    
   156   78  156 1    
   157   79   80 am   BACKBONE|DICT|INTERRES
   158   79  157 1    
   159   80   81 2    
@<TRIPOS>SUBSTRUCTURE
     1 UNK         1 GROUP             0       ****    0 ROOT    
