@<TRIPOS>MOLECULE
3R207
157   159    1
SMALL
USER_CHARGES


@<TRIPOS>ATOM
      1 CA        -49.2243  -30.6672    8.3702 C.3       0 UNK        -0.1975 
      2 C         -48.9610  -30.3268    6.9128 C.2       0 UNK         0.4852 
      3 O         -47.9506  -30.7589    6.3572 O.2       0 UNK        -0.5216 
      4 N         -49.8650  -29.5601    6.2881 N.am      1 UNK        -0.4461 
      5 CA        -49.7955  -29.1889    4.8669 C.3       1 UNK         0.0864 
      6 C6        -51.1684  -28.7456    4.2985 C.3       14 UNK        -0.0898 
      7 S7        -52.5162  -29.9171    4.6844 S.3       14 UNK        -0.2598 
      8 C8        -53.6639  -28.8788    5.6487 C.3       14 UNK         0.0286 
      9 C9        -53.0470  -28.3609    6.9422 C.ar      14 UNK        -0.0844 
     10 C10       -52.6317  -27.0282    7.0401 C.ar      14 UNK        -0.0881 
     11 C11       -52.0848  -26.5393    8.2293 C.ar      14 UNK        -0.0643 
     12 C12       -51.9696  -27.3913    9.3317 C.ar      14 UNK        -0.0930 
     13 C13       -52.3871  -28.7224    9.2505 C.ar      14 UNK        -0.0827 
     14 C14       -52.9178  -29.2048    8.0500 C.ar      14 UNK        -0.1249 
     15 C15       -52.2628  -29.6342   10.4615 C.3       14 UNK         0.0141 
     16 S16       -53.8621  -29.8382   11.2938 S.3       14 UNK        -0.2313 
     17 C17       -53.3180  -30.5549   12.8804 C.3       14 UNK        -0.0915 
     18 CA        -54.5087  -30.8627   13.8244 C.3       13 UNK         0.0968 
     19 C         -54.0275  -31.5583   15.1260 C.2       13 UNK         0.5732 
     20 N         -53.7873  -32.8617   15.0752 N.am      13 UNK        -0.7310 
     21 O         -53.8372  -30.9320   16.1671 O.2       13 UNK        -0.5035 
     22 N         -55.3046  -29.6577   14.0873 N.am      13 UNK        -0.4233 
     23 C         -56.5650  -29.6530   14.5416 C.2       13 UNK         0.4989 
     24 O         -57.1955  -30.6756   14.8152 O.2       13 UNK        -0.4996 
     25 CA        -57.2632  -28.2861   14.7032 C.3       12 UNK         0.0216 
     26 CB        -57.3101  -27.8802   16.1856 C.3       12 UNK        -0.1964 
     27 N         -56.6259  -27.2126   13.9374 N.am      12 UNK        -0.4276 
     28 C         -56.5828  -27.1277   12.6002 C.2       12 UNK         0.5020 
     29 O         -57.2431  -27.8510   11.8534 O.2       12 UNK        -0.5489 
     30 CA        -55.6293  -26.0789   11.9875 C.3       11 UNK         0.0294 
     31 CB        -56.4172  -25.0016   11.2237 C.3       11 UNK        -0.2019 
     32 N         -54.7297  -25.4201   12.9463 N.am      11 UNK        -0.4493 
     33 C         -53.7654  -26.0248   13.6539 C.2       11 UNK         0.4932 
     34 O         -53.5566  -27.2379   13.6168 O.2       11 UNK        -0.5029 
     35 CA        -52.9306  -25.1070   14.5613 C.3       10 UNK         0.0280 
     36 CB        -53.7676  -24.5089   15.7133 C.3       10 UNK        -0.1976 
     37 N         -51.7047  -25.7652   15.0330 N.am      10 UNK        -0.4242 
     38 C         -51.5772  -26.6919   15.9950 C.2       10 UNK         0.5072 
     39 O         -52.4789  -27.0418   16.7577 O.2       10 UNK        -0.5224 
     40 CA        -50.2007  -27.3585   16.1333 C.3       9 UNK         0.0343 
     41 CB        -50.1735  -28.6695   15.3274 C.3       9 UNK        -0.2003 
     42 N         -49.1007  -26.4992   15.6833 N.am      9 UNK        -0.4272 
     43 C         -48.3429  -25.7463   16.4908 C.2       9 UNK         0.4988 
     44 O         -48.5454  -25.6181   17.6990 O.2       9 UNK        -0.5108 
     45 CA        -47.1151  -25.0692   15.8586 C.3       8 UNK         0.0248 
     46 CB        -46.1119  -26.1190   15.3485 C.3       8 UNK        -0.2001 
     47 N         -47.4410  -24.1362   14.7780 N.am      8 UNK        -0.4140 
     48 C         -47.9296  -22.9011   14.9643 C.2       8 UNK         0.5028 
     49 O         -48.2339  -22.4419   16.0658 O.2       8 UNK        -0.5428 
     50 CA        -48.0871  -22.0167   13.7132 C.3       7 UNK         0.0264 
     51 CB        -46.7256  -21.4970   13.2223 C.3       7 UNK        -0.1988 
     52 N         -48.7720  -22.7187   12.6280 N.am      7 UNK        -0.4454 
     53 C         -50.0857  -22.9827   12.6269 C.2       7 UNK         0.5027 
     54 O         -50.8616  -22.5337   13.4698 O.2       7 UNK        -0.5083 
     55 CA        -50.6332  -23.9303   11.5376 C.3       6 UNK         0.0844 
     56 C56       -51.2768  -23.1573   10.3589 C.3       14 UNK        -0.0967 
     57 S57       -52.5702  -24.1518    9.5410 S.3       14 UNK        -0.2604 
     58 C58       -51.6051  -25.0981    8.3235 C.3       14 UNK         0.0134 
     59 N         -49.6182  -24.8908   11.0942 N.am      6 UNK        -0.4116 
     60 C         -49.1803  -25.9199   11.8309 C.2       5 UNK         0.5034 
     61 O         -49.6287  -26.2041   12.9398 O.2       5 UNK        -0.5045 
     62 CA        -48.0109  -26.7370   11.2628 C.3       5 UNK         0.0224 
     63 CB        -48.5180  -27.8755   10.3685 C.3       5 UNK        -0.1978 
     64 N         -47.0659  -25.9022   10.5178 N.am      5 UNK        -0.4737 
     65 C         -46.2259  -25.0369   11.1044 C.2       4 UNK         0.5027 
     66 O         -46.1509  -24.8909   12.3232 O.2       4 UNK        -0.5211 
     67 CA        -45.3663  -24.1468   10.1895 C.3       4 UNK         0.0297 
     68 CB        -44.0379  -24.8445    9.8601 C.3       4 UNK        -0.1993 
     69 N         -46.0403  -23.7666    8.9458 N.am      4 UNK        -0.4486 
     70 C         -47.1905  -23.0822    8.8721 C.2       3 UNK         0.4961 
     71 O         -47.7881  -22.6428    9.8541 O.2       3 UNK        -0.5105 
     72 CA        -47.8143  -22.9079    7.4758 C.3       3 UNK         0.0299 
     73 CB        -47.4082  -21.5530    6.8759 C.3       3 UNK        -0.1972 
     74 N         -47.4969  -23.9812    6.5233 N.am      3 UNK        -0.4305 
     75 C         -47.7663  -25.2812    6.7059 C.2       2 UNK         0.5006 
     76 O         -48.2396  -25.7488    7.7450 O.2       2 UNK        -0.5106 
     77 CA        -47.4131  -26.2256    5.5557 C.3       2 UNK         0.0296 
     78 CB        -45.9637  -26.7271    5.6830 C.3       2 UNK        -0.2002 
     79 N         -48.3378  -27.3505    5.6126 N.am      2 UNK        -0.4032 
     80 C         -48.7284  -28.1091    4.5818 C.2       1 UNK         0.5000 
     81 O         -48.2952  -27.9767    3.4353 O.2       1 UNK        -0.5238 
     82 H82       -48.2894  -30.6983    8.9289 H         1 UNK         0.0889 
     83 H83       -49.7017  -31.6435    8.4484 H         1 UNK         0.0889 
     84 H84       -49.8710  -29.9282    8.8372 H         1 UNK         0.0889 
     85 H85       -50.6989  -29.2591    6.7765 H         1 UNK         0.3028 
     86 H86       -49.4897  -30.0798    4.3135 H         1 UNK         0.0864 
     87 H87       -51.4321  -27.7495    4.6541 H         1 UNK         0.0720 
     88 H88       -51.1100  -28.6614    3.2116 H         1 UNK         0.0720 
     89 H89       -54.5529  -29.4654    5.8849 H         1 UNK         0.0814 
     90 H90       -54.0070  -28.0511    5.0258 H         1 UNK         0.0814 
     91 H91       -52.7353  -26.3688    6.1893 H         1 UNK         0.1469 
     92 H92       -51.5645  -27.0102   10.2588 H         1 UNK         0.1381 
     93 H93       -53.2459  -30.2334    7.9833 H         1 UNK         0.1206 
     94 H94       -51.8874  -30.6127   10.1593 H         1 UNK         0.0813 
     95 H95       -51.5394  -29.2260   11.1689 H         1 UNK         0.0813 
     96 H96       -52.7529  -31.4636   12.6653 H         1 UNK         0.0638 
     97 H97       -52.6233  -29.8604   13.3571 H         1 UNK         0.0638 
     98 H98       -55.1623  -31.5691   13.3084 H         1 UNK         0.0568 
     99 H99       -53.4624  -33.3312   15.9058 H         1 UNK         0.3450 
    100 H100      -53.9302  -33.3868   14.2267 H         1 UNK         0.3450 
    101 H101      -54.8312  -28.7781   13.9082 H         1 UNK         0.2987 
    102 H102      -58.2875  -28.3968   14.3414 H         1 UNK         0.0766 
    103 H103      -57.8605  -26.9498   16.3268 H         1 UNK         0.0798 
    104 H104      -56.3093  -27.7472   16.5994 H         1 UNK         0.0798 
    105 H105      -57.8101  -28.6438   16.7833 H         1 UNK         0.0798 
    106 H106      -56.0517  -26.5670   14.4585 H         1 UNK         0.3198 
    107 H107      -55.0018  -26.6130   11.2696 H         1 UNK         0.0843 
    108 H108      -57.0491  -24.4140   11.8906 H         1 UNK         0.0831 
    109 H109      -57.0668  -25.4517   10.4717 H         1 UNK         0.0831 
    110 H110      -55.7485  -24.3181   10.6995 H         1 UNK         0.0831 
    111 H111      -54.8401  -24.4203   13.0411 H         1 UNK         0.3133 
    112 H112      -52.6049  -24.2747   13.9439 H         1 UNK         0.0566 
    113 H113      -53.1441  -23.9336   16.3977 H         1 UNK         0.0814 
    114 H114      -54.5325  -23.8314   15.3328 H         1 UNK         0.0814 
    115 H115      -54.2818  -25.2767   16.2919 H         1 UNK         0.0814 
    116 H116      -50.9013  -25.6505   14.4247 H         1 UNK         0.3091 
    117 H117      -50.0613  -27.6121   17.1865 H         1 UNK         0.0702 
    118 H118      -49.2237  -29.1906   15.4479 H         1 UNK         0.0785 
    119 H119      -50.9612  -29.3472   15.6608 H         1 UNK         0.0785 
    120 H120      -50.3290  -28.4937   14.2621 H         1 UNK         0.0785 
    121 H121      -48.9262  -26.4881   14.6829 H         1 UNK         0.2998 
    122 H122      -46.6153  -24.5036   16.6482 H         1 UNK         0.0697 
    123 H123      -46.5113  -26.6945   14.5127 H         1 UNK         0.0825 
    124 H124      -45.8486  -26.8255   16.1367 H         1 UNK         0.0825 
    125 H125      -45.1870  -25.6493   15.0130 H         1 UNK         0.0825 
    126 H126      -47.1549  -24.4117   13.8410 H         1 UNK         0.3029 
    127 H127      -48.6897  -21.1496   13.9937 H         1 UNK         0.0897 
    128 H128      -46.0530  -22.3075   12.9433 H         1 UNK         0.0792 
    129 H129      -46.2286  -20.9172   14.0011 H         1 UNK         0.0792 
    130 H130      -46.8399  -20.8456   12.3554 H         1 UNK         0.0792 
    131 H131      -48.2110  -23.0273   11.8416 H         1 UNK         0.3086 
    132 H132      -51.4233  -24.5078   12.0192 H         1 UNK         0.0583 
    133 H133      -51.7696  -22.2493   10.7132 H         1 UNK         0.1020 
    134 H134      -50.5300  -22.8252    9.6361 H         1 UNK         0.1020 
    135 H135      -51.6658  -24.5966    7.3566 H         1 UNK         0.0694 
    136 H136      -50.5527  -25.1023    8.5965 H         1 UNK         0.0694 
    137 H137      -49.1617  -24.7018   10.2135 H         1 UNK         0.2989 
    138 H138      -47.4817  -27.1838   12.1077 H         1 UNK         0.1055 
    139 H139      -49.1733  -28.5440   10.9276 H         1 UNK         0.0806 
    140 H140      -47.6905  -28.4747    9.9892 H         1 UNK         0.0806 
    141 H141      -49.0806  -27.5030    9.5126 H         1 UNK         0.0806 
    142 H142      -47.1305  -25.9268    9.5056 H         1 UNK         0.3061 
    143 H143      -45.1454  -23.2289   10.7382 H         1 UNK         0.0734 
    144 H144      -43.3770  -24.1929    9.2883 H         1 UNK         0.0832 
    145 H145      -43.5069  -25.1202   10.7726 H         1 UNK         0.0832 
    146 H146      -44.1919  -25.7583    9.2846 H         1 UNK         0.0832 
    147 H147      -45.6256  -24.0891    8.0840 H         1 UNK         0.3156 
    148 H148      -48.8981  -22.9080    7.6085 H         1 UNK         0.0589 
    149 H149      -46.3361  -21.5014    6.6816 H         1 UNK         0.0808 
    150 H150      -47.9305  -21.3598    5.9387 H         1 UNK         0.0808 
    151 H151      -47.6556  -20.7356    7.5552 H         1 UNK         0.0808 
    152 H152      -47.0883  -23.6932    5.6451 H         1 UNK         0.3098 
    153 H153      -47.5425  -25.6954    4.6098 H         1 UNK         0.0720 
    154 H154      -45.7068  -27.4052    4.8690 H         1 UNK         0.0791 
    155 H155      -45.8035  -27.2589    6.6221 H         1 UNK         0.0791 
    156 H156      -45.2552  -25.8987    5.6488 H         1 UNK         0.0791 
    157 H157      -48.7633  -27.4902    6.5207 H         1 UNK         0.3028 
@<TRIPOS>BOND
     1    1    2 1    
     2    1   82 1    
     3    1   83 1    
     4    1   84 1    
     5    2    3 2    
     6    2    4 am   BACKBONE|DICT|INTERRES
     7    4    5 1    
     8    4   85 1    
     9    5    6 1    
    10    5   80 1    
    11    5   86 1    
    12    6    7 1    
    13    6   87 1    
    14    6   88 1    
    15    7    8 1    
    16    8    9 1    
    17    8   89 1    
    18    8   90 1    
    19    9   10 ar   
    20    9   14 ar   
    21   10   11 ar   
    22   10   91 1    
    23   11   12 ar   
    24   11   58 1    
    25   12   13 ar   
    26   12   92 1    
    27   13   14 ar   
    28   13   15 1    
    29   14   93 1    
    30   15   16 1    
    31   15   94 1    
    32   15   95 1    
    33   16   17 1    
    34   17   18 1    
    35   17   96 1    
    36   17   97 1    
    37   18   19 1    
    38   18   22 1    
    39   18   98 1    
    40   19   20 am   BACKBONE|DICT|INTERRES
    41   19   21 2    
    42   20   99 1    
    43   20  100 1    
    44   22   23 am   BACKBONE|DICT|INTERRES
    45   22  101 1    
    46   23   24 2    
    47   23   25 1    
    48   25   26 1    
    49   25   27 1    
    50   25  102 1    
    51   26  103 1    
    52   26  104 1    
    53   26  105 1    
    54   27   28 am   BACKBONE|DICT|INTERRES
    55   27  106 1    
    56   28   29 2    
    57   28   30 1    
    58   30   31 1    
    59   30   32 1    
    60   30  107 1    
    61   31  108 1    
    62   31  109 1    
    63   31  110 1    
    64   32   33 am   BACKBONE|DICT|INTERRES
    65   32  111 1    
    66   33   34 2    
    67   33   35 1    
    68   35   36 1    
    69   35   37 1    
    70   35  112 1    
    71   36  113 1    
    72   36  114 1    
    73   36  115 1    
    74   37   38 am   BACKBONE|DICT|INTERRES
    75   37  116 1    
    76   38   39 2    
    77   38   40 1    
    78   40   41 1    
    79   40   42 1    
    80   40  117 1    
    81   41  118 1    
    82   41  119 1    
    83   41  120 1    
    84   42   43 am   BACKBONE|DICT|INTERRES
    85   42  121 1    
    86   43   44 2    
    87   43   45 1    
    88   45   46 1    
    89   45   47 1    
    90   45  122 1    
    91   46  123 1    
    92   46  124 1    
    93   46  125 1    
    94   47   48 am   BACKBONE|DICT|INTERRES
    95   47  126 1    
    96   48   49 2    
    97   48   50 1    
    98   50   51 1    
    99   50   52 1    
   100   50  127 1    
   101   51  128 1    
   102   51  129 1    
   103   51  130 1    
   104   52   53 am   BACKBONE|DICT|INTERRES
   105   52  131 1    
   106   53   54 2    
   107   53   55 1    
   108   55   56 1    
   109   55   59 1    
   110   55  132 1    
   111   56   57 1    
   112   56  133 1    
   113   56  134 1    
   114   57   58 1    
   115   58  135 1    
   116   58  136 1    
   117   59   60 am   BACKBONE|DICT|INTERRES
   118   59  137 1    
   119   60   61 2    
   120   60   62 1    
   121   62   63 1    
   122   62   64 1    
   123   62  138 1    
   124   63  139 1    
   125   63  140 1    
   126   63  141 1    
   127   64   65 am   BACKBONE|DICT|INTERRES
   128   64  142 1    
   129   65   66 2    
   130   65   67 1    
   131   67   68 1    
   132   67   69 1    
   133   67  143 1    
   134   68  144 1    
   135   68  145 1    
   136   68  146 1    
   137   69   70 am   BACKBONE|DICT|INTERRES
   138   69  147 1    
   139   70   71 2    
   140   70   72 1    
   141   72   73 1    
   142   72   74 1    
   143   72  148 1    
   144   73  149 1    
   145   73  150 1    
   146   73  151 1    
   147   74   75 am   BACKBONE|DICT|INTERRES
   148   74  152 1    
   149   75   76 2    
   150   75   77 1    
   151   77   78 1    
   152   77   79 1    
   153   77  153 1    
   154   78  154 1    
   155   78  155 1    
   156   78  156 1    
   157   79   80 am   BACKBONE|DICT|INTERRES
   158   79  157 1    
   159   80   81 2    
@<TRIPOS>SUBSTRUCTURE
     1 UNK         1 GROUP             0       ****    0 ROOT    
