@<TRIPOS>MOLECULE
3R207
157   159    1
SMALL
USER_CHARGES


@<TRIPOS>ATOM
      1 CA        -49.6987  -23.5841    8.2341 C.3       0 UNK        -0.1975 
      2 C         -49.1770  -24.6718    7.3082 C.2       0 UNK         0.4852 
      3 O         -48.0062  -25.0472    7.4084 O.2       0 UNK        -0.5216 
      4 N         -50.0430  -25.1766    6.4194 N.am      1 UNK        -0.4461 
      5 CA        -49.7684  -26.2441    5.4511 C.3       1 UNK         0.0864 
      6 C6        -51.0284  -26.6369    4.6339 C.3       14 UNK        -0.0898 
      7 S7        -52.5362  -26.8651    5.6352 S.3       14 UNK        -0.2598 
      8 C8        -52.3991  -28.5971    6.1784 C.3       14 UNK         0.0286 
      9 C9        -52.4122  -28.6857    7.6968 C.ar      14 UNK        -0.0844 
     10 C10       -51.2595  -29.0455    8.4010 C.ar      14 UNK        -0.0881 
     11 C11       -51.2715  -29.1103    9.7991 C.ar      14 UNK        -0.0643 
     12 C12       -52.4526  -28.8172   10.4897 C.ar      14 UNK        -0.0930 
     13 C13       -53.6135  -28.4665    9.7957 C.ar      14 UNK        -0.0827 
     14 C14       -53.5870  -28.4057    8.4004 C.ar      14 UNK        -0.1249 
     15 C15       -54.8984  -28.1435   10.5427 C.3       14 UNK         0.0141 
     16 S16       -55.9626  -29.6129   10.6885 S.3       14 UNK        -0.2313 
     17 C17       -55.3436  -30.3705   12.2303 C.3       14 UNK        -0.0915 
     18 CA        -56.4106  -30.3618   13.3585 C.3       13 UNK         0.0968 
     19 C         -55.9163  -31.1140   14.6291 C.2       13 UNK         0.5732 
     20 N         -55.9806  -30.5401   15.8263 N.am      13 UNK        -0.7310 
     21 O         -55.4781  -32.2576   14.5310 O.2       13 UNK        -0.5035 
     22 N         -56.8958  -29.0025   13.6374 N.am      13 UNK        -0.4233 
     23 C         -58.1610  -28.6865   13.9442 C.2       13 UNK         0.4989 
     24 O         -59.0845  -29.5029   13.9529 O.2       13 UNK        -0.4996 
     25 CA        -58.4464  -27.2098   14.3019 C.3       12 UNK         0.0216 
     26 CB        -59.6831  -27.0481   15.2123 C.3       12 UNK        -0.1964 
     27 N         -57.2894  -26.5052   14.8734 N.am      12 UNK        -0.4276 
     28 C         -56.6018  -26.8557   15.9691 C.2       12 UNK         0.5020 
     29 O         -56.8866  -27.8128   16.6940 O.2       12 UNK        -0.5489 
     30 CA        -55.3374  -26.0373   16.2668 C.3       11 UNK         0.0294 
     31 CB        -55.4977  -25.2208   17.5587 C.3       11 UNK        -0.2019 
     32 N         -54.1700  -26.9097   16.3851 N.am      11 UNK        -0.4493 
     33 C         -53.6954  -27.7112   15.4225 C.2       11 UNK         0.4932 
     34 O         -54.1777  -27.7859   14.2895 O.2       11 UNK        -0.5029 
     35 CA        -52.4622  -28.5506   15.7999 C.3       10 UNK         0.0280 
     36 CB        -52.0163  -29.4953   14.6691 C.3       10 UNK        -0.1976 
     37 N         -51.3411  -27.6841   16.1618 N.am      10 UNK        -0.4242 
     38 C         -51.1556  -27.0940   17.3502 C.2       10 UNK         0.5072 
     39 O         -51.9073  -27.2470   18.3142 O.2       10 UNK        -0.5224 
     40 CA        -49.9608  -26.1374   17.4600 C.3       9 UNK         0.0343 
     41 CB        -48.6287  -26.9063   17.4339 C.3       9 UNK        -0.2003 
     42 N         -49.9904  -25.1645   16.3682 N.am      9 UNK        -0.4272 
     43 C         -50.6127  -23.9776   16.4206 C.2       9 UNK         0.4988 
     44 O         -51.1568  -23.5311   17.4311 O.2       9 UNK        -0.5108 
     45 CA        -50.6375  -23.1427   15.1267 C.3       8 UNK         0.0248 
     46 CB        -49.4195  -22.2070   15.0659 C.3       8 UNK        -0.2001 
     47 N         -50.6796  -23.9784   13.9235 N.am      8 UNK        -0.4140 
     48 C         -51.7623  -24.6733   13.5378 C.2       8 UNK         0.5028 
     49 O         -52.8618  -24.5613   14.0786 O.2       8 UNK        -0.5428 
     50 CA        -51.6099  -25.6693   12.3701 C.3       7 UNK         0.0264 
     51 CB        -52.2654  -25.1127   11.0954 C.3       7 UNK        -0.1988 
     52 N         -50.2270  -26.0476   12.0649 N.am      7 UNK        -0.4454 
     53 C         -49.3834  -26.6804   12.8933 C.2       7 UNK         0.5027 
     54 O         -49.6828  -27.0328   14.0334 O.2       7 UNK        -0.5083 
     55 CA        -47.9429  -26.9037   12.3916 C.3       6 UNK         0.0844 
     56 C56       -47.7600  -28.3081   11.7653 C.3       14 UNK        -0.0967 
     57 S57       -48.5813  -28.4863   10.1408 S.3       14 UNK        -0.2604 
     58 C58       -50.0215  -29.5197   10.5671 C.3       14 UNK         0.0134 
     59 N         -47.4649  -25.8478   11.4947 N.am      6 UNK        -0.4116 
     60 C         -47.3635  -24.5410   11.7733 C.2       5 UNK         0.5034 
     61 O         -47.7549  -24.0407   12.8284 O.2       5 UNK        -0.5045 
     62 CA        -46.7644  -23.6363   10.6762 C.3       5 UNK         0.0224 
     63 CB        -45.8136  -22.5685   11.2565 C.3       5 UNK        -0.1978 
     64 N         -46.1329  -24.3793    9.5718 N.am      5 UNK        -0.4737 
     65 C         -45.0274  -25.1410    9.6210 C.2       4 UNK         0.5027 
     66 O         -44.3340  -25.2919   10.6262 O.2       4 UNK        -0.5211 
     67 CA        -44.6573  -25.9002    8.3395 C.3       4 UNK         0.0297 
     68 CB        -45.3057  -27.2946    8.3394 C.3       4 UNK        -0.1993 
     69 N         -45.0763  -25.1831    7.1363 N.am      4 UNK        -0.4486 
     70 C         -44.3424  -24.2559    6.5078 C.2       3 UNK         0.4961 
     71 O         -43.2287  -23.8934    6.8916 O.2       3 UNK        -0.5105 
     72 CA        -44.9567  -23.6396    5.2325 C.3       3 UNK         0.0299 
     73 CB        -43.9003  -22.9927    4.3119 C.3       3 UNK        -0.1972 
     74 N         -45.7941  -24.5812    4.4768 N.am      3 UNK        -0.4305 
     75 C         -45.4418  -25.7656    3.9534 C.2       2 UNK         0.5006 
     76 O         -44.2989  -26.2242    3.9989 O.2       2 UNK        -0.5106 
     77 CA        -46.5738  -26.5840    3.2931 C.3       2 UNK         0.0296 
     78 CB        -46.0961  -27.9601    2.7908 C.3       2 UNK        -0.2002 
     79 N         -47.7233  -26.7802    4.1862 N.am      2 UNK        -0.4032 
     80 C         -48.6354  -25.8450    4.4841 C.2       1 UNK         0.5000 
     81 O         -48.6078  -24.7008    4.0196 O.2       1 UNK        -0.5238 
     82 H82       -50.7149  -23.2849    7.9777 H         1 UNK         0.0889 
     83 H83       -49.0624  -22.7018    8.1726 H         1 UNK         0.0889 
     84 H84       -49.7015  -23.9394    9.2633 H         1 UNK         0.0889 
     85 H85       -50.9875  -24.8206    6.3921 H         1 UNK         0.3028 
     86 H86       -49.4451  -27.1135    6.0275 H         1 UNK         0.0864 
     87 H87       -50.8440  -27.5421    4.0523 H         1 UNK         0.0720 
     88 H88       -51.2623  -25.8591    3.9034 H         1 UNK         0.0720 
     89 H89       -53.2390  -29.1642    5.7745 H         1 UNK         0.0814 
     90 H90       -51.4970  -29.0574    5.7732 H         1 UNK         0.0814 
     91 H91       -50.3477  -29.2704    7.8650 H         1 UNK         0.1469 
     92 H92       -52.4741  -28.8653   11.5685 H         1 UNK         0.1381 
     93 H93       -54.4818  -28.1310    7.8582 H         1 UNK         0.1206 
     94 H94       -54.6821  -27.7290   11.5288 H         1 UNK         0.0813 
     95 H95       -55.4465  -27.3678   10.0060 H         1 UNK         0.0813 
     96 H96       -54.4369  -29.8621   12.5579 H         1 UNK         0.0638 
     97 H97       -55.0463  -31.3932   11.9923 H         1 UNK         0.0638 
     98 H98       -57.2500  -30.9557   12.9928 H         1 UNK         0.0568 
     99 H99       -56.3572  -29.6060   15.9489 H         1 UNK         0.3450 
    100 H100      -55.6677  -31.0589   16.6306 H         1 UNK         0.3450 
    101 H101      -56.1732  -28.2960   13.7077 H         1 UNK         0.2987 
    102 H102      -58.6676  -26.7138   13.3557 H         1 UNK         0.0766 
    103 H103      -59.8757  -25.9993   15.4381 H         1 UNK         0.0798 
    104 H104      -59.5609  -27.5777   16.1578 H         1 UNK         0.0798 
    105 H105      -60.5794  -27.4431   14.7324 H         1 UNK         0.0798 
    106 H106      -56.9518  -25.7189   14.3342 H         1 UNK         0.3198 
    107 H107      -55.1494  -25.3467   15.4420 H         1 UNK         0.0843 
    108 H108      -55.6606  -25.8640   18.4246 H         1 UNK         0.0831 
    109 H109      -56.3508  -24.5447   17.4892 H         1 UNK         0.0831 
    110 H110      -54.6152  -24.6106   17.7538 H         1 UNK         0.0831 
    111 H111      -53.6940  -26.9254   17.2802 H         1 UNK         0.3133 
    112 H112      -52.7340  -29.1657   16.6602 H         1 UNK         0.0566 
    113 H113      -51.1655  -30.1041   14.9746 H         1 UNK         0.0814 
    114 H114      -52.8191  -30.1787   14.3908 H         1 UNK         0.0814 
    115 H115      -51.7262  -28.9427   13.7759 H         1 UNK         0.0814 
    116 H116      -50.6911  -27.4652   15.4073 H         1 UNK         0.3091 
    117 H117      -50.0287  -25.6183   18.4186 H         1 UNK         0.0702 
    118 H118      -47.7828  -26.2319   17.5678 H         1 UNK         0.0785 
    119 H119      -48.4811  -27.4429   16.4959 H         1 UNK         0.0785 
    120 H120      -48.5878  -27.6405   18.2397 H         1 UNK         0.0785 
    121 H121      -49.6162  -25.4758   15.4807 H         1 UNK         0.2998 
    122 H122      -51.5376  -22.5243   15.1457 H         1 UNK         0.0697 
    123 H123      -48.4807  -22.7619   15.0857 H         1 UNK         0.0825 
    124 H124      -49.4109  -21.5250   15.9171 H         1 UNK         0.0825 
    125 H125      -49.4295  -21.5978   14.1620 H         1 UNK         0.0825 
    126 H126      -49.8058  -24.1002   13.4236 H         1 UNK         0.3029 
    127 H127      -52.1416  -26.5782   12.6596 H         1 UNK         0.0897 
    128 H128      -52.2077  -25.8245   10.2714 H         1 UNK         0.0792 
    129 H129      -51.7953  -24.1834   10.7722 H         1 UNK         0.0792 
    130 H130      -53.3225  -24.9021   11.2636 H         1 UNK         0.0792 
    131 H131      -49.8906  -25.8224   11.1408 H         1 UNK         0.3086 
    132 H132      -47.3061  -26.8594   13.2777 H         1 UNK         0.0583 
    133 H133      -46.6957  -28.4970   11.6156 H         1 UNK         0.1020 
    134 H134      -48.0898  -29.0888   12.4536 H         1 UNK         0.1020 
    135 H135      -49.7891  -30.5625   10.3479 H         1 UNK         0.0694 
    136 H136      -50.2120  -29.4652   11.6397 H         1 UNK         0.0694 
    137 H137      -47.1457  -26.1571   10.5889 H         1 UNK         0.2989 
    138 H138      -47.6096  -23.1047   10.2394 H         1 UNK         0.1055 
    139 H139      -46.3390  -21.9166   11.9557 H         1 UNK         0.0806 
    140 H140      -45.4023  -21.9342   10.4713 H         1 UNK         0.0806 
    141 H141      -44.9803  -23.0151   11.7994 H         1 UNK         0.0806 
    142 H142      -46.6592  -24.3962    8.7018 H         1 UNK         0.3061 
    143 H143      -43.5727  -26.0295    8.3276 H         1 UNK         0.0734 
    144 H144      -44.9841  -27.8784    7.4768 H         1 UNK         0.0832 
    145 H145      -45.0284  -27.8572    9.2320 H         1 UNK         0.0832 
    146 H146      -46.3946  -27.2362    8.3144 H         1 UNK         0.0832 
    147 H147      -46.0183  -25.3622    6.8062 H         1 UNK         0.3156 
    148 H148      -45.6257  -22.8486    5.5742 H         1 UNK         0.0589 
    149 H149      -43.1593  -23.7183    3.9750 H         1 UNK         0.0808 
    150 H150      -44.3610  -22.5491    3.4293 H         1 UNK         0.0808 
    151 H151      -43.3636  -22.1965    4.8293 H         1 UNK         0.0808 
    152 H152      -46.7751  -24.3257    4.3833 H         1 UNK         0.3098 
    153 H153      -46.9059  -26.0153    2.4218 H         1 UNK         0.0720 
    154 H154      -46.8957  -28.4958    2.2788 H         1 UNK         0.0791 
    155 H155      -45.7403  -28.5879    3.6089 H         1 UNK         0.0791 
    156 H156      -45.2754  -27.8542    2.0798 H         1 UNK         0.0791 
    157 H157      -47.7965  -27.6883    4.6223 H         1 UNK         0.3028 
@<TRIPOS>BOND
     1    1    2 1    
     2    1   82 1    
     3    1   83 1    
     4    1   84 1    
     5    2    3 2    
     6    2    4 am   BACKBONE|DICT|INTERRES
     7    4    5 1    
     8    4   85 1    
     9    5    6 1    
    10    5   80 1    
    11    5   86 1    
    12    6    7 1    
    13    6   87 1    
    14    6   88 1    
    15    7    8 1    
    16    8    9 1    
    17    8   89 1    
    18    8   90 1    
    19    9   10 ar   
    20    9   14 ar   
    21   10   11 ar   
    22   10   91 1    
    23   11   12 ar   
    24   11   58 1    
    25   12   13 ar   
    26   12   92 1    
    27   13   14 ar   
    28   13   15 1    
    29   14   93 1    
    30   15   16 1    
    31   15   94 1    
    32   15   95 1    
    33   16   17 1    
    34   17   18 1    
    35   17   96 1    
    36   17   97 1    
    37   18   19 1    
    38   18   22 1    
    39   18   98 1    
    40   19   20 am   BACKBONE|DICT|INTERRES
    41   19   21 2    
    42   20   99 1    
    43   20  100 1    
    44   22   23 am   BACKBONE|DICT|INTERRES
    45   22  101 1    
    46   23   24 2    
    47   23   25 1    
    48   25   26 1    
    49   25   27 1    
    50   25  102 1    
    51   26  103 1    
    52   26  104 1    
    53   26  105 1    
    54   27   28 am   BACKBONE|DICT|INTERRES
    55   27  106 1    
    56   28   29 2    
    57   28   30 1    
    58   30   31 1    
    59   30   32 1    
    60   30  107 1    
    61   31  108 1    
    62   31  109 1    
    63   31  110 1    
    64   32   33 am   BACKBONE|DICT|INTERRES
    65   32  111 1    
    66   33   34 2    
    67   33   35 1    
    68   35   36 1    
    69   35   37 1    
    70   35  112 1    
    71   36  113 1    
    72   36  114 1    
    73   36  115 1    
    74   37   38 am   BACKBONE|DICT|INTERRES
    75   37  116 1    
    76   38   39 2    
    77   38   40 1    
    78   40   41 1    
    79   40   42 1    
    80   40  117 1    
    81   41  118 1    
    82   41  119 1    
    83   41  120 1    
    84   42   43 am   BACKBONE|DICT|INTERRES
    85   42  121 1    
    86   43   44 2    
    87   43   45 1    
    88   45   46 1    
    89   45   47 1    
    90   45  122 1    
    91   46  123 1    
    92   46  124 1    
    93   46  125 1    
    94   47   48 am   BACKBONE|DICT|INTERRES
    95   47  126 1    
    96   48   49 2    
    97   48   50 1    
    98   50   51 1    
    99   50   52 1    
   100   50  127 1    
   101   51  128 1    
   102   51  129 1    
   103   51  130 1    
   104   52   53 am   BACKBONE|DICT|INTERRES
   105   52  131 1    
   106   53   54 2    
   107   53   55 1    
   108   55   56 1    
   109   55   59 1    
   110   55  132 1    
   111   56   57 1    
   112   56  133 1    
   113   56  134 1    
   114   57   58 1    
   115   58  135 1    
   116   58  136 1    
   117   59   60 am   BACKBONE|DICT|INTERRES
   118   59  137 1    
   119   60   61 2    
   120   60   62 1    
   121   62   63 1    
   122   62   64 1    
   123   62  138 1    
   124   63  139 1    
   125   63  140 1    
   126   63  141 1    
   127   64   65 am   BACKBONE|DICT|INTERRES
   128   64  142 1    
   129   65   66 2    
   130   65   67 1    
   131   67   68 1    
   132   67   69 1    
   133   67  143 1    
   134   68  144 1    
   135   68  145 1    
   136   68  146 1    
   137   69   70 am   BACKBONE|DICT|INTERRES
   138   69  147 1    
   139   70   71 2    
   140   70   72 1    
   141   72   73 1    
   142   72   74 1    
   143   72  148 1    
   144   73  149 1    
   145   73  150 1    
   146   73  151 1    
   147   74   75 am   BACKBONE|DICT|INTERRES
   148   74  152 1    
   149   75   76 2    
   150   75   77 1    
   151   77   78 1    
   152   77   79 1    
   153   77  153 1    
   154   78  154 1    
   155   78  155 1    
   156   78  156 1    
   157   79   80 am   BACKBONE|DICT|INTERRES
   158   79  157 1    
   159   80   81 2    
@<TRIPOS>SUBSTRUCTURE
     1 UNK         1 GROUP             0       ****    0 ROOT    
