@<TRIPOS>MOLECULE
3R207
157   159    1
SMALL
USER_CHARGES


@<TRIPOS>ATOM
      1 CA        -53.4012  -30.7704    3.9189 C.3       0 UNK        -0.1975 
      2 C         -52.3427  -30.7071    5.0102 C.2       0 UNK         0.4852 
      3 O         -52.1925  -31.6706    5.7586 O.2       0 UNK        -0.5216 
      4 N         -51.6235  -29.5823    5.0886 N.am      1 UNK        -0.4461 
      5 CA        -50.6152  -29.1983    6.0789 C.3       1 UNK         0.0864 
      6 C6        -49.4078  -30.1818    6.1909 C.3       14 UNK        -0.0898 
      7 S7        -48.3460  -29.9033    7.6588 S.3       14 UNK        -0.2598 
      8 C8        -48.9886  -31.1052    8.8676 C.3       14 UNK         0.0286 
      9 C9        -50.2866  -30.6285    9.5025 C.ar      14 UNK        -0.0844 
     10 C10       -50.2623  -29.7599   10.5994 C.ar      14 UNK        -0.0881 
     11 C11       -51.4568  -29.3190   11.1791 C.ar      14 UNK        -0.0643 
     12 C12       -52.6765  -29.7474   10.6507 C.ar      14 UNK        -0.0930 
     13 C13       -52.7130  -30.6010    9.5455 C.ar      14 UNK        -0.0827 
     14 C14       -51.5146  -31.0565    8.9917 C.ar      14 UNK        -0.1249 
     15 C15       -54.0498  -31.0012    8.9428 C.3       14 UNK         0.0141 
     16 S16       -54.8021  -29.5774    8.0938 S.3       14 UNK        -0.2313 
     17 C17       -56.5903  -29.8265    8.3879 C.3       14 UNK        -0.0915 
     18 CA        -57.1103  -29.3934    9.7957 C.3       13 UNK         0.0968 
     19 C         -57.1783  -30.5898   10.7929 C.2       13 UNK         0.5732 
     20 N         -56.4948  -30.5725   11.9307 N.am      13 UNK        -0.7310 
     21 O         -57.8808  -31.5622   10.5266 O.2       13 UNK        -0.5035 
     22 N         -56.4234  -28.1918   10.2936 N.am      13 UNK        -0.4233 
     23 C         -56.8513  -27.3949   11.2777 C.2       13 UNK         0.4989 
     24 O         -57.9534  -27.4892   11.8224 O.2       13 UNK        -0.4996 
     25 CA        -55.8596  -26.3130   11.7417 C.3       12 UNK         0.0216 
     26 CB        -56.4089  -24.9047   11.4620 C.3       12 UNK        -0.1964 
     27 N         -55.5181  -26.4277   13.1629 N.am      12 UNK        -0.4276 
     28 C         -55.0442  -27.5226   13.7729 C.2       12 UNK         0.5020 
     29 O         -54.8628  -28.6007   13.2041 O.2       12 UNK        -0.5489 
     30 CA        -54.6715  -27.3679   15.2583 C.3       11 UNK         0.0294 
     31 CB        -54.2744  -28.7058   15.9105 C.3       11 UNK        -0.2019 
     32 N         -53.5663  -26.4229   15.4221 N.am      11 UNK        -0.4493 
     33 C         -53.6764  -25.0885   15.4542 C.2       11 UNK         0.4932 
     34 O         -54.7538  -24.5020   15.3346 O.2       11 UNK        -0.5029 
     35 CA        -52.3750  -24.2726   15.6030 C.3       10 UNK         0.0280 
     36 CB        -52.5640  -22.9999   16.4538 C.3       10 UNK        -0.1976 
     37 N         -51.2217  -25.0567   16.0651 N.am      10 UNK        -0.4242 
     38 C         -51.0322  -25.6443   17.2575 C.2       10 UNK         0.5072 
     39 O         -51.8287  -25.5809   18.1939 O.2       10 UNK        -0.5224 
     40 CA        -49.7433  -26.4659   17.4276 C.3       9 UNK         0.0343 
     41 CB        -49.9587  -27.8959   16.9026 C.3       9 UNK        -0.2003 
     42 N         -48.6168  -25.8598   16.7134 N.am      9 UNK        -0.4272 
     43 C         -47.5432  -25.2972   17.2857 C.2       9 UNK         0.4988 
     44 O         -47.3413  -25.2799   18.5007 O.2       9 UNK        -0.5108 
     45 CA        -46.5116  -24.6342   16.3486 C.3       8 UNK         0.0248 
     46 CB        -45.4032  -25.6328   15.9788 C.3       8 UNK        -0.2001 
     47 N         -47.0998  -24.0944   15.1194 N.am      8 UNK        -0.4140 
     48 C         -47.9841  -23.0870   15.0752 C.2       8 UNK         0.5028 
     49 O         -48.2955  -22.4138   16.0584 O.2       8 UNK        -0.5428 
     50 CA        -48.6672  -22.7857   13.7254 C.3       7 UNK         0.0264 
     51 CB        -48.0415  -21.5326   13.0898 C.3       7 UNK        -0.1988 
     52 N         -48.6743  -23.8758   12.7364 N.am      7 UNK        -0.4454 
     53 C         -49.0918  -25.1360   12.9379 C.2       7 UNK         0.5027 
     54 O         -49.4766  -25.5559   14.0290 O.2       7 UNK        -0.5083 
     55 CA        -49.0240  -26.1235   11.7556 C.3       6 UNK         0.0844 
     56 C56       -50.3420  -26.1780   10.9433 C.3       14 UNK        -0.0967 
     57 S57       -51.8181  -26.6618   11.9089 S.3       14 UNK        -0.2604 
     58 C58       -51.4443  -28.3836   12.3776 C.3       14 UNK         0.0134 
     59 N         -47.8679  -25.8989   10.8893 N.am      6 UNK        -0.4116 
     60 C         -46.5863  -26.0162   11.2667 C.2       5 UNK         0.5034 
     61 O         -46.2246  -26.3029   12.4086 O.2       5 UNK        -0.5045 
     62 CA        -45.5331  -25.7447   10.1843 C.3       5 UNK         0.0224 
     63 CB        -45.4188  -26.9376    9.2200 C.3       5 UNK        -0.1978 
     64 N         -45.8520  -24.5266    9.4378 N.am      5 UNK        -0.4737 
     65 C         -45.6175  -23.2879    9.8933 C.2       4 UNK         0.5027 
     66 O         -45.0218  -23.0462   10.9429 O.2       4 UNK        -0.5211 
     67 CA        -46.1459  -22.1180    9.0443 C.3       4 UNK         0.0297 
     68 CB        -45.0734  -21.6516    8.0470 C.3       4 UNK        -0.1993 
     69 N         -47.3813  -22.4302    8.3195 N.am      4 UNK        -0.4486 
     70 C         -48.5599  -22.6948    8.9011 C.2       3 UNK         0.4961 
     71 O         -48.7383  -22.7148   10.1171 O.2       3 UNK        -0.5105 
     72 CA        -49.7248  -23.0555    7.9658 C.3       3 UNK         0.0299 
     73 CB        -50.3740  -21.7860    7.3925 C.3       3 UNK        -0.1972 
     74 N         -49.3366  -23.9535    6.8731 N.am      3 UNK        -0.4305 
     75 C         -48.8176  -25.1761    7.0456 C.2       2 UNK         0.5006 
     76 O         -48.5542  -25.6643    8.1472 O.2       2 UNK        -0.5106 
     77 CA        -48.4982  -25.9780    5.7802 C.3       2 UNK         0.0296 
     78 CB        -46.9827  -25.9993    5.5228 C.3       2 UNK        -0.2002 
     79 N         -48.9814  -27.3458    5.9467 N.am      2 UNK        -0.4032 
     80 C         -50.2411  -27.7399    5.7295 C.2       1 UNK         0.5000 
     81 O         -51.1038  -26.9979    5.2474 O.2       1 UNK        -0.5238 
     82 H82       -53.4165  -29.8663    3.3104 H         1 UNK         0.0889 
     83 H83       -54.3879  -30.8962    4.3641 H         1 UNK         0.0889 
     84 H84       -53.2124  -31.6187    3.2616 H         1 UNK         0.0889 
     85 H85       -51.8377  -28.8148    4.4616 H         1 UNK         0.3028 
     86 H86       -51.1239  -29.1575    7.0428 H         1 UNK         0.0864 
     87 H87       -48.7883  -30.1276    5.2940 H         1 UNK         0.0720 
     88 H88       -49.7535  -31.2136    6.2344 H         1 UNK         0.0720 
     89 H89       -48.2379  -31.2534    9.6452 H         1 UNK         0.0814 
     90 H90       -49.1235  -32.0775    8.3911 H         1 UNK         0.0814 
     91 H91       -49.3141  -29.4249   10.9969 H         1 UNK         0.1469 
     92 H92       -53.6005  -29.3966   11.0884 H         1 UNK         0.1381 
     93 H93       -51.5340  -31.7273    8.1456 H         1 UNK         0.1206 
     94 H94       -53.9308  -31.8188    8.2301 H         1 UNK         0.0813 
     95 H95       -54.6976  -31.3731    9.7349 H         1 UNK         0.0813 
     96 H96       -56.8527  -30.8590    8.1494 H         1 UNK         0.0638 
     97 H97       -57.1035  -29.2266    7.6350 H         1 UNK         0.0638 
     98 H98       -58.1550  -29.1067    9.6612 H         1 UNK         0.0568 
     99 H99       -56.5681  -31.3623   12.5504 H         1 UNK         0.3450 
    100 H100      -55.9226  -29.7778   12.2063 H         1 UNK         0.3450 
    101 H101      -55.5016  -28.0462    9.9081 H         1 UNK         0.2987 
    102 H102      -54.9280  -26.4283   11.1836 H         1 UNK         0.0766 
    103 H103      -56.6540  -24.7837   10.4060 H         1 UNK         0.0798 
    104 H104      -55.6783  -24.1357   11.7143 H         1 UNK         0.0798 
    105 H105      -57.3172  -24.7059   12.0327 H         1 UNK         0.0798 
    106 H106      -55.5988  -25.5872   13.7241 H         1 UNK         0.3198 
    107 H107      -55.5520  -26.9890   15.7819 H         1 UNK         0.0843 
    108 H108      -54.0608  -28.5819   16.9723 H         1 UNK         0.0831 
    109 H109      -53.3926  -29.1416   15.4389 H         1 UNK         0.0831 
    110 H110      -55.0818  -29.4344   15.8256 H         1 UNK         0.0831 
    111 H111      -52.6397  -26.8181   15.4704 H         1 UNK         0.3133 
    112 H112      -52.1169  -23.9510   14.5929 H         1 UNK         0.0566 
    113 H113      -51.6361  -22.4323   16.5280 H         1 UNK         0.0814 
    114 H114      -52.8974  -23.2337   17.4652 H         1 UNK         0.0814 
    115 H115      -53.3115  -22.3403   16.0116 H         1 UNK         0.0814 
    116 H116      -50.5212  -25.2257   15.3427 H         1 UNK         0.3091 
    117 H117      -49.5302  -26.5241   18.4970 H         1 UNK         0.0702 
    118 H118      -49.0815  -28.5171   17.0844 H         1 UNK         0.0785 
    119 H119      -50.1597  -27.9097   15.8304 H         1 UNK         0.0785 
    120 H120      -50.8027  -28.3742   17.4019 H         1 UNK         0.0785 
    121 H121      -48.7067  -25.8028   15.7026 H         1 UNK         0.2998 
    122 H122      -46.0577  -23.8041   16.8940 H         1 UNK         0.0697 
    123 H123      -45.7933  -26.4740   15.4038 H         1 UNK         0.0825 
    124 H124      -44.9291  -26.0397   16.8731 H         1 UNK         0.0825 
    125 H125      -44.6213  -25.1571   15.3864 H         1 UNK         0.0825 
    126 H126      -46.8976  -24.5902   14.2613 H         1 UNK         0.3029 
    127 H127      -49.7115  -22.5639   13.9540 H         1 UNK         0.0897 
    128 H128      -47.0330  -21.7290   12.7232 H         1 UNK         0.0792 
    129 H129      -47.9758  -20.7140   13.8082 H         1 UNK         0.0792 
    130 H130      -48.6392  -21.1713   12.2533 H         1 UNK         0.0792 
    131 H131      -48.4443  -23.6012   11.7837 H         1 UNK         0.3086 
    132 H132      -48.8616  -27.1092   12.1920 H         1 UNK         0.0583 
    133 H133      -50.5399  -25.2065   10.4872 H         1 UNK         0.1020 
    134 H134      -50.2390  -26.8750   10.1097 H         1 UNK         0.1020 
    135 H135      -50.4942  -28.4377   12.9083 H         1 UNK         0.0694 
    136 H136      -52.1945  -28.7166   13.0950 H         1 UNK         0.0694 
    137 H137      -48.0713  -25.6918    9.9135 H         1 UNK         0.2989 
    138 H138      -44.5678  -25.6146   10.6796 H         1 UNK         0.1055 
    139 H139      -45.1259  -27.8414    9.7560 H         1 UNK         0.0806 
    140 H140      -46.3630  -27.1535    8.7189 H         1 UNK         0.0806 
    141 H141      -44.6647  -26.7582    8.4536 H         1 UNK         0.0806 
    142 H142      -46.3867  -24.6355    8.5878 H         1 UNK         0.3061 
    143 H143      -46.3613  -21.2922    9.7262 H         1 UNK         0.0734 
    144 H144      -44.8297  -22.4284    7.3211 H         1 UNK         0.0832 
    145 H145      -45.3975  -20.7668    7.4987 H         1 UNK         0.0832 
    146 H146      -44.1494  -21.3886    8.5641 H         1 UNK         0.0832 
    147 H147      -47.3308  -22.4449    7.3113 H         1 UNK         0.3156 
    148 H148      -50.4752  -23.5764    8.5640 H         1 UNK         0.0589 
    149 H149      -51.2653  -22.0235    6.8114 H         1 UNK         0.0808 
    150 H150      -50.6827  -21.1114    8.1926 H         1 UNK         0.0808 
    151 H151      -49.6892  -21.2339    6.7475 H         1 UNK         0.0808 
    152 H152      -49.5164  -23.6291    5.9333 H         1 UNK         0.3098 
    153 H153      -48.9902  -25.5190    4.9199 H         1 UNK         0.0720 
    154 H154      -46.4357  -26.4591    6.3463 H         1 UNK         0.0791 
    155 H155      -46.5924  -24.9888    5.3947 H         1 UNK         0.0791 
    156 H156      -46.7451  -26.5545    4.6152 H         1 UNK         0.0791 
    157 H157      -48.3593  -27.9974    6.4086 H         1 UNK         0.3028 
@<TRIPOS>BOND
     1    1    2 1    
     2    1   82 1    
     3    1   83 1    
     4    1   84 1    
     5    2    3 2    
     6    2    4 am   BACKBONE|DICT|INTERRES
     7    4    5 1    
     8    4   85 1    
     9    5    6 1    
    10    5   80 1    
    11    5   86 1    
    12    6    7 1    
    13    6   87 1    
    14    6   88 1    
    15    7    8 1    
    16    8    9 1    
    17    8   89 1    
    18    8   90 1    
    19    9   10 ar   
    20    9   14 ar   
    21   10   11 ar   
    22   10   91 1    
    23   11   12 ar   
    24   11   58 1    
    25   12   13 ar   
    26   12   92 1    
    27   13   14 ar   
    28   13   15 1    
    29   14   93 1    
    30   15   16 1    
    31   15   94 1    
    32   15   95 1    
    33   16   17 1    
    34   17   18 1    
    35   17   96 1    
    36   17   97 1    
    37   18   19 1    
    38   18   22 1    
    39   18   98 1    
    40   19   20 am   BACKBONE|DICT|INTERRES
    41   19   21 2    
    42   20   99 1    
    43   20  100 1    
    44   22   23 am   BACKBONE|DICT|INTERRES
    45   22  101 1    
    46   23   24 2    
    47   23   25 1    
    48   25   26 1    
    49   25   27 1    
    50   25  102 1    
    51   26  103 1    
    52   26  104 1    
    53   26  105 1    
    54   27   28 am   BACKBONE|DICT|INTERRES
    55   27  106 1    
    56   28   29 2    
    57   28   30 1    
    58   30   31 1    
    59   30   32 1    
    60   30  107 1    
    61   31  108 1    
    62   31  109 1    
    63   31  110 1    
    64   32   33 am   BACKBONE|DICT|INTERRES
    65   32  111 1    
    66   33   34 2    
    67   33   35 1    
    68   35   36 1    
    69   35   37 1    
    70   35  112 1    
    71   36  113 1    
    72   36  114 1    
    73   36  115 1    
    74   37   38 am   BACKBONE|DICT|INTERRES
    75   37  116 1    
    76   38   39 2    
    77   38   40 1    
    78   40   41 1    
    79   40   42 1    
    80   40  117 1    
    81   41  118 1    
    82   41  119 1    
    83   41  120 1    
    84   42   43 am   BACKBONE|DICT|INTERRES
    85   42  121 1    
    86   43   44 2    
    87   43   45 1    
    88   45   46 1    
    89   45   47 1    
    90   45  122 1    
    91   46  123 1    
    92   46  124 1    
    93   46  125 1    
    94   47   48 am   BACKBONE|DICT|INTERRES
    95   47  126 1    
    96   48   49 2    
    97   48   50 1    
    98   50   51 1    
    99   50   52 1    
   100   50  127 1    
   101   51  128 1    
   102   51  129 1    
   103   51  130 1    
   104   52   53 am   BACKBONE|DICT|INTERRES
   105   52  131 1    
   106   53   54 2    
   107   53   55 1    
   108   55   56 1    
   109   55   59 1    
   110   55  132 1    
   111   56   57 1    
   112   56  133 1    
   113   56  134 1    
   114   57   58 1    
   115   58  135 1    
   116   58  136 1    
   117   59   60 am   BACKBONE|DICT|INTERRES
   118   59  137 1    
   119   60   61 2    
   120   60   62 1    
   121   62   63 1    
   122   62   64 1    
   123   62  138 1    
   124   63  139 1    
   125   63  140 1    
   126   63  141 1    
   127   64   65 am   BACKBONE|DICT|INTERRES
   128   64  142 1    
   129   65   66 2    
   130   65   67 1    
   131   67   68 1    
   132   67   69 1    
   133   67  143 1    
   134   68  144 1    
   135   68  145 1    
   136   68  146 1    
   137   69   70 am   BACKBONE|DICT|INTERRES
   138   69  147 1    
   139   70   71 2    
   140   70   72 1    
   141   72   73 1    
   142   72   74 1    
   143   72  148 1    
   144   73  149 1    
   145   73  150 1    
   146   73  151 1    
   147   74   75 am   BACKBONE|DICT|INTERRES
   148   74  152 1    
   149   75   76 2    
   150   75   77 1    
   151   77   78 1    
   152   77   79 1    
   153   77  153 1    
   154   78  154 1    
   155   78  155 1    
   156   78  156 1    
   157   79   80 am   BACKBONE|DICT|INTERRES
   158   79  157 1    
   159   80   81 2    
@<TRIPOS>SUBSTRUCTURE
     1 UNK         1 GROUP             0       ****    0 ROOT    
