@<TRIPOS>MOLECULE
3R207
157   159    1
SMALL
USER_CHARGES


@<TRIPOS>ATOM
      1 CA        -45.2729  -26.4905   11.5268 C.3       0 UNK        -0.1975 
      2 C         -45.3632  -27.3493   10.2726 C.2       0 UNK         0.4852 
      3 O         -44.3584  -27.9395    9.8724 O.2       0 UNK        -0.5216 
      4 N         -46.5504  -27.4339    9.6556 N.am      1 UNK        -0.4461 
      5 CA        -46.7715  -28.1424    8.3920 C.3       1 UNK         0.0864 
      6 C6        -48.2321  -28.6592    8.2576 C.3       14 UNK        -0.0898 
      7 S7        -49.4760  -27.4059    7.7995 S.3       14 UNK        -0.2598 
      8 C8        -51.0139  -28.3743    7.7909 C.3       14 UNK         0.0286 
      9 C9        -51.8283  -28.1048    9.0447 C.ar      14 UNK        -0.0844 
     10 C10       -52.6297  -26.9615    9.1193 C.ar      14 UNK        -0.0881 
     11 C11       -53.3607  -26.6835   10.2764 C.ar      14 UNK        -0.0643 
     12 C12       -53.2888  -27.5629   11.3589 C.ar      14 UNK        -0.0930 
     13 C13       -52.5227  -28.7320   11.2858 C.ar      14 UNK        -0.0827 
     14 C14       -51.7833  -28.9886   10.1269 C.ar      14 UNK        -0.1249 
     15 C15       -52.4564  -29.7141   12.4529 C.3       14 UNK         0.0141 
     16 S16       -54.0188  -29.8828   13.3852 S.3       14 UNK        -0.2313 
     17 C17       -55.1358  -30.6703   12.1759 C.3       14 UNK        -0.0915 
     18 CA        -56.0717  -29.6758   11.4329 C.3       13 UNK         0.0968 
     19 C         -57.0463  -30.4415   10.4907 C.2       13 UNK         0.5732 
     20 N         -58.3558  -30.3994   10.7078 N.am      13 UNK        -0.7310 
     21 O         -56.6050  -31.0852    9.5418 O.2       13 UNK        -0.5035 
     22 N         -56.7132  -28.7149   12.3499 N.am      13 UNK        -0.4233 
     23 C         -57.2643  -27.5532   11.9732 C.2       13 UNK         0.4989 
     24 O         -57.3234  -27.1694   10.8047 O.2       13 UNK        -0.4996 
     25 CA        -57.8604  -26.6601   13.0780 C.3       12 UNK         0.0216 
     26 CB        -59.3711  -26.9143   13.2123 C.3       12 UNK        -0.1964 
     27 N         -57.2261  -26.8062   14.3941 N.am      12 UNK        -0.4276 
     28 C         -55.9714  -26.4332   14.6797 C.2       12 UNK         0.5020 
     29 O         -55.1953  -25.9540   13.8501 O.2       12 UNK        -0.5489 
     30 CA        -55.5118  -26.6084   16.1351 C.3       11 UNK         0.0294 
     31 CB        -55.5950  -28.0745   16.6020 C.3       11 UNK        -0.2019 
     32 N         -54.1298  -26.1524   16.2432 N.am      11 UNK        -0.4493 
     33 C         -53.5745  -25.5307   17.2881 C.2       11 UNK         0.4932 
     34 O         -54.1801  -25.2436   18.3224 O.2       11 UNK        -0.5029 
     35 CA        -52.0738  -25.2111   17.1390 C.3       10 UNK         0.0280 
     36 CB        -51.4508  -24.5552   18.3900 C.3       10 UNK        -0.1976 
     37 N         -51.3182  -26.3986   16.7168 N.am      10 UNK        -0.4242 
     38 C         -51.1929  -27.5547   17.3928 C.2       10 UNK         0.5072 
     39 O         -51.6008  -27.7231   18.5427 O.2       10 UNK        -0.5224 
     40 CA        -50.5289  -28.7467   16.6843 C.3       9 UNK         0.0343 
     41 CB        -51.5958  -29.7577   16.2364 C.3       9 UNK        -0.2003 
     42 N         -49.7008  -28.3602   15.5382 N.am      9 UNK        -0.4272 
     43 C         -48.5320  -28.9397   15.2254 C.2       9 UNK         0.4988 
     44 O         -48.0687  -29.9175   15.8143 O.2       9 UNK        -0.5108 
     45 CA        -47.7258  -28.3208   14.0661 C.3       8 UNK         0.0248 
     46 CB        -48.1106  -29.0024   12.7419 C.3       8 UNK        -0.2001 
     47 N         -47.9079  -26.8730   13.9313 N.am      8 UNK        -0.4140 
     48 C         -47.6914  -25.9591   14.8908 C.2       8 UNK         0.5028 
     49 O         -47.1237  -26.2096   15.9543 O.2       8 UNK        -0.5428 
     50 CA        -48.2339  -24.5328   14.6561 C.3       7 UNK         0.0264 
     51 CB        -47.0714  -23.5367   14.5079 C.3       7 UNK        -0.1988 
     52 N         -49.1277  -24.3804   13.5011 N.am      7 UNK        -0.4454 
     53 C         -50.2667  -25.0463   13.2520 C.2       7 UNK         0.5027 
     54 O         -50.7506  -25.8710   14.0320 O.2       7 UNK        -0.5083 
     55 CA        -50.9442  -24.8031   11.8843 C.3       6 UNK         0.0844 
     56 C56       -52.3446  -24.1661   12.0687 C.3       14 UNK        -0.0967 
     57 S57       -53.2184  -23.9154   10.4841 S.3       14 UNK        -0.2604 
     58 C58       -54.2210  -25.4310   10.3624 C.3       14 UNK         0.0134 
     59 N         -50.1091  -24.0613   10.9257 N.am      6 UNK        -0.4116 
     60 C         -48.9741  -24.5169   10.3793 C.2       5 UNK         0.5034 
     61 O         -48.4770  -25.6104   10.6552 O.2       5 UNK        -0.5045 
     62 CA        -48.2659  -23.5857    9.3827 C.3       5 UNK         0.0224 
     63 CB        -46.7419  -23.5737    9.5904 C.3       5 UNK        -0.1978 
     64 N         -48.5779  -23.9917    8.0125 N.am      5 UNK        -0.4737 
     65 C         -49.7105  -23.6447    7.3843 C.2       4 UNK         0.5027 
     66 O         -50.5427  -22.8835    7.8820 O.2       4 UNK        -0.5211 
     67 CA        -49.9682  -24.2397    5.9831 C.3       4 UNK         0.0297 
     68 CB        -51.0610  -23.4748    5.2054 C.3       4 UNK        -0.1993 
     69 N         -48.7663  -24.3923    5.1544 N.am      4 UNK        -0.4486 
     70 C         -47.9236  -23.4336    4.7465 C.2       3 UNK         0.4961 
     71 O         -48.0052  -22.2540    5.0938 O.2       3 UNK        -0.5105 
     72 CA        -46.8168  -23.8696    3.7606 C.3       3 UNK         0.0299 
     73 CB        -45.8619  -22.7178    3.3932 C.3       3 UNK        -0.1972 
     74 N         -46.0222  -24.9983    4.2515 N.am      3 UNK        -0.4305 
     75 C         -46.4017  -26.2829    4.2778 C.2       2 UNK         0.5006 
     76 O         -47.5017  -26.6750    3.8837 O.2       2 UNK        -0.5106 
     77 CA        -45.4079  -27.3067    4.8640 C.3       2 UNK         0.0296 
     78 CB        -43.9818  -26.7497    5.0852 C.3       2 UNK        -0.2002 
     79 N         -45.9127  -27.9153    6.1013 N.am      2 UNK        -0.4032 
     80 C         -46.3093  -27.2650    7.2065 C.2       1 UNK         0.5000 
     81 O         -46.3338  -26.0336    7.3078 O.2       1 UNK        -0.5238 
     82 H82       -44.4916  -25.7400   11.4109 H         1 UNK         0.0889 
     83 H83       -45.0265  -27.1102   12.3885 H         1 UNK         0.0889 
     84 H84       -46.2047  -25.9721   11.7409 H         1 UNK         0.0889 
     85 H85       -47.3298  -26.8629    9.9806 H         1 UNK         0.3028 
     86 H86       -46.1316  -29.0277    8.4019 H         1 UNK         0.0864 
     87 H87       -48.5457  -29.1353    9.1883 H         1 UNK         0.0720 
     88 H88       -48.2665  -29.4433    7.4994 H         1 UNK         0.0720 
     89 H89       -50.7954  -29.4383    7.6890 H         1 UNK         0.0814 
     90 H90       -51.5971  -28.0993    6.9109 H         1 UNK         0.0814 
     91 H91       -52.6669  -26.2735    8.2857 H         1 UNK         0.1469 
     92 H92       -53.8458  -27.3416   12.2569 H         1 UNK         0.1381 
     93 H93       -51.1671  -29.8753   10.0667 H         1 UNK         0.1206 
     94 H94       -52.1514  -30.7023   12.1053 H         1 UNK         0.0813 
     95 H95       -51.6786  -29.3748   13.1378 H         1 UNK         0.0813 
     96 H96       -54.5365  -31.2365   11.4604 H         1 UNK         0.0638 
     97 H97       -55.7296  -31.4060   12.7211 H         1 UNK         0.0638 
     98 H98       -55.4445  -29.0902   10.7604 H         1 UNK         0.0568 
     99 H99       -58.7291  -29.8742   11.4812 H         1 UNK         0.3450 
    100 H100      -58.9747  -30.8976   10.0880 H         1 UNK         0.3450 
    101 H101      -56.6955  -28.9553   13.3289 H         1 UNK         0.2987 
    102 H102      -57.7195  -25.6247   12.7594 H         1 UNK         0.0766 
    103 H103      -59.8752  -26.7898   12.2526 H         1 UNK         0.0798 
    104 H104      -59.8315  -26.2132   13.9088 H         1 UNK         0.0798 
    105 H105      -59.5829  -27.9252   13.5628 H         1 UNK         0.0798 
    106 H106      -57.8020  -27.1801   15.1349 H         1 UNK         0.3198 
    107 H107      -56.1550  -25.9866   16.7615 H         1 UNK         0.0843 
    108 H108      -54.9914  -28.7312   15.9754 H         1 UNK         0.0831 
    109 H109      -56.6189  -28.4479   16.5808 H         1 UNK         0.0831 
    110 H110      -55.2390  -28.1806   17.6271 H         1 UNK         0.0831 
    111 H111      -53.5961  -26.2580   15.3893 H         1 UNK         0.3133 
    112 H112      -51.9925  -24.4928   16.3216 H         1 UNK         0.0566 
    113 H113      -50.3934  -24.3387   18.2385 H         1 UNK         0.0814 
    114 H114      -51.5408  -25.1883   19.2730 H         1 UNK         0.0814 
    115 H115      -51.9461  -23.6111   18.6192 H         1 UNK         0.0814 
    116 H116      -50.9966  -26.3500   15.7539 H         1 UNK         0.3091 
    117 H117      -49.8972  -29.2270   17.4348 H         1 UNK         0.0702 
    118 H118      -51.1550  -30.6100   15.7192 H         1 UNK         0.0785 
    119 H119      -52.3179  -29.2896   15.5702 H         1 UNK         0.0785 
    120 H120      -52.1503  -30.1457   17.0918 H         1 UNK         0.0785 
    121 H121      -50.0103  -27.5743   14.9793 H         1 UNK         0.2998 
    122 H122      -46.6677  -28.5056   14.2613 H         1 UNK         0.0697 
    123 H123      -49.1422  -28.7881   12.4586 H         1 UNK         0.0825 
    124 H124      -48.0109  -30.0863   12.8153 H         1 UNK         0.0825 
    125 H125      -47.4676  -28.6791   11.9265 H         1 UNK         0.0825 
    126 H126      -48.3551  -26.5568   13.0819 H         1 UNK         0.3029 
    127 H127      -48.8072  -24.2655   15.5464 H         1 UNK         0.0897 
    128 H128      -46.4756  -23.7423   13.6174 H         1 UNK         0.0792 
    129 H129      -46.4001  -23.5861   15.3667 H         1 UNK         0.0792 
    130 H130      -47.4318  -22.5098   14.4435 H         1 UNK         0.0792 
    131 H131      -48.8202  -23.7291   12.7944 H         1 UNK         0.3086 
    132 H132      -51.0807  -25.7972   11.4578 H         1 UNK         0.0583 
    133 H133      -52.9668  -24.7834   12.7205 H         1 UNK         0.1020 
    134 H134      -52.2610  -23.1971   12.5642 H         1 UNK         0.1020 
    135 H135      -54.9010  -25.4822   11.2137 H         1 UNK         0.0694 
    136 H136      -54.8519  -25.3685    9.4747 H         1 UNK         0.0694 
    137 H137      -50.4907  -23.1863   10.5937 H         1 UNK         0.2989 
    138 H138      -48.6184  -22.5645    9.5459 H         1 UNK         0.1055 
    139 H139      -46.2984  -24.5545    9.4290 H         1 UNK         0.0806 
    140 H140      -46.2567  -22.8761    8.9076 H         1 UNK         0.0806 
    141 H141      -46.4879  -23.2659   10.6054 H         1 UNK         0.0806 
    142 H142      -47.9458  -24.6586    7.5797 H         1 UNK         0.3061 
    143 H143      -50.3489  -25.2467    6.1493 H         1 UNK         0.0734 
    144 H144      -50.7835  -22.4334    5.0392 H         1 UNK         0.0832 
    145 H145      -51.2520  -23.9313    4.2344 H         1 UNK         0.0832 
    146 H146      -52.0049  -23.4762    5.7522 H         1 UNK         0.0832 
    147 H147      -48.5711  -25.3335    4.8226 H         1 UNK         0.3156 
    148 H148      -47.3201  -24.1811    2.8428 H         1 UNK         0.0589 
    149 H149      -45.1251  -23.0322    2.6537 H         1 UNK         0.0808 
    150 H150      -46.4087  -21.8776    2.9627 H         1 UNK         0.0808 
    151 H151      -45.3249  -22.3447    4.2662 H         1 UNK         0.0808 
    152 H152      -45.1281  -24.7690    4.6606 H         1 UNK         0.3098 
    153 H153      -45.3360  -28.1099    4.1291 H         1 UNK         0.0720 
    154 H154      -43.5701  -26.3352    4.1638 H         1 UNK         0.0791 
    155 H155      -43.3029  -27.5400    5.4061 H         1 UNK         0.0791 
    156 H156      -43.9537  -25.9696    5.8471 H         1 UNK         0.0791 
    157 H157      -45.9752  -28.9237    6.0919 H         1 UNK         0.3028 
@<TRIPOS>BOND
     1    1    2 1    
     2    1   82 1    
     3    1   83 1    
     4    1   84 1    
     5    2    3 2    
     6    2    4 am   BACKBONE|DICT|INTERRES
     7    4    5 1    
     8    4   85 1    
     9    5    6 1    
    10    5   80 1    
    11    5   86 1    
    12    6    7 1    
    13    6   87 1    
    14    6   88 1    
    15    7    8 1    
    16    8    9 1    
    17    8   89 1    
    18    8   90 1    
    19    9   10 ar   
    20    9   14 ar   
    21   10   11 ar   
    22   10   91 1    
    23   11   12 ar   
    24   11   58 1    
    25   12   13 ar   
    26   12   92 1    
    27   13   14 ar   
    28   13   15 1    
    29   14   93 1    
    30   15   16 1    
    31   15   94 1    
    32   15   95 1    
    33   16   17 1    
    34   17   18 1    
    35   17   96 1    
    36   17   97 1    
    37   18   19 1    
    38   18   22 1    
    39   18   98 1    
    40   19   20 am   BACKBONE|DICT|INTERRES
    41   19   21 2    
    42   20   99 1    
    43   20  100 1    
    44   22   23 am   BACKBONE|DICT|INTERRES
    45   22  101 1    
    46   23   24 2    
    47   23   25 1    
    48   25   26 1    
    49   25   27 1    
    50   25  102 1    
    51   26  103 1    
    52   26  104 1    
    53   26  105 1    
    54   27   28 am   BACKBONE|DICT|INTERRES
    55   27  106 1    
    56   28   29 2    
    57   28   30 1    
    58   30   31 1    
    59   30   32 1    
    60   30  107 1    
    61   31  108 1    
    62   31  109 1    
    63   31  110 1    
    64   32   33 am   BACKBONE|DICT|INTERRES
    65   32  111 1    
    66   33   34 2    
    67   33   35 1    
    68   35   36 1    
    69   35   37 1    
    70   35  112 1    
    71   36  113 1    
    72   36  114 1    
    73   36  115 1    
    74   37   38 am   BACKBONE|DICT|INTERRES
    75   37  116 1    
    76   38   39 2    
    77   38   40 1    
    78   40   41 1    
    79   40   42 1    
    80   40  117 1    
    81   41  118 1    
    82   41  119 1    
    83   41  120 1    
    84   42   43 am   BACKBONE|DICT|INTERRES
    85   42  121 1    
    86   43   44 2    
    87   43   45 1    
    88   45   46 1    
    89   45   47 1    
    90   45  122 1    
    91   46  123 1    
    92   46  124 1    
    93   46  125 1    
    94   47   48 am   BACKBONE|DICT|INTERRES
    95   47  126 1    
    96   48   49 2    
    97   48   50 1    
    98   50   51 1    
    99   50   52 1    
   100   50  127 1    
   101   51  128 1    
   102   51  129 1    
   103   51  130 1    
   104   52   53 am   BACKBONE|DICT|INTERRES
   105   52  131 1    
   106   53   54 2    
   107   53   55 1    
   108   55   56 1    
   109   55   59 1    
   110   55  132 1    
   111   56   57 1    
   112   56  133 1    
   113   56  134 1    
   114   57   58 1    
   115   58  135 1    
   116   58  136 1    
   117   59   60 am   BACKBONE|DICT|INTERRES
   118   59  137 1    
   119   60   61 2    
   120   60   62 1    
   121   62   63 1    
   122   62   64 1    
   123   62  138 1    
   124   63  139 1    
   125   63  140 1    
   126   63  141 1    
   127   64   65 am   BACKBONE|DICT|INTERRES
   128   64  142 1    
   129   65   66 2    
   130   65   67 1    
   131   67   68 1    
   132   67   69 1    
   133   67  143 1    
   134   68  144 1    
   135   68  145 1    
   136   68  146 1    
   137   69   70 am   BACKBONE|DICT|INTERRES
   138   69  147 1    
   139   70   71 2    
   140   70   72 1    
   141   72   73 1    
   142   72   74 1    
   143   72  148 1    
   144   73  149 1    
   145   73  150 1    
   146   73  151 1    
   147   74   75 am   BACKBONE|DICT|INTERRES
   148   74  152 1    
   149   75   76 2    
   150   75   77 1    
   151   77   78 1    
   152   77   79 1    
   153   77  153 1    
   154   78  154 1    
   155   78  155 1    
   156   78  156 1    
   157   79   80 am   BACKBONE|DICT|INTERRES
   158   79  157 1    
   159   80   81 2    
@<TRIPOS>SUBSTRUCTURE
     1 UNK         1 GROUP             0       ****    0 ROOT    
