@<TRIPOS>MOLECULE
3R207
157   159    1
SMALL
USER_CHARGES


@<TRIPOS>ATOM
      1 CA        -49.6954  -31.7551    1.9076 C.3       0 UNK        -0.1975 
      2 C         -49.1753  -30.5932    2.7415 C.2       0 UNK         0.4852 
      3 O         -48.2482  -29.9019    2.3160 O.2       0 UNK        -0.5216 
      4 N         -49.7710  -30.3683    3.9193 N.am      1 UNK        -0.4461 
      5 CA        -49.3729  -29.3274    4.8729 C.3       1 UNK         0.0864 
      6 C6        -50.4767  -29.0516    5.9232 C.3       14 UNK        -0.0898 
      7 S7        -52.0340  -28.4483    5.1850 S.3       14 UNK        -0.2598 
      8 C8        -51.9606  -26.6603    5.5577 C.3       14 UNK         0.0286 
      9 C9        -52.5265  -26.2595    6.9224 C.ar      14 UNK        -0.0844 
     10 C10       -53.1977  -25.0374    7.0478 C.ar      14 UNK        -0.0881 
     11 C11       -53.6864  -24.6079    8.2866 C.ar      14 UNK        -0.0643 
     12 C12       -53.5261  -25.4281    9.4063 C.ar      14 UNK        -0.0930 
     13 C13       -52.8149  -26.6245    9.3102 C.ar      14 UNK        -0.0827 
     14 C14       -52.3375  -27.0441    8.0671 C.ar      14 UNK        -0.1249 
     15 C15       -52.4633  -27.4111   10.5612 C.3       14 UNK         0.0141 
     16 S16       -53.7555  -28.5864   11.0513 S.3       14 UNK        -0.2313 
     17 C17       -52.7460  -29.7030   12.0819 C.3       14 UNK        -0.0915 
     18 CA        -53.5853  -30.5407   13.0793 C.3       13 UNK         0.0968 
     19 C         -52.7524  -31.7116   13.6842 C.2       13 UNK         0.5732 
     20 N         -52.6462  -31.8683   14.9990 N.am      13 UNK        -0.7310 
     21 O         -52.1968  -32.5142   12.9378 O.2       13 UNK        -0.5035 
     22 N         -54.2414  -29.6907   14.0848 N.am      13 UNK        -0.4233 
     23 C         -55.3882  -30.0104   14.6991 C.2       13 UNK         0.4989 
     24 O         -56.0648  -30.9988   14.4070 O.2       13 UNK        -0.4996 
     25 CA        -55.8489  -29.0794   15.8390 C.3       12 UNK         0.0216 
     26 CB        -56.9103  -29.7293   16.7524 C.3       12 UNK        -0.1964 
     27 N         -54.7428  -28.5438   16.6431 N.am      12 UNK        -0.4276 
     28 C         -53.8071  -29.2379   17.3133 C.2       12 UNK         0.5020 
     29 O         -53.7610  -30.4685   17.3300 O.2       12 UNK        -0.5489 
     30 CA        -52.7168  -28.4447   18.0611 C.3       11 UNK         0.0294 
     31 CB        -51.3135  -28.9748   17.7133 C.3       11 UNK        -0.2019 
     32 N         -52.7680  -27.0165   17.7464 N.am      11 UNK        -0.4493 
     33 C         -53.3578  -26.0750   18.4967 C.2       11 UNK         0.4932 
     34 O         -53.8498  -26.2902   19.6041 O.2       11 UNK        -0.5029 
     35 CA        -53.4443  -24.6557   17.8996 C.3       10 UNK         0.0280 
     36 CB        -52.3130  -23.7729   18.4499 C.3       10 UNK        -0.1976 
     37 N         -53.3998  -24.6336   16.4339 N.am      10 UNK        -0.4242 
     38 C         -54.3185  -25.1849   15.6246 C.2       10 UNK         0.5072 
     39 O         -55.3567  -25.7065   16.0293 O.2       10 UNK        -0.5224 
     40 CA        -53.9867  -25.2414   14.1224 C.3       9 UNK         0.0343 
     41 CB        -54.6129  -24.0420   13.3954 C.3       9 UNK        -0.2003 
     42 N         -52.5412  -25.2955   13.8688 N.am      9 UNK        -0.4272 
     43 C         -51.7528  -26.3198   14.2393 C.2       9 UNK         0.4988 
     44 O         -52.1983  -27.3512   14.7461 O.2       9 UNK        -0.5108 
     45 CA        -50.2272  -26.1725   14.0704 C.3       8 UNK         0.0248 
     46 CB        -49.6478  -27.2658   13.1583 C.3       8 UNK        -0.2001 
     47 N         -49.8171  -24.8559   13.5743 N.am      8 UNK        -0.4140 
     48 C         -49.7173  -23.7545   14.3370 C.2       8 UNK         0.5028 
     49 O         -49.9327  -23.7471   15.5492 O.2       8 UNK        -0.5428 
     50 CA        -49.3819  -22.4288   13.6244 C.3       7 UNK         0.0264 
     51 CB        -47.8703  -22.1591   13.6617 C.3       7 UNK        -0.1988 
     52 N         -49.8721  -22.4013   12.2400 N.am      7 UNK        -0.4454 
     53 C         -51.1816  -22.3894   11.9376 C.2       7 UNK         0.5027 
     54 O         -52.0526  -22.2321   12.7922 O.2       7 UNK        -0.5083 
     55 CA        -51.6316  -22.6841   10.4910 C.3       6 UNK         0.0844 
     56 C56       -52.5580  -21.5789    9.9254 C.3       14 UNK        -0.0967 
     57 S57       -53.1450  -21.8840    8.2185 S.3       14 UNK        -0.2604 
     58 C58       -54.3512  -23.2425    8.4141 C.3       14 UNK         0.0134 
     59 N         -50.5545  -23.0635    9.5749 N.am      6 UNK        -0.4116 
     60 C         -49.8628  -24.2082    9.6361 C.2       5 UNK         0.5034 
     61 O         -50.0004  -25.0375   10.5388 O.2       5 UNK        -0.5045 
     62 CA        -48.8010  -24.4533    8.5447 C.3       5 UNK         0.0224 
     63 CB        -48.6669  -23.3103    7.5140 C.3       5 UNK        -0.1978 
     64 N         -47.4867  -24.7627    9.1190 N.am      5 UNK        -0.4737 
     65 C         -46.8374  -24.0817   10.0769 C.2       4 UNK         0.5027 
     66 O         -47.2517  -23.0368   10.5806 O.2       4 UNK        -0.5211 
     67 CA        -45.5088  -24.6795   10.5739 C.3       4 UNK         0.0297 
     68 CB        -45.7621  -25.5868   11.7900 C.3       4 UNK        -0.1993 
     69 N         -44.8029  -25.4450    9.5425 N.am      4 UNK        -0.4486 
     70 C         -44.1793  -24.9036    8.4863 C.2       3 UNK         0.4961 
     71 O         -44.0579  -23.6911    8.3090 O.2       3 UNK        -0.5105 
     72 CA        -43.5989  -25.8774    7.4421 C.3       3 UNK         0.0299 
     73 CB        -42.1148  -26.1529    7.7337 C.3       3 UNK        -0.1972 
     74 N         -44.3185  -27.1540    7.3349 N.am      3 UNK        -0.4305 
     75 C         -45.6000  -27.2815    6.9651 C.2       2 UNK         0.5006 
     76 O         -46.3442  -26.3290    6.7152 O.2       2 UNK        -0.5106 
     77 CA        -46.1610  -28.7059    6.9025 C.3       2 UNK         0.0296 
     78 CB        -46.4462  -29.2427    8.3199 C.3       2 UNK        -0.2002 
     79 N         -47.3938  -28.6526    6.1248 N.am      2 UNK        -0.4032 
     80 C         -48.0508  -29.6838    5.5861 C.2       1 UNK         0.5000 
     81 O         -47.6819  -30.8589    5.6763 O.2       1 UNK        -0.5238 
     82 H82       -48.9004  -32.4812    1.7396 H         1 UNK         0.0889 
     83 H83       -50.0408  -31.3965    0.9383 H         1 UNK         0.0889 
     84 H84       -50.5251  -32.2673    2.3946 H         1 UNK         0.0889 
     85 H85       -50.5198  -30.9734    4.2236 H         1 UNK         0.3028 
     86 H86       -49.2029  -28.4077    4.3079 H         1 UNK         0.0864 
     87 H87       -50.1237  -28.3167    6.6481 H         1 UNK         0.0720 
     88 H88       -50.6990  -29.9555    6.4939 H         1 UNK         0.0720 
     89 H89       -50.9311  -26.3083    5.4793 H         1 UNK         0.0814 
     90 H90       -52.5144  -26.1464    4.7704 H         1 UNK         0.0814 
     91 H91       -53.3204  -24.3989    6.1833 H         1 UNK         0.1469 
     92 H92       -53.9002  -25.1105   10.3681 H         1 UNK         0.1381 
     93 H93       -51.7982  -27.9762    8.0127 H         1 UNK         0.1206 
     94 H94       -51.5271  -27.9471   10.3973 H         1 UNK         0.0813 
     95 H95       -52.2779  -26.7214   11.3836 H         1 UNK         0.0813 
     96 H96       -52.1944  -30.3493   11.3966 H         1 UNK         0.0638 
     97 H97       -51.9979  -29.1226   12.6226 H         1 UNK         0.0638 
     98 H98       -54.3656  -31.0307   12.4940 H         1 UNK         0.0568 
     99 H99       -53.1207  -31.2551   15.6539 H         1 UNK         0.3450 
    100 H100      -52.1050  -32.6410   15.3512 H         1 UNK         0.3450 
    101 H101      -53.7160  -28.8806   14.3918 H         1 UNK         0.2987 
    102 H102      -56.3154  -28.2217   15.3523 H         1 UNK         0.0766 
    103 H103      -57.2381  -29.0404   17.5309 H         1 UNK         0.0798 
    104 H104      -57.7956  -30.0168   16.1838 H         1 UNK         0.0798 
    105 H105      -56.5288  -30.6280   17.2383 H         1 UNK         0.0798 
    106 H106      -54.7033  -27.5307   16.6775 H         1 UNK         0.3198 
    107 H107      -52.8830  -28.5993   19.1292 H         1 UNK         0.0843 
    108 H108      -51.1113  -28.9173   16.6432 H         1 UNK         0.0831 
    109 H109      -51.2052  -30.0197   18.0071 H         1 UNK         0.0831 
    110 H110      -50.5368  -28.4134   18.2327 H         1 UNK         0.0831 
    111 H111      -52.4171  -26.7635   16.8308 H         1 UNK         0.3133 
    112 H112      -54.3987  -24.2258   18.2107 H         1 UNK         0.0566 
    113 H113      -51.3309  -24.1387   18.1462 H         1 UNK         0.0814 
    114 H114      -52.3300  -23.7497   19.5405 H         1 UNK         0.0814 
    115 H115      -52.4082  -22.7434   18.1042 H         1 UNK         0.0814 
    116 H116      -52.5740  -24.2276   16.0150 H         1 UNK         0.3091 
    117 H117      -54.4276  -26.1545   13.7159 H         1 UNK         0.0702 
    118 H118      -54.3505  -24.0259   12.3390 H         1 UNK         0.0785 
    119 H119      -54.2975  -23.0944   13.8335 H         1 UNK         0.0785 
    120 H120      -55.7013  -24.0782   13.4587 H         1 UNK         0.0785 
    121 H121      -52.1173  -24.4633   13.4816 H         1 UNK         0.2998 
    122 H122      -49.7939  -26.3162   15.0626 H         1 UNK         0.0697 
    123 H123      -50.0143  -27.1825   12.1366 H         1 UNK         0.0825 
    124 H124      -49.9070  -28.2604   13.5231 H         1 UNK         0.0825 
    125 H125      -48.5596  -27.2120   13.1235 H         1 UNK         0.0825 
    126 H126      -49.6707  -24.7807   12.5721 H         1 UNK         0.3029 
    127 H127      -49.8780  -21.6255   14.1740 H         1 UNK         0.0897 
    128 H128      -47.6165  -21.2336   13.1446 H         1 UNK         0.0792 
    129 H129      -47.5199  -22.0637   14.6903 H         1 UNK         0.0792 
    130 H130      -47.3026  -22.9673   13.2023 H         1 UNK         0.0792 
    131 H131      -49.1861  -22.5469   11.5063 H         1 UNK         0.3086 
    132 H132      -52.2495  -23.5684   10.6098 H         1 UNK         0.0583 
    133 H133      -53.4305  -21.4450   10.5684 H         1 UNK         0.1020 
    134 H134      -52.0374  -20.6195    9.9284 H         1 UNK         0.1020 
    135 H135      -54.8721  -23.1433    9.3677 H         1 UNK         0.0694 
    136 H136      -55.1129  -23.1478    7.6389 H         1 UNK         0.0694 
    137 H137      -50.3718  -22.4257    8.8146 H         1 UNK         0.2989 
    138 H138      -49.1266  -25.3475    8.0104 H         1 UNK         0.1055 
    139 H139      -47.9352  -23.5674    6.7474 H         1 UNK         0.0806 
    140 H140      -48.3404  -22.3773    7.9755 H         1 UNK         0.0806 
    141 H141      -49.6101  -23.1239    6.9982 H         1 UNK         0.0806 
    142 H142      -47.0324  -25.5797    8.7336 H         1 UNK         0.3061 
    143 H143      -44.8697  -23.8517   10.8889 H         1 UNK         0.0734 
    144 H144      -46.2654  -25.0411   12.5886 H         1 UNK         0.0832 
    145 H145      -46.3931  -26.4394   11.5352 H         1 UNK         0.0832 
    146 H146      -44.8283  -25.9694   12.2021 H         1 UNK         0.0832 
    147 H147      -44.8292  -26.4512    9.6169 H         1 UNK         0.3156 
    148 H148      -43.6667  -25.3837    6.4703 H         1 UNK         0.0589 
    149 H149      -41.9786  -26.6757    8.6813 H         1 UNK         0.0808 
    150 H150      -41.6596  -26.7557    6.9475 H         1 UNK         0.0808 
    151 H151      -41.5491  -25.2217    7.7919 H         1 UNK         0.0808 
    152 H152      -43.7849  -27.9898    7.5291 H         1 UNK         0.3098 
    153 H153      -45.4411  -29.3489    6.3918 H         1 UNK         0.0720 
    154 H154      -46.8435  -30.2573    8.2899 H         1 UNK         0.0791 
    155 H155      -45.5373  -29.2756    8.9218 H         1 UNK         0.0791 
    156 H156      -47.1682  -28.6191    8.8492 H         1 UNK         0.0791 
    157 H157      -47.7252  -27.7052    5.9818 H         1 UNK         0.3028 
@<TRIPOS>BOND
     1    1    2 1    
     2    1   82 1    
     3    1   83 1    
     4    1   84 1    
     5    2    3 2    
     6    2    4 am   BACKBONE|DICT|INTERRES
     7    4    5 1    
     8    4   85 1    
     9    5    6 1    
    10    5   80 1    
    11    5   86 1    
    12    6    7 1    
    13    6   87 1    
    14    6   88 1    
    15    7    8 1    
    16    8    9 1    
    17    8   89 1    
    18    8   90 1    
    19    9   10 ar   
    20    9   14 ar   
    21   10   11 ar   
    22   10   91 1    
    23   11   12 ar   
    24   11   58 1    
    25   12   13 ar   
    26   12   92 1    
    27   13   14 ar   
    28   13   15 1    
    29   14   93 1    
    30   15   16 1    
    31   15   94 1    
    32   15   95 1    
    33   16   17 1    
    34   17   18 1    
    35   17   96 1    
    36   17   97 1    
    37   18   19 1    
    38   18   22 1    
    39   18   98 1    
    40   19   20 am   BACKBONE|DICT|INTERRES
    41   19   21 2    
    42   20   99 1    
    43   20  100 1    
    44   22   23 am   BACKBONE|DICT|INTERRES
    45   22  101 1    
    46   23   24 2    
    47   23   25 1    
    48   25   26 1    
    49   25   27 1    
    50   25  102 1    
    51   26  103 1    
    52   26  104 1    
    53   26  105 1    
    54   27   28 am   BACKBONE|DICT|INTERRES
    55   27  106 1    
    56   28   29 2    
    57   28   30 1    
    58   30   31 1    
    59   30   32 1    
    60   30  107 1    
    61   31  108 1    
    62   31  109 1    
    63   31  110 1    
    64   32   33 am   BACKBONE|DICT|INTERRES
    65   32  111 1    
    66   33   34 2    
    67   33   35 1    
    68   35   36 1    
    69   35   37 1    
    70   35  112 1    
    71   36  113 1    
    72   36  114 1    
    73   36  115 1    
    74   37   38 am   BACKBONE|DICT|INTERRES
    75   37  116 1    
    76   38   39 2    
    77   38   40 1    
    78   40   41 1    
    79   40   42 1    
    80   40  117 1    
    81   41  118 1    
    82   41  119 1    
    83   41  120 1    
    84   42   43 am   BACKBONE|DICT|INTERRES
    85   42  121 1    
    86   43   44 2    
    87   43   45 1    
    88   45   46 1    
    89   45   47 1    
    90   45  122 1    
    91   46  123 1    
    92   46  124 1    
    93   46  125 1    
    94   47   48 am   BACKBONE|DICT|INTERRES
    95   47  126 1    
    96   48   49 2    
    97   48   50 1    
    98   50   51 1    
    99   50   52 1    
   100   50  127 1    
   101   51  128 1    
   102   51  129 1    
   103   51  130 1    
   104   52   53 am   BACKBONE|DICT|INTERRES
   105   52  131 1    
   106   53   54 2    
   107   53   55 1    
   108   55   56 1    
   109   55   59 1    
   110   55  132 1    
   111   56   57 1    
   112   56  133 1    
   113   56  134 1    
   114   57   58 1    
   115   58  135 1    
   116   58  136 1    
   117   59   60 am   BACKBONE|DICT|INTERRES
   118   59  137 1    
   119   60   61 2    
   120   60   62 1    
   121   62   63 1    
   122   62   64 1    
   123   62  138 1    
   124   63  139 1    
   125   63  140 1    
   126   63  141 1    
   127   64   65 am   BACKBONE|DICT|INTERRES
   128   64  142 1    
   129   65   66 2    
   130   65   67 1    
   131   67   68 1    
   132   67   69 1    
   133   67  143 1    
   134   68  144 1    
   135   68  145 1    
   136   68  146 1    
   137   69   70 am   BACKBONE|DICT|INTERRES
   138   69  147 1    
   139   70   71 2    
   140   70   72 1    
   141   72   73 1    
   142   72   74 1    
   143   72  148 1    
   144   73  149 1    
   145   73  150 1    
   146   73  151 1    
   147   74   75 am   BACKBONE|DICT|INTERRES
   148   74  152 1    
   149   75   76 2    
   150   75   77 1    
   151   77   78 1    
   152   77   79 1    
   153   77  153 1    
   154   78  154 1    
   155   78  155 1    
   156   78  156 1    
   157   79   80 am   BACKBONE|DICT|INTERRES
   158   79  157 1    
   159   80   81 2    
@<TRIPOS>SUBSTRUCTURE
     1 UNK         1 GROUP             0       ****    0 ROOT    
