@<TRIPOS>MOLECULE
3R207
157   159    1
SMALL
USER_CHARGES


@<TRIPOS>ATOM
      1 CA        -45.0603  -29.9900   12.0076 C.3       0 UNK        -0.1975 
      2 C         -45.4482  -29.0374   10.8870 C.2       0 UNK         0.4852 
      3 O         -44.5904  -28.6213   10.1067 O.2       0 UNK        -0.5216 
      4 N         -46.7332  -28.6647   10.8110 N.am      1 UNK        -0.4461 
      5 CA        -47.3139  -27.7979    9.7757 C.3       1 UNK         0.0864 
      6 C6        -48.8369  -28.0249    9.5905 C.3       14 UNK        -0.0898 
      7 S7        -49.8076  -28.0512   11.1394 S.3       14 UNK        -0.2598 
      8 C8        -51.1791  -29.1546   10.6594 C.3       14 UNK         0.0286 
      9 C9        -52.3603  -28.3713   10.1103 C.ar      14 UNK        -0.0844 
     10 C10       -52.3042  -27.8144    8.8296 C.ar      14 UNK        -0.0881 
     11 C11       -53.3756  -27.0670    8.3321 C.ar      14 UNK        -0.0643 
     12 C12       -54.5296  -26.9194    9.1083 C.ar      14 UNK        -0.0930 
     13 C13       -54.6078  -27.4934   10.3799 C.ar      14 UNK        -0.0827 
     14 C14       -53.5158  -28.2070   10.8798 C.ar      14 UNK        -0.1249 
     15 C15       -55.8729  -27.3511   11.2113 C.3       14 UNK         0.0141 
     16 S16       -56.8508  -28.8827   11.1506 S.3       14 UNK        -0.2313 
     17 C17       -58.4177  -28.3733   11.9330 C.3       14 UNK        -0.0915 
     18 CA        -58.2920  -27.8773   13.3987 C.3       13 UNK         0.0968 
     19 C         -59.6929  -27.5140   13.9730 C.2       13 UNK         0.5732 
     20 N         -60.2078  -28.2190   14.9735 N.am      13 UNK        -0.7310 
     21 O         -60.3218  -26.5691   13.5021 O.2       13 UNK        -0.5035 
     22 N         -57.4970  -28.7945   14.2317 N.am      13 UNK        -0.4233 
     23 C         -56.9456  -28.4747   15.4072 C.2       13 UNK         0.4989 
     24 O         -57.0507  -27.3656   15.9316 O.2       13 UNK        -0.4996 
     25 CA        -56.1192  -29.5578   16.1186 C.3       12 UNK         0.0216 
     26 CB        -57.0176  -30.5215   16.9194 C.3       12 UNK        -0.1964 
     27 N         -55.1785  -30.2703   15.2420 N.am      12 UNK        -0.4276 
     28 C         -55.4261  -31.1633   14.2708 C.2       12 UNK         0.5020 
     29 O         -56.5632  -31.5165   13.9546 O.2       12 UNK        -0.5489 
     30 CA        -54.2161  -31.7420   13.5048 C.3       11 UNK         0.0294 
     31 CB        -54.4968  -31.8624   11.9957 C.3       11 UNK        -0.2019 
     32 N         -53.0013  -30.9448   13.6932 N.am      11 UNK        -0.4493 
     33 C         -52.0398  -31.1826   14.5947 C.2       11 UNK         0.4932 
     34 O         -52.0255  -32.1629   15.3385 O.2       11 UNK        -0.5029 
     35 CA        -50.9177  -30.1306   14.7119 C.3       10 UNK         0.0280 
     36 CB        -49.6462  -30.6065   13.9895 C.3       10 UNK        -0.1976 
     37 N         -51.2785  -28.7877   14.2331 N.am      10 UNK        -0.4242 
     38 C         -52.2449  -28.0167   14.7558 C.2       10 UNK         0.5072 
     39 O         -53.0019  -28.3988   15.6492 O.2       10 UNK        -0.5224 
     40 CA        -52.3865  -26.5929   14.1771 C.3       9 UNK         0.0343 
     41 CB        -53.3141  -25.6954   15.0219 C.3       9 UNK        -0.2003 
     42 N         -51.0988  -25.9262   13.9468 N.am      9 UNK        -0.4272 
     43 C         -50.1134  -25.7326   14.8404 C.2       9 UNK         0.4988 
     44 O         -50.1566  -26.0995   16.0149 O.2       9 UNK        -0.5108 
     45 CA        -48.8500  -25.0149   14.3371 C.3       8 UNK         0.0248 
     46 CB        -47.7999  -26.0397   13.8726 C.3       8 UNK        -0.2001 
     47 N         -49.1211  -24.0516   13.2654 N.am      8 UNK        -0.4140 
     48 C         -49.7571  -22.8837   13.4436 C.2       8 UNK         0.5028 
     49 O         -50.1468  -22.4795   14.5397 O.2       8 UNK        -0.5428 
     50 CA        -49.9981  -22.0063   12.2010 C.3       7 UNK         0.0264 
     51 CB        -48.9798  -20.8551   12.1489 C.3       7 UNK        -0.1988 
     52 N         -49.9622  -22.7280   10.9255 N.am      7 UNK        -0.4454 
     53 C         -50.8604  -23.6362   10.5163 C.2       7 UNK         0.5027 
     54 O         -51.7860  -24.0271   11.2282 O.2       7 UNK        -0.5083 
     55 CA        -50.6768  -24.2509    9.1094 C.3       6 UNK         0.0844 
     56 C56       -51.9851  -24.2161    8.2691 C.3       14 UNK        -0.0967 
     57 S57       -51.8533  -25.2862    6.7915 S.3       14 UNK        -0.2604 
     58 C58       -53.2886  -26.4030    6.9630 C.3       14 UNK         0.0134 
     59 N         -49.4966  -23.7380    8.3932 N.am      6 UNK        -0.4116 
     60 C         -49.3444  -22.5380    7.8095 C.2       5 UNK         0.5034 
     61 O         -50.1985  -21.6522    7.8297 O.2       5 UNK        -0.5045 
     62 CA        -47.9989  -22.2475    7.1203 C.3       5 UNK         0.0224 
     63 CB        -47.1523  -21.2979    7.9828 C.3       5 UNK        -0.1978 
     64 N         -47.2322  -23.4644    6.8348 N.am      5 UNK        -0.4737 
     65 C         -47.4326  -24.2437    5.7628 C.2       4 UNK         0.5027 
     66 O         -48.2182  -23.9541    4.8592 O.2       4 UNK        -0.5211 
     67 CA        -46.6689  -25.5829    5.6971 C.3       4 UNK         0.0297 
     68 CB        -46.3343  -26.0090    4.2513 C.3       4 UNK        -0.1993 
     69 N         -45.4849  -25.6514    6.5637 N.am      4 UNK        -0.4486 
     70 C         -44.3314  -24.9761    6.4512 C.2       3 UNK         0.4961 
     71 O         -44.0785  -24.1802    5.5456 O.2       3 UNK        -0.5105 
     72 CA        -43.2962  -25.2472    7.5653 C.3       3 UNK         0.0299 
     73 CB        -42.1014  -24.2696    7.5346 C.3       3 UNK        -0.1972 
     74 N         -43.9090  -25.2952    8.9022 N.am      3 UNK        -0.4305 
     75 C         -44.5833  -24.3021    9.5062 C.2       2 UNK         0.5006 
     76 O         -44.7110  -23.1752    9.0289 O.2       2 UNK        -0.5106 
     77 CA        -45.2823  -24.6571   10.8364 C.3       2 UNK         0.0296 
     78 CB        -46.2138  -23.5339   11.3405 C.3       2 UNK        -0.2002 
     79 N         -45.9904  -25.9451   10.7668 N.am      2 UNK        -0.4032 
     80 C         -46.9247  -26.3036    9.8703 C.2       1 UNK         0.5000 
     81 O         -47.4279  -25.5113    9.0727 O.2       1 UNK        -0.5238 
     82 H82       -44.6424  -30.9061   11.5913 H         1 UNK         0.0889 
     83 H83       -45.9147  -30.2585   12.6287 H         1 UNK         0.0889 
     84 H84       -44.3064  -29.5313   12.6468 H         1 UNK         0.0889 
     85 H85       -47.3975  -29.0201   11.4846 H         1 UNK         0.3028 
     86 H86       -46.8596  -28.1134    8.8337 H         1 UNK         0.0864 
     87 H87       -49.2712  -27.2949    8.9064 H         1 UNK         0.0720 
     88 H88       -48.9673  -28.9864    9.0927 H         1 UNK         0.0720 
     89 H89       -51.4871  -29.7323   11.5291 H         1 UNK         0.0814 
     90 H90       -50.8508  -29.8923    9.9265 H         1 UNK         0.0814 
     91 H91       -51.4173  -27.9386    8.2250 H         1 UNK         0.1469 
     92 H92       -55.3686  -26.3561    8.7234 H         1 UNK         0.1381 
     93 H93       -53.5802  -28.6439   11.8646 H         1 UNK         0.1206 
     94 H94       -56.4771  -26.5167   10.8519 H         1 UNK         0.0813 
     95 H95       -55.6082  -27.1249   12.2452 H         1 UNK         0.0813 
     96 H96       -59.0917  -29.2307   11.8862 H         1 UNK         0.0638 
     97 H97       -58.8682  -27.6006   11.3071 H         1 UNK         0.0638 
     98 H98       -57.7463  -26.9329   13.3717 H         1 UNK         0.0568 
     99 H99       -61.1140  -27.9703   15.3377 H         1 UNK         0.3450 
    100 H100      -59.7012  -28.9967   15.3637 H         1 UNK         0.3450 
    101 H101      -57.3601  -29.7381   13.8805 H         1 UNK         0.2987 
    102 H102      -55.4895  -29.0349   16.8405 H         1 UNK         0.0766 
    103 H103      -57.6199  -29.9749   17.6462 H         1 UNK         0.0798 
    104 H104      -56.4230  -31.2479   17.4733 H         1 UNK         0.0798 
    105 H105      -57.7073  -31.0717   16.2791 H         1 UNK         0.0798 
    106 H106      -54.2148  -29.9754   15.3700 H         1 UNK         0.3198 
    107 H107      -54.0568  -32.7501   13.8935 H         1 UNK         0.0843 
    108 H108      -54.6928  -30.8924   11.5402 H         1 UNK         0.0831 
    109 H109      -55.3666  -32.4922   11.8047 H         1 UNK         0.0831 
    110 H110      -53.6543  -32.3133   11.4711 H         1 UNK         0.0831 
    111 H111      -52.9302  -30.1021   13.1461 H         1 UNK         0.3133 
    112 H112      -50.6823  -30.0360   15.7740 H         1 UNK         0.0566 
    113 H113      -49.3126  -31.5671   14.3845 H         1 UNK         0.0814 
    114 H114      -48.8247  -29.9024   14.1234 H         1 UNK         0.0814 
    115 H115      -49.8072  -30.7375   12.9196 H         1 UNK         0.0814 
    116 H116      -50.6974  -28.3928   13.5059 H         1 UNK         0.3091 
    117 H117      -52.8479  -26.7028   13.1958 H         1 UNK         0.0702 
    118 H118      -53.4252  -24.7085   14.5726 H         1 UNK         0.0785 
    119 H119      -52.9325  -25.5622   16.0348 H         1 UNK         0.0785 
    120 H120      -54.3124  -26.1281   15.1034 H         1 UNK         0.0785 
    121 H121      -50.9657  -25.5603   13.0132 H         1 UNK         0.2998 
    122 H122      -48.4316  -24.4686   15.1854 H         1 UNK         0.0697 
    123 H123      -48.0891  -26.5269   12.9429 H         1 UNK         0.0825 
    124 H124      -47.6592  -26.8228   14.6194 H         1 UNK         0.0825 
    125 H125      -46.8276  -25.5732   13.7214 H         1 UNK         0.0825 
    126 H126      -48.8339  -24.3030   12.3318 H         1 UNK         0.3029 
    127 H127      -50.9958  -21.5742   12.3063 H         1 UNK         0.0897 
    128 H128      -47.9591  -21.2201   12.0312 H         1 UNK         0.0792 
    129 H129      -49.0097  -20.2662   13.0669 H         1 UNK         0.0792 
    130 H130      -49.1910  -20.1740   11.3242 H         1 UNK         0.0792 
    131 H131      -49.2426  -22.4576   10.2724 H         1 UNK         0.3086 
    132 H132      -50.4538  -25.2995    9.3080 H         1 UNK         0.0583 
    133 H133      -52.8367  -24.5331    8.8720 H         1 UNK         0.1020 
    134 H134      -52.2271  -23.2023    7.9498 H         1 UNK         0.1020 
    135 H135      -54.1946  -25.8327    6.7520 H         1 UNK         0.0694 
    136 H136      -53.2271  -27.1768    6.1967 H         1 UNK         0.0694 
    137 H137      -48.7019  -24.3746    8.3838 H         1 UNK         0.2989 
    138 H138      -48.2201  -21.7389    6.1791 H         1 UNK         0.1055 
    139 H139      -46.9489  -21.7155    8.9684 H         1 UNK         0.0806 
    140 H140      -47.6639  -20.3463    8.1333 H         1 UNK         0.0806 
    141 H141      -46.1947  -21.0793    7.5097 H         1 UNK         0.0806 
    142 H142      -46.5745  -23.7706    7.5414 H         1 UNK         0.3061 
    143 H143      -47.3622  -26.3244    6.0974 H         1 UNK         0.0734 
    144 H144      -45.7117  -25.2713    3.7446 H         1 UNK         0.0832 
    145 H145      -45.8107  -26.9646    4.2287 H         1 UNK         0.0832 
    146 H146      -47.2420  -26.1259    3.6580 H         1 UNK         0.0832 
    147 H147      -45.5857  -26.2480    7.3714 H         1 UNK         0.3156 
    148 H148      -42.9030  -26.2470    7.3749 H         1 UNK         0.0589 
    149 H149      -41.3823  -24.4964    8.3215 H         1 UNK         0.0808 
    150 H150      -41.5707  -24.3329    6.5838 H         1 UNK         0.0808 
    151 H151      -42.4191  -23.2338    7.6584 H         1 UNK         0.0808 
    152 H152      -43.8670  -26.1921    9.3701 H         1 UNK         0.3098 
    153 H153      -44.4840  -24.7755   11.5705 H         1 UNK         0.0720 
    154 H154      -45.6968  -22.5737   11.3650 H         1 UNK         0.0791 
    155 H155      -46.5508  -23.7271   12.3560 H         1 UNK         0.0791 
    156 H156      -47.0895  -23.4156   10.7043 H         1 UNK         0.0791 
    157 H157      -45.6203  -26.6796   11.3535 H         1 UNK         0.3028 
@<TRIPOS>BOND
     1    1    2 1    
     2    1   82 1    
     3    1   83 1    
     4    1   84 1    
     5    2    3 2    
     6    2    4 am   BACKBONE|DICT|INTERRES
     7    4    5 1    
     8    4   85 1    
     9    5    6 1    
    10    5   80 1    
    11    5   86 1    
    12    6    7 1    
    13    6   87 1    
    14    6   88 1    
    15    7    8 1    
    16    8    9 1    
    17    8   89 1    
    18    8   90 1    
    19    9   10 ar   
    20    9   14 ar   
    21   10   11 ar   
    22   10   91 1    
    23   11   12 ar   
    24   11   58 1    
    25   12   13 ar   
    26   12   92 1    
    27   13   14 ar   
    28   13   15 1    
    29   14   93 1    
    30   15   16 1    
    31   15   94 1    
    32   15   95 1    
    33   16   17 1    
    34   17   18 1    
    35   17   96 1    
    36   17   97 1    
    37   18   19 1    
    38   18   22 1    
    39   18   98 1    
    40   19   20 am   BACKBONE|DICT|INTERRES
    41   19   21 2    
    42   20   99 1    
    43   20  100 1    
    44   22   23 am   BACKBONE|DICT|INTERRES
    45   22  101 1    
    46   23   24 2    
    47   23   25 1    
    48   25   26 1    
    49   25   27 1    
    50   25  102 1    
    51   26  103 1    
    52   26  104 1    
    53   26  105 1    
    54   27   28 am   BACKBONE|DICT|INTERRES
    55   27  106 1    
    56   28   29 2    
    57   28   30 1    
    58   30   31 1    
    59   30   32 1    
    60   30  107 1    
    61   31  108 1    
    62   31  109 1    
    63   31  110 1    
    64   32   33 am   BACKBONE|DICT|INTERRES
    65   32  111 1    
    66   33   34 2    
    67   33   35 1    
    68   35   36 1    
    69   35   37 1    
    70   35  112 1    
    71   36  113 1    
    72   36  114 1    
    73   36  115 1    
    74   37   38 am   BACKBONE|DICT|INTERRES
    75   37  116 1    
    76   38   39 2    
    77   38   40 1    
    78   40   41 1    
    79   40   42 1    
    80   40  117 1    
    81   41  118 1    
    82   41  119 1    
    83   41  120 1    
    84   42   43 am   BACKBONE|DICT|INTERRES
    85   42  121 1    
    86   43   44 2    
    87   43   45 1    
    88   45   46 1    
    89   45   47 1    
    90   45  122 1    
    91   46  123 1    
    92   46  124 1    
    93   46  125 1    
    94   47   48 am   BACKBONE|DICT|INTERRES
    95   47  126 1    
    96   48   49 2    
    97   48   50 1    
    98   50   51 1    
    99   50   52 1    
   100   50  127 1    
   101   51  128 1    
   102   51  129 1    
   103   51  130 1    
   104   52   53 am   BACKBONE|DICT|INTERRES
   105   52  131 1    
   106   53   54 2    
   107   53   55 1    
   108   55   56 1    
   109   55   59 1    
   110   55  132 1    
   111   56   57 1    
   112   56  133 1    
   113   56  134 1    
   114   57   58 1    
   115   58  135 1    
   116   58  136 1    
   117   59   60 am   BACKBONE|DICT|INTERRES
   118   59  137 1    
   119   60   61 2    
   120   60   62 1    
   121   62   63 1    
   122   62   64 1    
   123   62  138 1    
   124   63  139 1    
   125   63  140 1    
   126   63  141 1    
   127   64   65 am   BACKBONE|DICT|INTERRES
   128   64  142 1    
   129   65   66 2    
   130   65   67 1    
   131   67   68 1    
   132   67   69 1    
   133   67  143 1    
   134   68  144 1    
   135   68  145 1    
   136   68  146 1    
   137   69   70 am   BACKBONE|DICT|INTERRES
   138   69  147 1    
   139   70   71 2    
   140   70   72 1    
   141   72   73 1    
   142   72   74 1    
   143   72  148 1    
   144   73  149 1    
   145   73  150 1    
   146   73  151 1    
   147   74   75 am   BACKBONE|DICT|INTERRES
   148   74  152 1    
   149   75   76 2    
   150   75   77 1    
   151   77   78 1    
   152   77   79 1    
   153   77  153 1    
   154   78  154 1    
   155   78  155 1    
   156   78  156 1    
   157   79   80 am   BACKBONE|DICT|INTERRES
   158   79  157 1    
   159   80   81 2    
@<TRIPOS>SUBSTRUCTURE
     1 UNK         1 GROUP             0       ****    0 ROOT    
