@<TRIPOS>MOLECULE
3R207
157   159    1
SMALL
USER_CHARGES


@<TRIPOS>ATOM
      1 CA        -46.7370  -29.1216    5.8854 C.3       0 UNK        -0.1975 
      2 C         -47.4103  -27.7587    5.8850 C.2       0 UNK         0.4852 
      3 O         -46.7601  -26.7494    5.6077 O.2       0 UNK        -0.5216 
      4 N         -48.7139  -27.7359    6.1885 N.am      1 UNK        -0.4461 
      5 CA        -49.5964  -26.5632    6.1652 C.3       1 UNK         0.0864 
      6 C6        -51.0463  -26.9183    6.5769 C.3       14 UNK        -0.0898 
      7 S7        -51.7666  -28.2480    5.5512 S.3       14 UNK        -0.2598 
      8 C8        -53.0098  -28.9789    6.6806 C.3       14 UNK         0.0286 
      9 C9        -52.4672  -29.6511    7.9465 C.ar      14 UNK        -0.0844 
     10 C10       -51.1103  -29.9417    8.1299 C.ar      14 UNK        -0.0881 
     11 C11       -50.6453  -30.4968    9.3235 C.ar      14 UNK        -0.0643 
     12 C12       -51.5557  -30.8069   10.3367 C.ar      14 UNK        -0.0930 
     13 C13       -52.9221  -30.5719   10.1533 C.ar      14 UNK        -0.0827 
     14 C14       -53.3675  -29.9900    8.9618 C.ar      14 UNK        -0.1249 
     15 C15       -53.9173  -30.9856   11.2279 C.3       14 UNK         0.0141 
     16 S16       -54.0824  -29.7337   12.5357 S.3       14 UNK        -0.2313 
     17 C17       -55.2173  -28.5169   11.7763 C.3       14 UNK        -0.0915 
     18 CA        -56.6720  -28.5551   12.3194 C.3       13 UNK         0.0968 
     19 C         -57.3813  -29.9081   12.0161 C.2       13 UNK         0.5732 
     20 N         -57.7984  -30.1198   10.7746 N.am      13 UNK        -0.7310 
     21 O         -57.5286  -30.7755   12.8760 O.2       13 UNK        -0.5035 
     22 N         -56.7426  -28.1279   13.7269 N.am      13 UNK        -0.4233 
     23 C         -57.8841  -27.8898   14.3934 C.2       13 UNK         0.4989 
     24 O         -59.0030  -27.9635   13.8825 O.2       13 UNK        -0.4996 
     25 CA        -57.7827  -27.4816   15.8768 C.3       12 UNK         0.0216 
     26 CB        -57.8498  -28.7240   16.7799 C.3       12 UNK        -0.1964 
     27 N         -56.5759  -26.7182   16.1961 N.am      12 UNK        -0.4276 
     28 C         -56.2874  -25.4964   15.7279 C.2       12 UNK         0.5020 
     29 O         -57.0798  -24.8156   15.0746 O.2       12 UNK        -0.5489 
     30 CA        -54.8837  -24.9285   16.0284 C.3       11 UNK         0.0294 
     31 CB        -54.9748  -23.7954   17.0639 C.3       11 UNK        -0.2019 
     32 N         -53.8680  -25.8943   16.4753 N.am      11 UNK        -0.4493 
     33 C         -53.4884  -27.0050   15.8288 C.2       11 UNK         0.4932 
     34 O         -54.0464  -27.4334   14.8212 O.2       11 UNK        -0.5029 
     35 CA        -52.2705  -27.7381   16.4060 C.3       10 UNK         0.0280 
     36 CB        -52.1147  -29.1638   15.8452 C.3       10 UNK        -0.1976 
     37 N         -51.0797  -26.9572   16.0836 N.am      10 UNK        -0.4242 
     38 C         -50.5476  -26.0168   16.8747 C.2       10 UNK         0.5072 
     39 O         -50.9357  -25.7856   18.0210 O.2       10 UNK        -0.5224 
     40 CA        -49.4287  -25.1559   16.2667 C.3       9 UNK         0.0343 
     41 CB        -48.1358  -25.9692   16.0916 C.3       9 UNK        -0.2003 
     42 N         -49.8165  -24.5674   14.9836 N.am      9 UNK        -0.4272 
     43 C         -50.8069  -23.6784   14.8073 C.2       9 UNK         0.4988 
     44 O         -51.4781  -23.2027   15.7228 O.2       9 UNK        -0.5108 
     45 CA        -51.1072  -23.2564   13.3616 C.3       8 UNK         0.0248 
     46 CB        -50.1123  -22.1885   12.8773 C.3       8 UNK        -0.2001 
     47 N         -51.0789  -24.4152   12.4677 N.am      8 UNK        -0.4140 
     48 C         -52.1345  -25.2104   12.2400 C.2       8 UNK         0.5028 
     49 O         -53.2685  -24.9649   12.6502 O.2       8 UNK        -0.5428 
     50 CA        -51.9063  -26.4842   11.4039 C.3       7 UNK         0.0264 
     51 CB        -52.4859  -26.3145    9.9922 C.3       7 UNK        -0.1988 
     52 N         -50.5030  -26.8963   11.3056 N.am      7 UNK        -0.4454 
     53 C         -49.8066  -27.4298   12.3192 C.2       7 UNK         0.5027 
     54 O         -50.2736  -27.6286   13.4400 O.2       7 UNK        -0.5083 
     55 CA        -48.3091  -27.6992   12.0778 C.3       6 UNK         0.0844 
     56 C56       -48.0372  -29.1104   11.4969 C.3       14 UNK        -0.0967 
     57 S57       -48.2061  -29.2381    9.6809 S.3       14 UNK        -0.2604 
     58 C58       -49.1598  -30.7775    9.4850 C.3       14 UNK         0.0134 
     59 N         -47.6613  -26.6270   11.3169 N.am      6 UNK        -0.4116 
     60 C         -47.5624  -25.3512   11.7131 C.2       5 UNK         0.5034 
     61 O         -48.0318  -24.9391   12.7744 O.2       5 UNK        -0.5045 
     62 CA        -46.8853  -24.3572   10.7534 C.3       5 UNK         0.0224 
     63 CB        -46.0836  -23.2664   11.4941 C.3       5 UNK        -0.1978 
     64 N         -46.0830  -24.9995    9.7054 N.am      5 UNK        -0.4737 
     65 C         -44.9328  -25.6778    9.8354 C.2       4 UNK         0.5027 
     66 O         -44.3586  -25.8702   10.9067 O.2       4 UNK        -0.5211 
     67 CA        -44.3304  -26.2604    8.5448 C.3       4 UNK         0.0297 
     68 CB        -44.7026  -27.7439    8.4122 C.3       4 UNK        -0.1993 
     69 N         -44.7659  -25.5270    7.3495 N.am      4 UNK        -0.4486 
     70 C         -44.2693  -24.3341    6.9909 C.2       3 UNK         0.4961 
     71 O         -43.3054  -23.7980    7.5379 O.2       3 UNK        -0.5105 
     72 CA        -44.9992  -23.5936    5.8598 C.3       3 UNK         0.0299 
     73 CB        -44.6585  -24.1939    4.4860 C.3       3 UNK        -0.1972 
     74 N         -46.4504  -23.5810    6.0634 N.am      3 UNK        -0.4305 
     75 C         -47.0777  -22.8392    6.9916 C.2       2 UNK         0.5006 
     76 O         -46.4954  -22.0647    7.7504 O.2       2 UNK        -0.5106 
     77 CA        -48.6095  -22.9659    7.1066 C.3       2 UNK         0.0296 
     78 CB        -49.2997  -21.7431    6.4805 C.3       2 UNK        -0.2002 
     79 N         -49.1424  -24.1816    6.4901 N.am      2 UNK        -0.4032 
     80 C         -49.0605  -25.4041    7.0315 C.2       1 UNK         0.5000 
     81 O         -48.5901  -25.6323    8.1503 O.2       1 UNK        -0.5238 
     82 H82       -46.8502  -29.6109    6.8492 H         1 UNK         0.0889 
     83 H83       -45.6745  -29.0280    5.6723 H         1 UNK         0.0889 
     84 H84       -47.1746  -29.7594    5.1221 H         1 UNK         0.0889 
     85 H85       -49.1725  -28.6031    6.4181 H         1 UNK         0.3028 
     86 H86       -49.6142  -26.2232    5.1280 H         1 UNK         0.0864 
     87 H87       -51.6983  -26.0458    6.4962 H         1 UNK         0.0720 
     88 H88       -51.0635  -27.2191    7.6241 H         1 UNK         0.0720 
     89 H89       -53.7121  -28.1937    6.9637 H         1 UNK         0.0814 
     90 H90       -53.5848  -29.7172    6.1201 H         1 UNK         0.0814 
     91 H91       -50.3946  -29.7275    7.3532 H         1 UNK         0.1469 
     92 H92       -51.2066  -31.2484   11.2597 H         1 UNK         0.1381 
     93 H93       -54.4231  -29.8025    8.8211 H         1 UNK         0.1206 
     94 H94       -53.5863  -31.9193   11.6852 H         1 UNK         0.0813 
     95 H95       -54.8935  -31.1975   10.7898 H         1 UNK         0.0813 
     96 H96       -55.2162  -28.6396   10.6938 H         1 UNK         0.0638 
     97 H97       -54.8004  -27.5238   11.9510 H         1 UNK         0.0638 
     98 H98       -57.2284  -27.7958   11.7664 H         1 UNK         0.0568 
     99 H99       -57.6862  -29.4192   10.0575 H         1 UNK         0.3450 
    100 H100      -58.2514  -30.9924   10.5528 H         1 UNK         0.3450 
    101 H101      -55.8498  -28.0243   14.2006 H         1 UNK         0.2987 
    102 H102      -58.6440  -26.8491   16.1025 H         1 UNK         0.0766 
    103 H103      -57.8621  -28.4495   17.8349 H         1 UNK         0.0798 
    104 H104      -57.0025  -29.3910   16.6138 H         1 UNK         0.0798 
    105 H105      -58.7576  -29.2971   16.5854 H         1 UNK         0.0798 
    106 H106      -55.8562  -27.1976   16.7165 H         1 UNK         0.3198 
    107 H107      -54.5167  -24.5024   15.0923 H         1 UNK         0.0843 
    108 H108      -55.3029  -24.1636   18.0367 H         1 UNK         0.0831 
    109 H109      -55.6860  -23.0310   16.7473 H         1 UNK         0.0831 
    110 H110      -54.0119  -23.3009   17.1961 H         1 UNK         0.0831 
    111 H111      -53.3235  -25.6225   17.2834 H         1 UNK         0.3133 
    112 H112      -52.3970  -27.8177   17.4877 H         1 UNK         0.0566 
    113 H113      -51.2527  -29.6691   16.2803 H         1 UNK         0.0814 
    114 H114      -52.9951  -29.7680   16.0678 H         1 UNK         0.0814 
    115 H115      -51.9892  -29.1640   14.7619 H         1 UNK         0.0814 
    116 H116      -50.7245  -27.0712   15.1349 H         1 UNK         0.3091 
    117 H117      -49.2238  -24.3363   16.9587 H         1 UNK         0.0702 
    118 H118      -47.3210  -25.3425   15.7282 H         1 UNK         0.0785 
    119 H119      -48.2646  -26.7891   15.3845 H         1 UNK         0.0785 
    120 H120      -47.8154  -26.4018   17.0402 H         1 UNK         0.0785 
    121 H121      -49.2638  -24.8433   14.1762 H         1 UNK         0.2998 
    122 H122      -52.1038  -22.8095   13.3433 H         1 UNK         0.0697 
    123 H123      -49.0816  -22.5394   12.9127 H         1 UNK         0.0825 
    124 H124      -50.1703  -21.2965   13.5024 H         1 UNK         0.0825 
    125 H125      -50.3277  -21.8804   11.8540 H         1 UNK         0.0825 
    126 H126      -50.1741  -24.7000   12.1202 H         1 UNK         0.3029 
    127 H127      -52.4516  -27.2877   11.9027 H         1 UNK         0.0897 
    128 H128      -52.4719  -27.2597    9.4535 H         1 UNK         0.0792 
    129 H129      -51.9313  -25.5770    9.4111 H         1 UNK         0.0792 
    130 H130      -53.5261  -25.9885   10.0313 H         1 UNK         0.0792 
    131 H131      -50.0401  -26.7670   10.4160 H         1 UNK         0.3086 
    132 H132      -47.8464  -27.6820   13.0669 H         1 UNK         0.0583 
    133 H133      -47.0128  -29.3981   11.7374 H         1 UNK         0.1020 
    134 H134      -48.6651  -29.8545   11.9912 H         1 UNK         0.1020 
    135 H135      -48.8000  -31.2937    8.5938 H         1 UNK         0.0694 
    136 H136      -48.9717  -31.4559   10.3181 H         1 UNK         0.0694 
    137 H137      -47.3039  -26.8778   10.4062 H         1 UNK         0.2989 
    138 H138      -47.7032  -23.8578   10.2330 H         1 UNK         0.1055 
    139 H139      -46.7295  -22.6805   12.1494 H         1 UNK         0.0806 
    140 H140      -45.6220  -22.5711   10.7927 H         1 UNK         0.0806 
    141 H141      -45.2959  -23.6917   12.1162 H         1 UNK         0.0806 
    142 H142      -46.5004  -24.9757    8.7835 H         1 UNK         0.3061 
    143 H143      -43.2432  -26.1901    8.6234 H         1 UNK         0.0734 
    144 H144      -44.2695  -28.1833    7.5142 H         1 UNK         0.0832 
    145 H145      -44.3303  -28.3148    9.2640 H         1 UNK         0.0832 
    146 H146      -45.7828  -27.8832    8.3790 H         1 UNK         0.0832 
    147 H147      -45.5292  -25.9224    6.8041 H         1 UNK         0.3156 
    148 H148      -44.6499  -22.5589    5.8615 H         1 UNK         0.0589 
    149 H149      -44.9789  -25.2323    4.3994 H         1 UNK         0.0808 
    150 H150      -45.1287  -23.6311    3.6800 H         1 UNK         0.0808 
    151 H151      -43.5825  -24.1721    4.3095 H         1 UNK         0.0808 
    152 H152      -46.9904  -24.2246    5.5025 H         1 UNK         0.3098 
    153 H153      -48.8558  -22.9830    8.1705 H         1 UNK         0.0720 
    154 H154      -50.3804  -21.7836    6.6189 H         1 UNK         0.0791 
    155 H155      -49.0993  -21.6662    5.4112 H         1 UNK         0.0791 
    156 H156      -48.9514  -20.8190    6.9439 H         1 UNK         0.0791 
    157 H157      -49.5606  -24.0760    5.5761 H         1 UNK         0.3028 
@<TRIPOS>BOND
     1    1    2 1    
     2    1   82 1    
     3    1   83 1    
     4    1   84 1    
     5    2    3 2    
     6    2    4 am   BACKBONE|DICT|INTERRES
     7    4    5 1    
     8    4   85 1    
     9    5    6 1    
    10    5   80 1    
    11    5   86 1    
    12    6    7 1    
    13    6   87 1    
    14    6   88 1    
    15    7    8 1    
    16    8    9 1    
    17    8   89 1    
    18    8   90 1    
    19    9   10 ar   
    20    9   14 ar   
    21   10   11 ar   
    22   10   91 1    
    23   11   12 ar   
    24   11   58 1    
    25   12   13 ar   
    26   12   92 1    
    27   13   14 ar   
    28   13   15 1    
    29   14   93 1    
    30   15   16 1    
    31   15   94 1    
    32   15   95 1    
    33   16   17 1    
    34   17   18 1    
    35   17   96 1    
    36   17   97 1    
    37   18   19 1    
    38   18   22 1    
    39   18   98 1    
    40   19   20 am   BACKBONE|DICT|INTERRES
    41   19   21 2    
    42   20   99 1    
    43   20  100 1    
    44   22   23 am   BACKBONE|DICT|INTERRES
    45   22  101 1    
    46   23   24 2    
    47   23   25 1    
    48   25   26 1    
    49   25   27 1    
    50   25  102 1    
    51   26  103 1    
    52   26  104 1    
    53   26  105 1    
    54   27   28 am   BACKBONE|DICT|INTERRES
    55   27  106 1    
    56   28   29 2    
    57   28   30 1    
    58   30   31 1    
    59   30   32 1    
    60   30  107 1    
    61   31  108 1    
    62   31  109 1    
    63   31  110 1    
    64   32   33 am   BACKBONE|DICT|INTERRES
    65   32  111 1    
    66   33   34 2    
    67   33   35 1    
    68   35   36 1    
    69   35   37 1    
    70   35  112 1    
    71   36  113 1    
    72   36  114 1    
    73   36  115 1    
    74   37   38 am   BACKBONE|DICT|INTERRES
    75   37  116 1    
    76   38   39 2    
    77   38   40 1    
    78   40   41 1    
    79   40   42 1    
    80   40  117 1    
    81   41  118 1    
    82   41  119 1    
    83   41  120 1    
    84   42   43 am   BACKBONE|DICT|INTERRES
    85   42  121 1    
    86   43   44 2    
    87   43   45 1    
    88   45   46 1    
    89   45   47 1    
    90   45  122 1    
    91   46  123 1    
    92   46  124 1    
    93   46  125 1    
    94   47   48 am   BACKBONE|DICT|INTERRES
    95   47  126 1    
    96   48   49 2    
    97   48   50 1    
    98   50   51 1    
    99   50   52 1    
   100   50  127 1    
   101   51  128 1    
   102   51  129 1    
   103   51  130 1    
   104   52   53 am   BACKBONE|DICT|INTERRES
   105   52  131 1    
   106   53   54 2    
   107   53   55 1    
   108   55   56 1    
   109   55   59 1    
   110   55  132 1    
   111   56   57 1    
   112   56  133 1    
   113   56  134 1    
   114   57   58 1    
   115   58  135 1    
   116   58  136 1    
   117   59   60 am   BACKBONE|DICT|INTERRES
   118   59  137 1    
   119   60   61 2    
   120   60   62 1    
   121   62   63 1    
   122   62   64 1    
   123   62  138 1    
   124   63  139 1    
   125   63  140 1    
   126   63  141 1    
   127   64   65 am   BACKBONE|DICT|INTERRES
   128   64  142 1    
   129   65   66 2    
   130   65   67 1    
   131   67   68 1    
   132   67   69 1    
   133   67  143 1    
   134   68  144 1    
   135   68  145 1    
   136   68  146 1    
   137   69   70 am   BACKBONE|DICT|INTERRES
   138   69  147 1    
   139   70   71 2    
   140   70   72 1    
   141   72   73 1    
   142   72   74 1    
   143   72  148 1    
   144   73  149 1    
   145   73  150 1    
   146   73  151 1    
   147   74   75 am   BACKBONE|DICT|INTERRES
   148   74  152 1    
   149   75   76 2    
   150   75   77 1    
   151   77   78 1    
   152   77   79 1    
   153   77  153 1    
   154   78  154 1    
   155   78  155 1    
   156   78  156 1    
   157   79   80 am   BACKBONE|DICT|INTERRES
   158   79  157 1    
   159   80   81 2    
@<TRIPOS>SUBSTRUCTURE
     1 UNK         1 GROUP             0       ****    0 ROOT    
