@<TRIPOS>MOLECULE
3R207
157   159    1
SMALL
USER_CHARGES


@<TRIPOS>ATOM
      1 CA        -45.5592  -29.2641    7.3171 C.3       0 UNK        -0.1975 
      2 C         -46.4189  -28.5447    6.2881 C.2       0 UNK         0.4852 
      3 O         -45.8815  -27.9105    5.3789 O.2       0 UNK        -0.5216 
      4 N         -47.7486  -28.6423    6.4292 N.am      1 UNK        -0.4461 
      5 CA        -48.7726  -28.0661    5.5482 C.3       1 UNK         0.0864 
      6 C6        -50.1852  -28.4217    6.0681 C.3       14 UNK        -0.0898 
      7 S7        -51.5193  -28.1588    4.8489 S.3       14 UNK        -0.2598 
      8 C8        -52.6868  -29.4975    5.2740 C.3       14 UNK         0.0286 
      9 C9        -53.1540  -29.4062    6.7212 C.ar      14 UNK        -0.0844 
     10 C10       -52.5081  -30.1514    7.7108 C.ar      14 UNK        -0.0881 
     11 C11       -52.8715  -30.0140    9.0499 C.ar      14 UNK        -0.0643 
     12 C12       -53.9224  -29.1612    9.3939 C.ar      14 UNK        -0.0930 
     13 C13       -54.6085  -28.4310    8.4139 C.ar      14 UNK        -0.0827 
     14 C14       -54.2098  -28.5606    7.0778 C.ar      14 UNK        -0.1249 
     15 C15       -55.7645  -27.4773    8.7365 C.3       14 UNK         0.0141 
     16 S16       -56.1616  -27.2413   10.5072 S.3       14 UNK        -0.2313 
     17 C17       -57.0099  -28.8128   10.8887 C.3       14 UNK        -0.0915 
     18 CA        -57.4500  -28.9392   12.3772 C.3       13 UNK         0.0968 
     19 C         -58.2494  -30.2504   12.6478 C.2       13 UNK         0.5732 
     20 N         -58.1310  -30.8716   13.8155 N.am      13 UNK        -0.7310 
     21 O         -59.0191  -30.6988   11.8008 O.2       13 UNK        -0.5035 
     22 N         -56.3753  -28.6696   13.3512 N.am      13 UNK        -0.4233 
     23 C         -55.2139  -29.3193   13.4921 C.2       13 UNK         0.4989 
     24 O         -54.8507  -30.2378   12.7562 O.2       13 UNK        -0.4996 
     25 CA        -54.3164  -28.8765   14.6717 C.3       12 UNK         0.0216 
     26 CB        -52.9596  -29.6072   14.6914 C.3       12 UNK        -0.1964 
     27 N         -54.0709  -27.4304   14.7293 N.am      12 UNK        -0.4276 
     28 C         -54.9556  -26.4847   15.0684 C.2       12 UNK         0.5020 
     29 O         -56.1349  -26.7221   15.3436 O.2       12 UNK        -0.5489 
     30 CA        -54.4226  -25.0397   15.1017 C.3       11 UNK         0.0294 
     31 CB        -55.5449  -23.9901   15.2444 C.3       11 UNK        -0.2019 
     32 N         -53.3927  -24.8367   16.1309 N.am      11 UNK        -0.4493 
     33 C         -53.5131  -25.0622   17.4495 C.2       11 UNK         0.4932 
     34 O         -54.5420  -25.4717   17.9903 O.2       11 UNK        -0.5029 
     35 CA        -52.2741  -24.7530   18.3144 C.3       10 UNK         0.0280 
     36 CB        -52.4184  -25.2441   19.7709 C.3       10 UNK        -0.1976 
     37 N         -51.0155  -25.2376   17.7386 N.am      10 UNK        -0.4242 
     38 C         -50.6872  -26.4917   17.3957 C.2       10 UNK         0.5072 
     39 O         -51.4524  -27.4510   17.5072 O.2       10 UNK        -0.5224 
     40 CA        -49.2533  -26.7146   16.8572 C.3       9 UNK         0.0343 
     41 CB        -49.0921  -28.0912   16.1853 C.3       9 UNK        -0.2003 
     42 N         -48.8084  -25.6762   15.9198 N.am      9 UNK        -0.4272 
     43 C         -48.4509  -24.4238   16.2385 C.2       9 UNK         0.4988 
     44 O         -48.3939  -24.0081   17.3961 O.2       9 UNK        -0.5108 
     45 CA        -48.1943  -23.4468   15.0782 C.3       8 UNK         0.0248 
     46 CB        -46.7420  -23.5510   14.5867 C.3       8 UNK        -0.2001 
     47 N         -49.1112  -23.6337   13.9503 N.am      8 UNK        -0.4140 
     48 C         -50.4499  -23.5451   14.0115 C.2       8 UNK         0.5028 
     49 O         -51.0874  -23.2644   15.0281 O.2       8 UNK        -0.5428 
     50 CA        -51.2100  -23.9058   12.7277 C.3       7 UNK         0.0264 
     51 CB        -51.1224  -22.7821   11.6836 C.3       7 UNK        -0.1988 
     52 N         -50.7245  -25.1689   12.1690 N.am      7 UNK        -0.4454 
     53 C         -50.9245  -26.3647   12.7451 C.2       7 UNK         0.5027 
     54 O         -51.6154  -26.5266   13.7510 O.2       7 UNK        -0.5083 
     55 CA        -50.2356  -27.5876   12.1085 C.3       6 UNK         0.0844 
     56 C56       -51.1921  -28.2787   11.1146 C.3       14 UNK        -0.0967 
     57 S57       -50.5425  -29.8762   10.5207 S.3       14 UNK        -0.2604 
     58 C58       -52.0935  -30.7485   10.1305 C.3       14 UNK         0.0134 
     59 N         -48.9480  -27.2451   11.4970 N.am      6 UNK        -0.4116 
     60 C         -47.8552  -26.8892   12.1854 C.2       5 UNK         0.5034 
     61 O         -47.8096  -26.8223   13.4126 O.2       5 UNK        -0.5045 
     62 CA        -46.6223  -26.4880   11.3590 C.3       5 UNK         0.0224 
     63 CB        -45.8563  -27.7327   10.8834 C.3       5 UNK        -0.1978 
     64 N         -46.9493  -25.6412   10.2064 N.am      5 UNK        -0.4737 
     65 C         -47.5278  -24.4341   10.2821 C.2       4 UNK         0.5027 
     66 O         -47.8783  -23.9200   11.3453 O.2       4 UNK        -0.5211 
     67 CA        -47.8067  -23.7062    8.9542 C.3       4 UNK         0.0297 
     68 CB        -47.8125  -22.1693    9.1027 C.3       4 UNK        -0.1993 
     69 N         -46.9400  -24.1342    7.8483 N.am      4 UNK        -0.4486 
     70 C         -45.6235  -23.9060    7.6992 C.2       3 UNK         0.4961 
     71 O         -44.9312  -23.3271    8.5366 O.2       3 UNK        -0.5105 
     72 CA        -44.9462  -24.4064    6.4042 C.3       3 UNK         0.0299 
     73 CB        -43.9301  -25.5156    6.7204 C.3       3 UNK        -0.1972 
     74 N         -45.8899  -24.8871    5.3886 N.am      3 UNK        -0.4305 
     75 C         -46.7035  -24.0940    4.6724 C.2       2 UNK         0.5006 
     76 O         -46.6515  -22.8640    4.7049 O.2       2 UNK        -0.5106 
     77 CA        -47.7841  -24.7649    3.7998 C.3       2 UNK         0.0296 
     78 CB        -47.3695  -24.7378    2.3195 C.3       2 UNK        -0.2002 
     79 N         -48.1202  -26.1424    4.1774 N.am      2 UNK        -0.4032 
     80 C         -48.5797  -26.5450    5.3718 C.2       1 UNK         0.5000 
     81 O         -48.7800  -25.7872    6.3248 O.2       1 UNK        -0.5238 
     82 H82       -44.9976  -28.5473    7.9138 H         1 UNK         0.0889 
     83 H83       -44.8472  -29.9187    6.8152 H         1 UNK         0.0889 
     84 H84       -46.1572  -29.8745    7.9936 H         1 UNK         0.0889 
     85 H85       -48.1102  -29.1663    7.2128 H         1 UNK         0.3028 
     86 H86       -48.6453  -28.5464    4.5756 H         1 UNK         0.0864 
     87 H87       -50.1919  -29.4781    6.3351 H         1 UNK         0.0720 
     88 H88       -50.4246  -27.8766    6.9837 H         1 UNK         0.0720 
     89 H89       -52.2153  -30.4630    5.0838 H         1 UNK         0.0814 
     90 H90       -53.5471  -29.4434    4.6052 H         1 UNK         0.0814 
     91 H91       -51.6916  -30.8100    7.4491 H         1 UNK         0.1469 
     92 H92       -54.1812  -29.0644   10.4371 H         1 UNK         0.1381 
     93 H93       -54.7121  -27.9863    6.3109 H         1 UNK         0.1206 
     94 H94       -56.6617  -27.8172    8.2172 H         1 UNK         0.0813 
     95 H95       -55.5245  -26.4975    8.3213 H         1 UNK         0.0813 
     96 H96       -56.3734  -29.6524   10.6101 H         1 UNK         0.0638 
     97 H97       -57.8821  -28.8728   10.2354 H         1 UNK         0.0638 
     98 H98       -58.1778  -28.1466   12.5524 H         1 UNK         0.0568 
     99 H99       -58.6621  -31.7115   13.9828 H         1 UNK         0.3450 
    100 H100      -57.5200  -30.5087   14.5287 H         1 UNK         0.3450 
    101 H101      -56.5644  -27.9294   14.0241 H         1 UNK         0.2987 
    102 H102      -54.8474  -29.1548   15.5842 H         1 UNK         0.0766 
    103 H103      -52.3683  -29.3212   15.5619 H         1 UNK         0.0798 
    104 H104      -52.3693  -29.3887   13.8020 H         1 UNK         0.0798 
    105 H105      -53.0953  -30.6886   14.7359 H         1 UNK         0.0798 
    106 H106      -53.1276  -27.1266   14.4854 H         1 UNK         0.3198 
    107 H107      -53.9464  -24.8728   14.1374 H         1 UNK         0.0843 
    108 H108      -55.1477  -22.9763   15.1953 H         1 UNK         0.0831 
    109 H109      -56.0831  -24.0947   16.1870 H         1 UNK         0.0831 
    110 H110      -56.2761  -24.0915   14.4414 H         1 UNK         0.0831 
    111 H111      -52.5012  -24.4798   15.7954 H         1 UNK         0.3133 
    112 H112      -52.1920  -23.6656   18.3421 H         1 UNK         0.0566 
    113 H113      -51.5463  -24.9782   20.3681 H         1 UNK         0.0814 
    114 H114      -53.2876  -24.7944   20.2525 H         1 UNK         0.0814 
    115 H115      -52.5421  -26.3266   19.8208 H         1 UNK         0.0814 
    116 H116      -50.2925  -24.5359   17.6128 H         1 UNK         0.3091 
    117 H117      -48.5890  -26.6919   17.7233 H         1 UNK         0.0702 
    118 H118      -48.0723  -28.2454   15.8323 H         1 UNK         0.0785 
    119 H119      -49.7630  -28.1987   15.3328 H         1 UNK         0.0785 
    120 H120      -49.3169  -28.8994   16.8824 H         1 UNK         0.0785 
    121 H121      -48.7688  -25.9474   14.9426 H         1 UNK         0.2998 
    122 H122      -48.3535  -22.4360   15.4588 H         1 UNK         0.0697 
    123 H123      -46.5326  -22.8158   13.8093 H         1 UNK         0.0825 
    124 H124      -46.0398  -23.3715   15.4019 H         1 UNK         0.0825 
    125 H125      -46.5232  -24.5379   14.1785 H         1 UNK         0.0825 
    126 H126      -48.6830  -23.8441   13.0507 H         1 UNK         0.3029 
    127 H127      -52.2623  -24.0291   12.9811 H         1 UNK         0.0897 
    128 H128      -51.6570  -23.0434   10.7702 H         1 UNK         0.0792 
    129 H129      -51.5686  -21.8641   12.0683 H         1 UNK         0.0792 
    130 H130      -50.0930  -22.5502   11.4173 H         1 UNK         0.0792 
    131 H131      -50.1135  -25.1088   11.3680 H         1 UNK         0.3086 
    132 H132      -50.0353  -28.2915   12.9191 H         1 UNK         0.0583 
    133 H133      -52.1569  -28.4588   11.5926 H         1 UNK         0.1020 
    134 H134      -51.3940  -27.6392   10.2527 H         1 UNK         0.1020 
    135 H135      -51.8606  -31.7605    9.7961 H         1 UNK         0.0694 
    136 H136      -52.6923  -30.8545   11.0368 H         1 UNK         0.0694 
    137 H137      -48.8958  -27.2901   10.4906 H         1 UNK         0.2989 
    138 H138      -45.9661  -25.9112   12.0147 H         1 UNK         0.1055 
    139 H139      -45.5785  -28.3645   11.7284 H         1 UNK         0.0806 
    140 H140      -44.9339  -27.4594   10.3704 H         1 UNK         0.0806 
    141 H141      -46.4529  -28.3428   10.2044 H         1 UNK         0.0806 
    142 H142      -46.6932  -25.9835    9.2924 H         1 UNK         0.3061 
    143 H143      -48.8153  -24.0044    8.6641 H         1 UNK         0.0734 
    144 H144      -46.8676  -21.7957    9.4978 H         1 UNK         0.0832 
    145 H145      -47.9949  -21.6788    8.1465 H         1 UNK         0.0832 
    146 H146      -48.5955  -21.8413    9.7854 H         1 UNK         0.0832 
    147 H147      -47.4230  -24.6562    7.1204 H         1 UNK         0.3156 
    148 H148      -44.3982  -23.5622    5.9807 H         1 UNK         0.0589 
    149 H149      -43.4431  -25.8820    5.8165 H         1 UNK         0.0808 
    150 H150      -43.1462  -25.1486    7.3843 H         1 UNK         0.0808 
    151 H151      -44.4017  -26.3628    7.2159 H         1 UNK         0.0808 
    152 H152      -45.9733  -25.8950    5.2869 H         1 UNK         0.3098 
    153 H153      -48.6938  -24.1712    3.9106 H         1 UNK         0.0720 
    154 H154      -46.4794  -25.3420    2.1391 H         1 UNK         0.0791 
    155 H155      -47.1440  -23.7209    1.9946 H         1 UNK         0.0791 
    156 H156      -48.1665  -25.1105    1.6757 H         1 UNK         0.0791 
    157 H157      -47.9415  -26.8472    3.4763 H         1 UNK         0.3028 
@<TRIPOS>BOND
     1    1    2 1    
     2    1   82 1    
     3    1   83 1    
     4    1   84 1    
     5    2    3 2    
     6    2    4 am   BACKBONE|DICT|INTERRES
     7    4    5 1    
     8    4   85 1    
     9    5    6 1    
    10    5   80 1    
    11    5   86 1    
    12    6    7 1    
    13    6   87 1    
    14    6   88 1    
    15    7    8 1    
    16    8    9 1    
    17    8   89 1    
    18    8   90 1    
    19    9   10 ar   
    20    9   14 ar   
    21   10   11 ar   
    22   10   91 1    
    23   11   12 ar   
    24   11   58 1    
    25   12   13 ar   
    26   12   92 1    
    27   13   14 ar   
    28   13   15 1    
    29   14   93 1    
    30   15   16 1    
    31   15   94 1    
    32   15   95 1    
    33   16   17 1    
    34   17   18 1    
    35   17   96 1    
    36   17   97 1    
    37   18   19 1    
    38   18   22 1    
    39   18   98 1    
    40   19   20 am   BACKBONE|DICT|INTERRES
    41   19   21 2    
    42   20   99 1    
    43   20  100 1    
    44   22   23 am   BACKBONE|DICT|INTERRES
    45   22  101 1    
    46   23   24 2    
    47   23   25 1    
    48   25   26 1    
    49   25   27 1    
    50   25  102 1    
    51   26  103 1    
    52   26  104 1    
    53   26  105 1    
    54   27   28 am   BACKBONE|DICT|INTERRES
    55   27  106 1    
    56   28   29 2    
    57   28   30 1    
    58   30   31 1    
    59   30   32 1    
    60   30  107 1    
    61   31  108 1    
    62   31  109 1    
    63   31  110 1    
    64   32   33 am   BACKBONE|DICT|INTERRES
    65   32  111 1    
    66   33   34 2    
    67   33   35 1    
    68   35   36 1    
    69   35   37 1    
    70   35  112 1    
    71   36  113 1    
    72   36  114 1    
    73   36  115 1    
    74   37   38 am   BACKBONE|DICT|INTERRES
    75   37  116 1    
    76   38   39 2    
    77   38   40 1    
    78   40   41 1    
    79   40   42 1    
    80   40  117 1    
    81   41  118 1    
    82   41  119 1    
    83   41  120 1    
    84   42   43 am   BACKBONE|DICT|INTERRES
    85   42  121 1    
    86   43   44 2    
    87   43   45 1    
    88   45   46 1    
    89   45   47 1    
    90   45  122 1    
    91   46  123 1    
    92   46  124 1    
    93   46  125 1    
    94   47   48 am   BACKBONE|DICT|INTERRES
    95   47  126 1    
    96   48   49 2    
    97   48   50 1    
    98   50   51 1    
    99   50   52 1    
   100   50  127 1    
   101   51  128 1    
   102   51  129 1    
   103   51  130 1    
   104   52   53 am   BACKBONE|DICT|INTERRES
   105   52  131 1    
   106   53   54 2    
   107   53   55 1    
   108   55   56 1    
   109   55   59 1    
   110   55  132 1    
   111   56   57 1    
   112   56  133 1    
   113   56  134 1    
   114   57   58 1    
   115   58  135 1    
   116   58  136 1    
   117   59   60 am   BACKBONE|DICT|INTERRES
   118   59  137 1    
   119   60   61 2    
   120   60   62 1    
   121   62   63 1    
   122   62   64 1    
   123   62  138 1    
   124   63  139 1    
   125   63  140 1    
   126   63  141 1    
   127   64   65 am   BACKBONE|DICT|INTERRES
   128   64  142 1    
   129   65   66 2    
   130   65   67 1    
   131   67   68 1    
   132   67   69 1    
   133   67  143 1    
   134   68  144 1    
   135   68  145 1    
   136   68  146 1    
   137   69   70 am   BACKBONE|DICT|INTERRES
   138   69  147 1    
   139   70   71 2    
   140   70   72 1    
   141   72   73 1    
   142   72   74 1    
   143   72  148 1    
   144   73  149 1    
   145   73  150 1    
   146   73  151 1    
   147   74   75 am   BACKBONE|DICT|INTERRES
   148   74  152 1    
   149   75   76 2    
   150   75   77 1    
   151   77   78 1    
   152   77   79 1    
   153   77  153 1    
   154   78  154 1    
   155   78  155 1    
   156   78  156 1    
   157   79   80 am   BACKBONE|DICT|INTERRES
   158   79  157 1    
   159   80   81 2    
@<TRIPOS>SUBSTRUCTURE
     1 UNK         1 GROUP             0       ****    0 ROOT    
