@<TRIPOS>MOLECULE
3R207
157   159    1
SMALL
USER_CHARGES


@<TRIPOS>ATOM
      1 CA        -44.1501  -27.8810    6.4559 C.3       0 UNK        -0.1975 
      2 C         -45.5103  -27.6956    5.8008 C.2       0 UNK         0.4852 
      3 O         -45.6686  -26.8078    4.9610 O.2       0 UNK        -0.5216 
      4 N         -46.4950  -28.5247    6.1773 N.am      1 UNK        -0.4461 
      5 CA        -47.8789  -28.4448    5.6976 C.3       1 UNK         0.0864 
      6 C6        -48.7035  -29.6809    6.1345 C.3       14 UNK        -0.0898 
      7 S7        -50.2651  -29.8399    5.2039 S.3       14 UNK        -0.2598 
      8 C8        -51.3642  -30.6213    6.4349 C.3       14 UNK         0.0286 
      9 C9        -51.7078  -29.7466    7.6408 C.ar      14 UNK        -0.0844 
     10 C10       -51.9895  -28.3810    7.5052 C.ar      14 UNK        -0.0881 
     11 C11       -52.3452  -27.6034    8.6140 C.ar      14 UNK        -0.0643 
     12 C12       -52.4418  -28.2209    9.8681 C.ar      14 UNK        -0.0930 
     13 C13       -52.1591  -29.5793   10.0233 C.ar      14 UNK        -0.0827 
     14 C14       -51.7871  -30.3337    8.9073 C.ar      14 UNK        -0.1249 
     15 C15       -52.2332  -30.2194   11.4029 C.3       14 UNK         0.0141 
     16 S16       -53.5148  -31.5114   11.4699 S.3       14 UNK        -0.2313 
     17 C17       -54.1964  -31.2914   13.1472 C.3       14 UNK        -0.0915 
     18 CA        -55.5942  -30.6231   13.1045 C.3       13 UNK         0.0968 
     19 C         -56.2806  -30.6608   14.4957 C.2       13 UNK         0.5732 
     20 N         -56.8913  -31.7826   14.8521 N.am      13 UNK        -0.7310 
     21 O         -56.2400  -29.7037   15.2662 O.2       13 UNK        -0.5035 
     22 N         -55.5179  -29.2586   12.5696 N.am      13 UNK        -0.4233 
     23 C         -56.5265  -28.6053   11.9876 C.2       13 UNK         0.4989 
     24 O         -57.6342  -29.0995   11.7677 O.2       13 UNK        -0.4996 
     25 CA        -56.2452  -27.1373   11.6193 C.3       12 UNK         0.0216 
     26 CB        -57.2909  -26.5532   10.6517 C.3       12 UNK        -0.1964 
     27 N         -56.1818  -26.3028   12.8211 N.am      12 UNK        -0.4276 
     28 C         -55.1441  -26.2604   13.6645 C.2       12 UNK         0.5020 
     29 O         -54.0878  -26.8738   13.4807 O.2       12 UNK        -0.5489 
     30 CA        -55.3362  -25.4356   14.9424 C.3       11 UNK         0.0294 
     31 CB        -56.2202  -26.2044   15.9461 C.3       11 UNK        -0.2019 
     32 N         -54.0180  -25.1804   15.5105 N.am      11 UNK        -0.4493 
     33 C         -53.7144  -24.3919   16.5474 C.2       11 UNK         0.4932 
     34 O         -54.5473  -23.7176   17.1559 O.2       11 UNK        -0.5029 
     35 CA        -52.2298  -24.3294   16.9671 C.3       10 UNK         0.0280 
     36 CB        -52.0452  -24.0866   18.4800 C.3       10 UNK        -0.1976 
     37 N         -51.4390  -25.4818   16.5139 N.am      10 UNK        -0.4242 
     38 C         -51.5702  -26.7685   16.8737 C.2       10 UNK         0.5072 
     39 O         -52.3730  -27.1717   17.7160 O.2       10 UNK        -0.5224 
     40 CA        -50.6682  -27.7920   16.1585 C.3       9 UNK         0.0343 
     41 CB        -51.4762  -28.5804   15.1139 C.3       9 UNK        -0.2003 
     42 N         -49.5043  -27.1831   15.5064 N.am      9 UNK        -0.4272 
     43 C         -48.4030  -26.7773   16.1550 C.2       9 UNK         0.4988 
     44 O         -48.2304  -26.9188   17.3662 O.2       9 UNK        -0.5108 
     45 CA        -47.3172  -26.0800   15.3174 C.3       8 UNK         0.0248 
     46 CB        -46.5124  -27.1060   14.5038 C.3       8 UNK        -0.2001 
     47 N         -47.8507  -25.0486   14.4234 N.am      8 UNK        -0.4140 
     48 C         -48.4606  -23.9231   14.8253 C.2       8 UNK         0.5028 
     49 O         -48.6405  -23.6204   16.0045 O.2       8 UNK        -0.5428 
     50 CA        -48.9882  -22.9892   13.7249 C.3       7 UNK         0.0264 
     51 CB        -47.8619  -22.1167   13.1463 C.3       7 UNK        -0.1988 
     52 N         -49.6457  -23.7389   12.6530 N.am      7 UNK        -0.4454 
     53 C         -50.8689  -24.2783   12.7666 C.2       7 UNK         0.5027 
     54 O         -51.5831  -24.1292   13.7567 O.2       7 UNK        -0.5083 
     55 CA        -51.3820  -25.1505   11.6023 C.3       6 UNK         0.0844 
     56 C56       -52.2043  -24.3057   10.5942 C.3       14 UNK        -0.0967 
     57 S57       -53.5052  -25.2620    9.7424 S.3       14 UNK        -0.2604 
     58 C58       -52.5848  -26.1048    8.4106 C.3       14 UNK         0.0134 
     59 N         -50.2921  -25.8882   10.9529 N.am      6 UNK        -0.4116 
     60 C         -49.5755  -26.8571   11.5397 C.2       5 UNK         0.5034 
     61 O         -49.7826  -27.2724   12.6785 O.2       5 UNK        -0.5045 
     62 CA        -48.3781  -27.4086   10.7525 C.3       5 UNK         0.0224 
     63 CB        -48.7888  -28.5924    9.8707 C.3       5 UNK        -0.1978 
     64 N         -47.6928  -26.3971    9.9406 N.am      5 UNK        -0.4737 
     65 C         -46.9985  -25.3817   10.4691 C.2       4 UNK         0.5027 
     66 O         -46.9966  -25.1353   11.6752 O.2       4 UNK        -0.5211 
     67 CA        -46.1494  -24.5053    9.5415 C.3       4 UNK         0.0297 
     68 CB        -44.7348  -25.0972    9.4112 C.3       4 UNK        -0.1993 
     69 N         -46.7180  -24.2789    8.2054 N.am      4 UNK        -0.4486 
     70 C         -46.5143  -23.1392    7.5217 C.2       3 UNK         0.4961 
     71 O         -45.9372  -22.1603    7.9984 O.2       3 UNK        -0.5105 
     72 CA        -46.9762  -23.0473    6.0547 C.3       3 UNK         0.0299 
     73 CB        -45.7625  -23.1122    5.1122 C.3       3 UNK        -0.1972 
     74 N         -47.9315  -24.0767    5.6565 N.am      3 UNK        -0.4305 
     75 C         -49.2355  -24.0717    5.9622 C.2       2 UNK         0.5006 
     76 O         -49.7845  -23.1797    6.6094 O.2       2 UNK        -0.5106 
     77 CA        -50.0745  -25.2694    5.4748 C.3       2 UNK         0.0296 
     78 CB        -50.8308  -24.9046    4.1875 C.3       2 UNK        -0.2002 
     79 N         -49.3289  -26.5147    5.2565 N.am      2 UNK        -0.4032 
     80 C         -48.5344  -27.1234    6.1483 C.2       1 UNK         0.5000 
     81 O         -48.2880  -26.6707    7.2701 O.2       1 UNK        -0.5238 
     82 H82       -43.4487  -28.3155    5.7443 H         1 UNK         0.0889 
     83 H83       -44.2039  -28.5337    7.3270 H         1 UNK         0.0889 
     84 H84       -43.7539  -26.9185    6.7782 H         1 UNK         0.0889 
     85 H85       -46.3128  -29.2222    6.8840 H         1 UNK         0.3028 
     86 H86       -47.8249  -28.4430    4.6064 H         1 UNK         0.0864 
     87 H87       -48.1318  -30.5930    5.9558 H         1 UNK         0.0720 
     88 H88       -48.9062  -29.6590    7.2054 H         1 UNK         0.0720 
     89 H89       -50.9028  -31.5555    6.7593 H         1 UNK         0.0814 
     90 H90       -52.2954  -30.8974    5.9390 H         1 UNK         0.0814 
     91 H91       -51.9286  -27.9188    6.5297 H         1 UNK         0.1469 
     92 H92       -52.7172  -27.6472   10.7400 H         1 UNK         0.1381 
     93 H93       -51.5742  -31.3872    9.0283 H         1 UNK         0.1206 
     94 H94       -51.2670  -30.6581   11.6549 H         1 UNK         0.0813 
     95 H95       -52.4287  -29.4572   12.1588 H         1 UNK         0.0813 
     96 H96       -54.2611  -32.2834   13.5978 H         1 UNK         0.0638 
     97 H97       -53.5059  -30.7212   13.7711 H         1 UNK         0.0638 
     98 H98       -56.2201  -31.2085   12.4274 H         1 UNK         0.0568 
     99 H99       -56.9241  -32.5791   14.2349 H         1 UNK         0.3450 
    100 H100      -57.3325  -31.8315   15.7570 H         1 UNK         0.3450 
    101 H101      -54.6956  -28.7199   12.8177 H         1 UNK         0.2987 
    102 H102      -55.2775  -27.1115   11.1155 H         1 UNK         0.0766 
    103 H103      -57.0245  -25.5404   10.3483 H         1 UNK         0.0798 
    104 H104      -58.2861  -26.5215   11.0968 H         1 UNK         0.0798 
    105 H105      -57.3574  -27.1537    9.7434 H         1 UNK         0.0798 
    106 H106      -57.0241  -25.8003   13.0622 H         1 UNK         0.3198 
    107 H107      -55.7997  -24.4816   14.6836 H         1 UNK         0.0843 
    108 H108      -55.7434  -27.1323   16.2654 H         1 UNK         0.0831 
    109 H109      -57.1833  -26.4692   15.5082 H         1 UNK         0.0831 
    110 H110      -56.4286  -25.6134   16.8376 H         1 UNK         0.0831 
    111 H111      -53.2707  -25.6588   15.0191 H         1 UNK         0.3133 
    112 H112      -51.8111  -23.4661   16.4481 H         1 UNK         0.0566 
    113 H113      -50.9894  -24.0398   18.7470 H         1 UNK         0.0814 
    114 H114      -52.4964  -23.1409   18.7825 H         1 UNK         0.0814 
    115 H115      -52.5096  -24.8719   19.0770 H         1 UNK         0.0814 
    116 H116      -50.7599  -25.2687   15.7959 H         1 UNK         0.3091 
    117 H117      -50.3146  -28.4975   16.9133 H         1 UNK         0.0702 
    118 H118      -52.3502  -29.0528   15.5648 H         1 UNK         0.0785 
    119 H119      -50.8763  -29.3693   14.6602 H         1 UNK         0.0785 
    120 H120      -51.8338  -27.9332   14.3131 H         1 UNK         0.0785 
    121 H121      -49.5528  -27.0840   14.4933 H         1 UNK         0.2998 
    122 H122      -46.6314  -25.5866   16.0093 H         1 UNK         0.0697 
    123 H123      -47.1445  -27.6500   13.8022 H         1 UNK         0.0825 
    124 H124      -46.0456  -27.8425   15.1591 H         1 UNK         0.0825 
    125 H125      -45.7159  -26.6262   13.9344 H         1 UNK         0.0825 
    126 H126      -47.6892  -25.1796   13.4271 H         1 UNK         0.3029 
    127 H127      -49.7237  -22.3222   14.1812 H         1 UNK         0.0897 
    128 H128      -48.2426  -21.4251   12.3947 H         1 UNK         0.0792 
    129 H129      -47.0742  -22.7124   12.6852 H         1 UNK         0.0792 
    130 H130      -47.3964  -21.5175   13.9300 H         1 UNK         0.0792 
    131 H131      -49.0913  -23.9435   11.8340 H         1 UNK         0.3086 
    132 H132      -52.0471  -25.8847   12.0600 H         1 UNK         0.0583 
    133 H133      -52.7328  -23.4994   11.1082 H         1 UNK         0.1020 
    134 H134      -51.5605  -23.8085    9.8664 H         1 UNK         0.1020 
    135 H135      -53.1330  -25.9516    7.4799 H         1 UNK         0.0694 
    136 H136      -51.6192  -25.6170    8.2888 H         1 UNK         0.0694 
    137 H137      -50.0410  -25.6149   10.0151 H         1 UNK         0.2989 
    138 H138      -47.6595  -27.7817   11.4847 H         1 UNK         0.1055 
    139 H139      -49.2579  -29.3778   10.4640 H         1 UNK         0.0806 
    140 H140      -47.9251  -29.0338    9.3741 H         1 UNK         0.0806 
    141 H141      -49.5010  -28.2893    9.1042 H         1 UNK         0.0806 
    142 H142      -47.7285  -26.5330    8.9311 H         1 UNK         0.3061 
    143 H143      -46.0631  -23.5471   10.0592 H         1 UNK         0.0734 
    144 H144      -44.0723  -24.4315    8.8578 H         1 UNK         0.0832 
    145 H145      -44.2849  -25.2564   10.3924 H         1 UNK         0.0832 
    146 H146      -44.7501  -26.0595    8.8995 H         1 UNK         0.0832 
    147 H147      -47.2338  -25.0393    7.7728 H         1 UNK         0.3156 
    148 H148      -47.4499  -22.0718    5.9250 H         1 UNK         0.0589 
    149 H149      -45.2373  -24.0646    5.1958 H         1 UNK         0.0808 
    150 H150      -46.0589  -22.9817    4.0712 H         1 UNK         0.0808 
    151 H151      -45.0443  -22.3241    5.3431 H         1 UNK         0.0808 
    152 H152      -47.5593  -24.8636    5.1424 H         1 UNK         0.3098 
    153 H153      -50.8137  -25.4761    6.2452 H         1 UNK         0.0720 
    154 H154      -51.5211  -25.6957    3.8934 H         1 UNK         0.0791 
    155 H155      -50.1483  -24.7255    3.3557 H         1 UNK         0.0791 
    156 H156      -51.4223  -23.9979    4.3247 H         1 UNK         0.0791 
    157 H157      -49.4682  -26.9623    4.3617 H         1 UNK         0.3028 
@<TRIPOS>BOND
     1    1    2 1    
     2    1   82 1    
     3    1   83 1    
     4    1   84 1    
     5    2    3 2    
     6    2    4 am   BACKBONE|DICT|INTERRES
     7    4    5 1    
     8    4   85 1    
     9    5    6 1    
    10    5   80 1    
    11    5   86 1    
    12    6    7 1    
    13    6   87 1    
    14    6   88 1    
    15    7    8 1    
    16    8    9 1    
    17    8   89 1    
    18    8   90 1    
    19    9   10 ar   
    20    9   14 ar   
    21   10   11 ar   
    22   10   91 1    
    23   11   12 ar   
    24   11   58 1    
    25   12   13 ar   
    26   12   92 1    
    27   13   14 ar   
    28   13   15 1    
    29   14   93 1    
    30   15   16 1    
    31   15   94 1    
    32   15   95 1    
    33   16   17 1    
    34   17   18 1    
    35   17   96 1    
    36   17   97 1    
    37   18   19 1    
    38   18   22 1    
    39   18   98 1    
    40   19   20 am   BACKBONE|DICT|INTERRES
    41   19   21 2    
    42   20   99 1    
    43   20  100 1    
    44   22   23 am   BACKBONE|DICT|INTERRES
    45   22  101 1    
    46   23   24 2    
    47   23   25 1    
    48   25   26 1    
    49   25   27 1    
    50   25  102 1    
    51   26  103 1    
    52   26  104 1    
    53   26  105 1    
    54   27   28 am   BACKBONE|DICT|INTERRES
    55   27  106 1    
    56   28   29 2    
    57   28   30 1    
    58   30   31 1    
    59   30   32 1    
    60   30  107 1    
    61   31  108 1    
    62   31  109 1    
    63   31  110 1    
    64   32   33 am   BACKBONE|DICT|INTERRES
    65   32  111 1    
    66   33   34 2    
    67   33   35 1    
    68   35   36 1    
    69   35   37 1    
    70   35  112 1    
    71   36  113 1    
    72   36  114 1    
    73   36  115 1    
    74   37   38 am   BACKBONE|DICT|INTERRES
    75   37  116 1    
    76   38   39 2    
    77   38   40 1    
    78   40   41 1    
    79   40   42 1    
    80   40  117 1    
    81   41  118 1    
    82   41  119 1    
    83   41  120 1    
    84   42   43 am   BACKBONE|DICT|INTERRES
    85   42  121 1    
    86   43   44 2    
    87   43   45 1    
    88   45   46 1    
    89   45   47 1    
    90   45  122 1    
    91   46  123 1    
    92   46  124 1    
    93   46  125 1    
    94   47   48 am   BACKBONE|DICT|INTERRES
    95   47  126 1    
    96   48   49 2    
    97   48   50 1    
    98   50   51 1    
    99   50   52 1    
   100   50  127 1    
   101   51  128 1    
   102   51  129 1    
   103   51  130 1    
   104   52   53 am   BACKBONE|DICT|INTERRES
   105   52  131 1    
   106   53   54 2    
   107   53   55 1    
   108   55   56 1    
   109   55   59 1    
   110   55  132 1    
   111   56   57 1    
   112   56  133 1    
   113   56  134 1    
   114   57   58 1    
   115   58  135 1    
   116   58  136 1    
   117   59   60 am   BACKBONE|DICT|INTERRES
   118   59  137 1    
   119   60   61 2    
   120   60   62 1    
   121   62   63 1    
   122   62   64 1    
   123   62  138 1    
   124   63  139 1    
   125   63  140 1    
   126   63  141 1    
   127   64   65 am   BACKBONE|DICT|INTERRES
   128   64  142 1    
   129   65   66 2    
   130   65   67 1    
   131   67   68 1    
   132   67   69 1    
   133   67  143 1    
   134   68  144 1    
   135   68  145 1    
   136   68  146 1    
   137   69   70 am   BACKBONE|DICT|INTERRES
   138   69  147 1    
   139   70   71 2    
   140   70   72 1    
   141   72   73 1    
   142   72   74 1    
   143   72  148 1    
   144   73  149 1    
   145   73  150 1    
   146   73  151 1    
   147   74   75 am   BACKBONE|DICT|INTERRES
   148   74  152 1    
   149   75   76 2    
   150   75   77 1    
   151   77   78 1    
   152   77   79 1    
   153   77  153 1    
   154   78  154 1    
   155   78  155 1    
   156   78  156 1    
   157   79   80 am   BACKBONE|DICT|INTERRES
   158   79  157 1    
   159   80   81 2    
@<TRIPOS>SUBSTRUCTURE
     1 UNK         1 GROUP             0       ****    0 ROOT    
