@<TRIPOS>MOLECULE
3R207
157   159    1
SMALL
USER_CHARGES


@<TRIPOS>ATOM
      1 CA        -52.6309  -31.9575    6.8243 C.3       0 UNK        -0.1975 
      2 C         -51.7152  -30.7624    7.0383 C.2       0 UNK         0.4852 
      3 O         -51.7289  -30.1766    8.1208 O.2       0 UNK        -0.5216 
      4 N         -50.9339  -30.3962    6.0125 N.am      1 UNK        -0.4461 
      5 CA        -49.9601  -29.2979    6.0014 C.3       1 UNK         0.0864 
      6 C6        -50.5942  -27.8865    6.1679 C.3       14 UNK        -0.0898 
      7 S7        -51.6057  -27.4069    4.7290 S.3       14 UNK        -0.2598 
      8 C8        -53.2988  -27.7785    5.2875 C.3       14 UNK         0.0286 
      9 C9        -53.7469  -26.8908    6.4399 C.ar      14 UNK        -0.0844 
     10 C10       -53.9840  -25.5291    6.2291 C.ar      14 UNK        -0.0881 
     11 C11       -54.4320  -24.7153    7.2742 C.ar      14 UNK        -0.0643 
     12 C12       -54.6560  -25.2768    8.5339 C.ar      14 UNK        -0.0930 
     13 C13       -54.4139  -26.6355    8.7585 C.ar      14 UNK        -0.0827 
     14 C14       -53.9570  -27.4371    7.7096 C.ar      14 UNK        -0.1249 
     15 C15       -54.6834  -27.2383   10.1271 C.3       14 UNK         0.0141 
     16 S16       -53.4522  -26.7112   11.3546 S.3       14 UNK        -0.2313 
     17 C17       -52.1236  -27.9467   11.1462 C.3       14 UNK        -0.0915 
     18 CA        -52.4102  -29.3173   11.8246 C.3       13 UNK         0.0968 
     19 C         -51.1555  -30.2339   11.8239 C.2       13 UNK         0.5732 
     20 N         -50.7573  -30.7481   10.6701 N.am      13 UNK        -0.7310 
     21 O         -50.5155  -30.4654   12.8480 O.2       13 UNK        -0.5035 
     22 N         -52.9755  -29.1754   13.1755 N.am      13 UNK        -0.4233 
     23 C         -53.8208  -30.0550   13.7286 C.2       13 UNK         0.4989 
     24 O         -54.2260  -31.0674   13.1527 O.2       13 UNK        -0.4996 
     25 CA        -54.3247  -29.7310   15.1486 C.3       12 UNK         0.0216 
     26 CB        -55.1313  -30.8804   15.7915 C.3       12 UNK        -0.1964 
     27 N         -53.2579  -29.2686   16.0408 N.am      12 UNK        -0.4276 
     28 C         -52.1729  -29.9473   16.4488 C.2       12 UNK         0.5020 
     29 O         -51.9619  -31.1302   16.1780 O.2       12 UNK        -0.5489 
     30 CA        -51.1398  -29.1865   17.3047 C.3       11 UNK         0.0294 
     31 CB        -49.7391  -29.2711   16.6717 C.3       11 UNK        -0.2019 
     32 N         -51.4946  -27.7745   17.4681 N.am      11 UNK        -0.4493 
     33 C         -52.1109  -27.2490   18.5367 C.2       11 UNK         0.4932 
     34 O         -52.3766  -27.8875   19.5550 O.2       11 UNK        -0.5029 
     35 CA        -52.5245  -25.7648   18.4563 C.3       10 UNK         0.0280 
     36 CB        -51.4800  -24.8804   19.1559 C.3       10 UNK        -0.1976 
     37 N         -52.7273  -25.2774   17.0878 N.am      10 UNK        -0.4242 
     38 C         -53.6667  -25.7234   16.2401 C.2       10 UNK         0.5072 
     39 O         -54.5164  -26.5605   16.5426 O.2       10 UNK        -0.5224 
     40 CA        -53.5933  -25.2198   14.7874 C.3       9 UNK         0.0343 
     41 CB        -54.4630  -23.9680   14.6004 C.3       9 UNK        -0.2003 
     42 N         -52.2259  -24.9402   14.3332 N.am      9 UNK        -0.4272 
     43 C         -51.2236  -25.8318   14.3018 C.2       9 UNK         0.4988 
     44 O         -51.3835  -27.0163   14.6009 O.2       9 UNK        -0.5108 
     45 CA        -49.8128  -25.3249   13.9329 C.3       8 UNK         0.0248 
     46 CB        -48.9713  -26.3887   13.2096 C.3       8 UNK        -0.2001 
     47 N         -49.8252  -24.0949   13.1359 N.am      8 UNK        -0.4140 
     48 C         -49.9398  -22.8561   13.6381 C.2       8 UNK         0.5028 
     49 O         -50.0068  -22.6190   14.8444 O.2       8 UNK        -0.5428 
     50 CA        -50.0462  -21.6860   12.6429 C.3       7 UNK         0.0264 
     51 CB        -48.7108  -20.9326   12.5491 C.3       7 UNK        -0.1988 
     52 N         -50.4762  -22.0947   11.3019 N.am      7 UNK        -0.4454 
     53 C         -51.7044  -22.5518   11.0055 C.2       7 UNK         0.5027 
     54 O         -52.6101  -22.6279   11.8361 O.2       7 UNK        -0.5083 
     55 CA        -51.9809  -23.0009    9.5527 C.3       6 UNK         0.0844 
     56 C56       -52.8960  -21.9681    8.8431 C.3       14 UNK        -0.0967 
     57 S57       -53.1456  -22.2742    7.0574 S.3       14 UNK        -0.2604 
     58 C58       -54.6900  -23.2365    7.0299 C.3       14 UNK         0.0134 
     59 N         -50.7709  -23.2947    8.7789 N.am      6 UNK        -0.4116 
     60 C         -49.8814  -24.2585    9.0459 C.2       5 UNK         0.5034 
     61 O         -49.9307  -24.9770   10.0466 O.2       5 UNK        -0.5045 
     62 CA        -48.7296  -24.4476    8.0384 C.3       5 UNK         0.0224 
     63 CB        -48.6822  -23.3948    6.9071 C.3       5 UNK        -0.1978 
     64 N         -47.4289  -24.5412    8.7073 N.am      5 UNK        -0.4737 
     65 C         -46.8751  -23.6422    9.5359 C.2       4 UNK         0.5027 
     66 O         -47.3891  -22.5531    9.7938 O.2       4 UNK        -0.5211 
     67 CA        -45.5416  -24.0184   10.2148 C.3       4 UNK         0.0297 
     68 CB        -45.6570  -23.8913   11.7440 C.3       4 UNK        -0.1993 
     69 N         -45.1031  -25.3796    9.8889 N.am      4 UNK        -0.4486 
     70 C         -44.2900  -25.7089    8.8754 C.2       3 UNK         0.4961 
     71 O         -43.7410  -24.8887    8.1396 O.2       3 UNK        -0.5105 
     72 CA        -44.0786  -27.2155    8.6190 C.3       3 UNK         0.0299 
     73 CB        -42.8425  -27.7219    9.3796 C.3       3 UNK        -0.1972 
     74 N         -45.2416  -28.0442    8.9677 N.am      3 UNK        -0.4305 
     75 C         -46.4465  -27.9409    8.3897 C.2       2 UNK         0.5006 
     76 O         -46.6992  -27.1446    7.4825 O.2       2 UNK        -0.5106 
     77 CA        -47.5735  -28.7970    8.9909 C.3       2 UNK         0.0296 
     78 CB        -48.0193  -28.1868   10.3281 C.3       2 UNK        -0.2002 
     79 N         -48.7290  -28.8446    8.0934 N.am      2 UNK        -0.4032 
     80 C         -48.7987  -29.5842    6.9786 C.2       1 UNK         0.5000 
     81 O         -47.9749  -30.4545    6.6855 O.2       1 UNK        -0.5238 
     82 H82       -52.5303  -32.3762    5.8232 H         1 UNK         0.0889 
     83 H83       -53.6699  -31.6611    6.9660 H         1 UNK         0.0889 
     84 H84       -52.3982  -32.7402    7.5458 H         1 UNK         0.0889 
     85 H85       -50.9621  -30.9409    5.1620 H         1 UNK         0.3028 
     86 H86       -49.5004  -29.3232    5.0118 H         1 UNK         0.0864 
     87 H87       -51.1793  -27.8078    7.0846 H         1 UNK         0.0720 
     88 H88       -49.8107  -27.1312    6.2409 H         1 UNK         0.0720 
     89 H89       -53.3700  -28.8325    5.5561 H         1 UNK         0.0814 
     90 H90       -53.9807  -27.6373    4.4478 H         1 UNK         0.0814 
     91 H91       -53.8176  -25.1018    5.2495 H         1 UNK         0.1469 
     92 H92       -55.0116  -24.6563    9.3452 H         1 UNK         0.1381 
     93 H93       -53.7771  -28.4896    7.8796 H         1 UNK         0.1206 
     94 H94       -54.7196  -28.3274   10.0790 H         1 UNK         0.0813 
     95 H95       -55.6695  -26.9185   10.4665 H         1 UNK         0.0813 
     96 H96       -51.9297  -28.0776   10.0800 H         1 UNK         0.0638 
     97 H97       -51.2205  -27.5061   11.5631 H         1 UNK         0.0638 
     98 H98       -53.1550  -29.8206   11.2055 H         1 UNK         0.0568 
     99 H99       -51.2281  -30.5258    9.7939 H         1 UNK         0.3450 
    100 H100      -49.9435  -31.3399   10.6596 H         1 UNK         0.3450 
    101 H101      -52.6072  -28.4090   13.7279 H         1 UNK         0.2987 
    102 H102      -55.0048  -28.8856   15.0341 H         1 UNK         0.0766 
    103 H103      -54.5378  -31.7900   15.8883 H         1 UNK         0.0798 
    104 H104      -55.4902  -30.6062   16.7835 H         1 UNK         0.0798 
    105 H105      -56.0060  -31.1276   15.1888 H         1 UNK         0.0798 
    106 H106      -53.3536  -28.3071   16.3466 H         1 UNK         0.3198 
    107 H107      -51.1021  -29.6784   18.2789 H         1 UNK         0.0843 
    108 H108      -49.4010  -30.3063   16.6090 H         1 UNK         0.0831 
    109 H109      -49.0014  -28.7255   17.2601 H         1 UNK         0.0831 
    110 H110      -49.7290  -28.8679   15.6585 H         1 UNK         0.0831 
    111 H111      -51.3471  -27.1968   16.6475 H         1 UNK         0.3133 
    112 H112      -53.4724  -25.6608   18.9883 H         1 UNK         0.0566 
    113 H113      -51.7972  -23.8379   19.1862 H         1 UNK         0.0814 
    114 H114      -51.3267  -25.1997   20.1879 H         1 UNK         0.0814 
    115 H115      -50.5120  -24.9239   18.6548 H         1 UNK         0.0814 
    116 H116      -52.0726  -24.5866   16.7491 H         1 UNK         0.3091 
    117 H117      -53.9964  -26.0122   14.1548 H         1 UNK         0.0702 
    118 H118      -54.5120  -23.6763   13.5510 H         1 UNK         0.0785 
    119 H119      -54.0794  -23.1192   15.1678 H         1 UNK         0.0785 
    120 H120      -55.4865  -24.1493   14.9318 H         1 UNK         0.0785 
    121 H121      -52.0309  -23.9911   14.0468 H         1 UNK         0.2998 
    122 H122      -49.3154  -25.1207   14.8831 H         1 UNK         0.0697 
    123 H123      -49.3368  -26.5556   12.2002 H         1 UNK         0.0825 
    124 H124      -48.9868  -27.3470   13.7304 H         1 UNK         0.0825 
    125 H125      -47.9283  -26.0840   13.1382 H         1 UNK         0.0825 
    126 H126      -49.8223  -24.2136   12.1285 H         1 UNK         0.3029 
    127 H127      -50.7959  -20.9960   13.0367 H         1 UNK         0.0897 
    128 H128      -48.7800  -20.0786   11.8752 H         1 UNK         0.0792 
    129 H129      -48.4098  -20.5509   13.5257 H         1 UNK         0.0792 
    130 H130      -47.9087  -21.5780   12.1931 H         1 UNK         0.0792 
    131 H131      -49.7725  -22.0799   10.5746 H         1 UNK         0.3086 
    132 H132      -52.5277  -23.9416    9.6279 H         1 UNK         0.0583 
    133 H133      -53.8670  -21.9201    9.3400 H         1 UNK         0.1020 
    134 H134      -52.4713  -20.9660    8.9332 H         1 UNK         0.1020 
    135 H135      -55.3979  -22.8361    7.7571 H         1 UNK         0.0694 
    136 H136      -55.1596  -23.1114    6.0531 H         1 UNK         0.0694 
    137 H137      -50.6555  -22.7548    7.9339 H         1 UNK         0.2989 
    138 H138      -48.9006  -25.4193    7.5757 H         1 UNK         0.1055 
    139 H139      -47.8580  -23.5986    6.2232 H         1 UNK         0.0806 
    140 H140      -48.5451  -22.3830    7.2909 H         1 UNK         0.0806 
    141 H141      -49.5949  -23.4088    6.3095 H         1 UNK         0.0806 
    142 H142      -46.9235  -25.4009    8.5254 H         1 UNK         0.3061 
    143 H143      -44.7922  -23.3016    9.8726 H         1 UNK         0.0734 
    144 H144      -45.8630  -22.8608   12.0348 H         1 UNK         0.0832 
    145 H145      -46.4627  -24.5081   12.1415 H         1 UNK         0.0832 
    146 H146      -44.7311  -24.1830   12.2399 H         1 UNK         0.0832 
    147 H147      -45.4975  -26.1251   10.4435 H         1 UNK         0.3156 
    148 H148      -43.8944  -27.3410    7.5498 H         1 UNK         0.0589 
    149 H149      -42.9729  -27.6486   10.4600 H         1 UNK         0.0808 
    150 H150      -42.6240  -28.7618    9.1361 H         1 UNK         0.0808 
    151 H151      -41.9583  -27.1384    9.1184 H         1 UNK         0.0808 
    152 H152      -45.1124  -28.7176    9.7101 H         1 UNK         0.3098 
    153 H153      -47.2053  -29.8113    9.1586 H         1 UNK         0.0720 
    154 H154      -48.8489  -28.7401   10.7637 H         1 UNK         0.0791 
    155 H155      -48.3376  -27.1515   10.2033 H         1 UNK         0.0791 
    156 H156      -47.2124  -28.1962   11.0616 H         1 UNK         0.0791 
    157 H157      -49.4598  -28.1715    8.2658 H         1 UNK         0.3028 
@<TRIPOS>BOND
     1    1    2 1    
     2    1   82 1    
     3    1   83 1    
     4    1   84 1    
     5    2    3 2    
     6    2    4 am   BACKBONE|DICT|INTERRES
     7    4    5 1    
     8    4   85 1    
     9    5    6 1    
    10    5   80 1    
    11    5   86 1    
    12    6    7 1    
    13    6   87 1    
    14    6   88 1    
    15    7    8 1    
    16    8    9 1    
    17    8   89 1    
    18    8   90 1    
    19    9   10 ar   
    20    9   14 ar   
    21   10   11 ar   
    22   10   91 1    
    23   11   12 ar   
    24   11   58 1    
    25   12   13 ar   
    26   12   92 1    
    27   13   14 ar   
    28   13   15 1    
    29   14   93 1    
    30   15   16 1    
    31   15   94 1    
    32   15   95 1    
    33   16   17 1    
    34   17   18 1    
    35   17   96 1    
    36   17   97 1    
    37   18   19 1    
    38   18   22 1    
    39   18   98 1    
    40   19   20 am   BACKBONE|DICT|INTERRES
    41   19   21 2    
    42   20   99 1    
    43   20  100 1    
    44   22   23 am   BACKBONE|DICT|INTERRES
    45   22  101 1    
    46   23   24 2    
    47   23   25 1    
    48   25   26 1    
    49   25   27 1    
    50   25  102 1    
    51   26  103 1    
    52   26  104 1    
    53   26  105 1    
    54   27   28 am   BACKBONE|DICT|INTERRES
    55   27  106 1    
    56   28   29 2    
    57   28   30 1    
    58   30   31 1    
    59   30   32 1    
    60   30  107 1    
    61   31  108 1    
    62   31  109 1    
    63   31  110 1    
    64   32   33 am   BACKBONE|DICT|INTERRES
    65   32  111 1    
    66   33   34 2    
    67   33   35 1    
    68   35   36 1    
    69   35   37 1    
    70   35  112 1    
    71   36  113 1    
    72   36  114 1    
    73   36  115 1    
    74   37   38 am   BACKBONE|DICT|INTERRES
    75   37  116 1    
    76   38   39 2    
    77   38   40 1    
    78   40   41 1    
    79   40   42 1    
    80   40  117 1    
    81   41  118 1    
    82   41  119 1    
    83   41  120 1    
    84   42   43 am   BACKBONE|DICT|INTERRES
    85   42  121 1    
    86   43   44 2    
    87   43   45 1    
    88   45   46 1    
    89   45   47 1    
    90   45  122 1    
    91   46  123 1    
    92   46  124 1    
    93   46  125 1    
    94   47   48 am   BACKBONE|DICT|INTERRES
    95   47  126 1    
    96   48   49 2    
    97   48   50 1    
    98   50   51 1    
    99   50   52 1    
   100   50  127 1    
   101   51  128 1    
   102   51  129 1    
   103   51  130 1    
   104   52   53 am   BACKBONE|DICT|INTERRES
   105   52  131 1    
   106   53   54 2    
   107   53   55 1    
   108   55   56 1    
   109   55   59 1    
   110   55  132 1    
   111   56   57 1    
   112   56  133 1    
   113   56  134 1    
   114   57   58 1    
   115   58  135 1    
   116   58  136 1    
   117   59   60 am   BACKBONE|DICT|INTERRES
   118   59  137 1    
   119   60   61 2    
   120   60   62 1    
   121   62   63 1    
   122   62   64 1    
   123   62  138 1    
   124   63  139 1    
   125   63  140 1    
   126   63  141 1    
   127   64   65 am   BACKBONE|DICT|INTERRES
   128   64  142 1    
   129   65   66 2    
   130   65   67 1    
   131   67   68 1    
   132   67   69 1    
   133   67  143 1    
   134   68  144 1    
   135   68  145 1    
   136   68  146 1    
   137   69   70 am   BACKBONE|DICT|INTERRES
   138   69  147 1    
   139   70   71 2    
   140   70   72 1    
   141   72   73 1    
   142   72   74 1    
   143   72  148 1    
   144   73  149 1    
   145   73  150 1    
   146   73  151 1    
   147   74   75 am   BACKBONE|DICT|INTERRES
   148   74  152 1    
   149   75   76 2    
   150   75   77 1    
   151   77   78 1    
   152   77   79 1    
   153   77  153 1    
   154   78  154 1    
   155   78  155 1    
   156   78  156 1    
   157   79   80 am   BACKBONE|DICT|INTERRES
   158   79  157 1    
   159   80   81 2    
@<TRIPOS>SUBSTRUCTURE
     1 UNK         1 GROUP             0       ****    0 ROOT    
