@<TRIPOS>MOLECULE
3R207
157   159    1
SMALL
USER_CHARGES


@<TRIPOS>ATOM
      1 CA        -47.3602  -29.6905   10.9628 C.3       0 UNK        -0.1975 
      2 C         -47.0033  -29.4010    9.5120 C.2       0 UNK         0.4852 
      3 O         -45.9333  -29.8052    9.0544 O.2       0 UNK        -0.5216 
      4 N         -47.8935  -28.7173    8.7852 N.am      1 UNK        -0.4461 
      5 CA        -47.7275  -28.3763    7.3724 C.3       1 UNK         0.0864 
      6 C6        -49.0837  -28.3394    6.6277 C.3       14 UNK        -0.0898 
      7 S7        -49.8754  -29.9762    6.5477 S.3       14 UNK        -0.2598 
      8 C8        -51.5258  -29.5363    5.9121 C.3       14 UNK         0.0286 
      9 C9        -52.4597  -29.0247    7.0027 C.ar      14 UNK        -0.0844 
     10 C10       -52.9501  -27.7152    6.9689 C.ar      14 UNK        -0.0881 
     11 C11       -53.8480  -27.2675    7.9448 C.ar      14 UNK        -0.0643 
     12 C12       -54.2496  -28.1431    8.9600 C.ar      14 UNK        -0.0930 
     13 C13       -53.7882  -29.4665    8.9952 C.ar      14 UNK        -0.0827 
     14 C14       -52.8842  -29.8891    8.0160 C.ar      14 UNK        -0.1249 
     15 C15       -54.2471  -30.4844   10.0447 C.3       14 UNK         0.0141 
     16 S16       -55.8383  -30.1095   10.8634 S.3       14 UNK        -0.2313 
     17 C17       -55.2882  -29.1067   12.2846 C.3       14 UNK        -0.0915 
     18 CA        -55.6729  -29.7288   13.6577 C.3       13 UNK         0.0968 
     19 C         -54.7229  -30.8714   14.1304 C.2       13 UNK         0.5732 
     20 N         -54.3773  -30.9661   15.4106 N.am      13 UNK        -0.7310 
     21 O         -54.3010  -31.7056   13.3343 O.2       13 UNK        -0.5035 
     22 N         -55.8181  -28.6762   14.6714 N.am      13 UNK        -0.4233 
     23 C         -56.9402  -28.3811   15.3376 C.2       13 UNK         0.4989 
     24 O         -58.0288  -28.9123   15.1105 O.2       13 UNK        -0.4996 
     25 CA        -56.8382  -27.3054   16.4404 C.3       12 UNK         0.0216 
     26 CB        -57.8993  -27.4911   17.5465 C.3       12 UNK        -0.1964 
     27 N         -55.5006  -27.1645   17.0333 N.am      12 UNK        -0.4276 
     28 C         -54.7839  -28.1034   17.6742 C.2       12 UNK         0.5020 
     29 O         -55.1618  -29.2685   17.8100 O.2       12 UNK        -0.5489 
     30 CA        -53.4011  -27.6876   18.2153 C.3       11 UNK         0.0294 
     31 CB        -52.3925  -28.8505   18.1607 C.3       11 UNK        -0.2019 
     32 N         -52.8610  -26.5657   17.4478 N.am      11 UNK        -0.4493 
     33 C         -52.7499  -25.2994   17.8717 C.2       11 UNK         0.4932 
     34 O         -53.0108  -24.9358   19.0183 O.2       11 UNK        -0.5029 
     35 CA        -52.3025  -24.2487   16.8347 C.3       10 UNK         0.0280 
     36 CB        -50.8091  -23.9308   17.0066 C.3       10 UNK        -0.1976 
     37 N         -52.5579  -24.6519   15.4464 N.am      10 UNK        -0.4242 
     38 C         -53.7820  -24.8221   14.9177 C.2       10 UNK         0.5072 
     39 O         -54.8233  -24.5759   15.5267 O.2       10 UNK        -0.5224 
     40 CA        -53.8754  -25.4485   13.5117 C.3       9 UNK         0.0343 
     41 CB        -54.0132  -24.3589   12.4376 C.3       9 UNK        -0.2003 
     42 N         -52.7455  -26.3215   13.1803 N.am      9 UNK        -0.4272 
     43 C         -52.3777  -27.4081   13.8754 C.2       9 UNK         0.4988 
     44 O         -53.0300  -27.8537   14.8188 O.2       9 UNK        -0.5108 
     45 CA        -51.0475  -28.0822   13.4962 C.3       8 UNK         0.0248 
     46 CB        -51.3031  -29.3713   12.7012 C.3       8 UNK        -0.2001 
     47 N         -50.1417  -27.2250   12.7273 N.am      8 UNK        -0.4140 
     48 C         -49.6044  -26.0653   13.1247 C.2       8 UNK         0.5028 
     49 O         -49.8165  -25.5597   14.2270 O.2       8 UNK        -0.5428 
     50 CA        -48.7473  -25.3094   12.0928 C.3       7 UNK         0.0264 
     51 CB        -47.4107  -26.0256   11.8225 C.3       7 UNK        -0.1988 
     52 N         -49.4507  -24.9957   10.8389 N.am      7 UNK        -0.4454 
     53 C         -49.9721  -25.8397    9.9300 C.2       7 UNK         0.5027 
     54 O         -49.8940  -27.0678   10.0059 O.2       7 UNK        -0.5083 
     55 CA        -50.7310  -25.2148    8.7502 C.3       6 UNK         0.0844 
     56 C56       -52.1613  -24.8111    9.1759 C.3       14 UNK        -0.0967 
     57 S57       -53.2129  -24.5280    7.7162 S.3       14 UNK        -0.2604 
     58 C58       -54.4458  -25.8627    7.8805 C.3       14 UNK         0.0134 
     59 N         -49.9665  -24.0881    8.2230 N.am      6 UNK        -0.4116 
     60 C         -49.4107  -23.9992    7.0135 C.2       5 UNK         0.5034 
     61 O         -49.5665  -24.8209    6.1096 O.2       5 UNK        -0.5045 
     62 CA        -48.5015  -22.7781    6.7790 C.3       5 UNK         0.0224 
     63 CB        -49.3234  -21.4770    6.6880 C.3       5 UNK        -0.1978 
     64 N         -47.3957  -22.6492    7.7451 N.am      5 UNK        -0.4737 
     65 C         -47.4442  -22.4459    9.0718 C.2       4 UNK         0.5027 
     66 O         -48.4883  -22.3278    9.7184 O.2       4 UNK        -0.5211 
     67 CA        -46.0888  -22.4310    9.7898 C.3       4 UNK         0.0297 
     68 CB        -46.1947  -22.2836   11.3207 C.3       4 UNK        -0.1993 
     69 N         -45.3525  -23.6407    9.4272 N.am      4 UNK        -0.4486 
     70 C         -44.0182  -23.7483    9.4037 C.2       3 UNK         0.4961 
     71 O         -43.2510  -22.8811    9.8232 O.2       3 UNK        -0.5105 
     72 CA        -43.4315  -25.0232    8.7651 C.3       3 UNK         0.0299 
     73 CB        -43.2155  -26.1035    9.8375 C.3       3 UNK        -0.1972 
     74 N         -44.2471  -25.5819    7.6801 N.am      3 UNK        -0.4305 
     75 C         -44.6654  -24.9282    6.5854 C.2       2 UNK         0.5006 
     76 O         -44.3488  -23.7678    6.3207 O.2       2 UNK        -0.5106 
     77 CA        -45.6270  -25.6583    5.6276 C.3       2 UNK         0.0296 
     78 CB        -44.9199  -25.9694    4.2976 C.3       2 UNK        -0.2002 
     79 N         -46.2541  -26.8888    6.1267 N.am      2 UNK        -0.4032 
     80 C         -47.0029  -27.0252    7.2312 C.2       1 UNK         0.5000 
     81 O         -47.1454  -26.1432    8.0840 O.2       1 UNK        -0.5238 
     82 H82       -48.3423  -29.2978   11.2243 H         1 UNK         0.0889 
     83 H83       -46.6226  -29.2453   11.6299 H         1 UNK         0.0889 
     84 H84       -47.3711  -30.7660   11.1373 H         1 UNK         0.0889 
     85 H85       -48.7152  -28.3151    9.2296 H         1 UNK         0.3028 
     86 H86       -47.1075  -29.1399    6.8968 H         1 UNK         0.0864 
     87 H87       -49.7678  -27.6480    7.1137 H         1 UNK         0.0720 
     88 H88       -48.9595  -27.9809    5.6038 H         1 UNK         0.0720 
     89 H89       -51.4239  -28.8072    5.1067 H         1 UNK         0.0814 
     90 H90       -51.9713  -30.4240    5.4610 H         1 UNK         0.0814 
     91 H91       -52.6470  -27.0452    6.1758 H         1 UNK         0.1469 
     92 H92       -54.9497  -27.7935    9.7045 H         1 UNK         0.1381 
     93 H93       -52.5180  -30.9069    8.0288 H         1 UNK         0.1206 
     94 H94       -53.4649  -30.6184   10.7921 H         1 UNK         0.0813 
     95 H95       -54.3637  -31.4551    9.5604 H         1 UNK         0.0813 
     96 H96       -55.7680  -28.1335   12.1695 H         1 UNK         0.0638 
     97 H97       -54.2181  -28.9128   12.2248 H         1 UNK         0.0638 
     98 H98       -56.6379  -30.2217   13.5319 H         1 UNK         0.0568 
     99 H99       -53.7693  -31.7167   15.6942 H         1 UNK         0.3450 
    100 H100      -54.7344  -30.3202   16.1054 H         1 UNK         0.3450 
    101 H101      -54.9455  -28.2337   14.9436 H         1 UNK         0.2987 
    102 H102      -57.0454  -26.3562   15.9441 H         1 UNK         0.0766 
    103 H103      -57.8278  -26.7072   18.3005 H         1 UNK         0.0798 
    104 H104      -58.9089  -27.4495   17.1358 H         1 UNK         0.0798 
    105 H105      -57.7925  -28.4523   18.0505 H         1 UNK         0.0798 
    106 H106      -55.0849  -26.2463   16.9241 H         1 UNK         0.3198 
    107 H107      -53.5404  -27.4041   19.2604 H         1 UNK         0.0843 
    108 H108      -52.2638  -29.2241   17.1438 H         1 UNK         0.0831 
    109 H109      -52.7232  -29.6876   18.7769 H         1 UNK         0.0831 
    110 H110      -51.4145  -28.5447   18.5321 H         1 UNK         0.0831 
    111 H111      -52.6634  -26.7756   16.4747 H         1 UNK         0.3133 
    112 H112      -52.8696  -23.3353   17.0263 H         1 UNK         0.0566 
    113 H113      -50.1879  -24.8124   16.8431 H         1 UNK         0.0814 
    114 H114      -50.6005  -23.5681   18.0141 H         1 UNK         0.0814 
    115 H115      -50.4832  -23.1580   16.3102 H         1 UNK         0.0814 
    116 H116      -51.7425  -24.8989   14.8947 H         1 UNK         0.3091 
    117 H117      -54.7796  -26.0602   13.4924 H         1 UNK         0.0702 
    118 H118      -54.2314  -24.7910   11.4612 H         1 UNK         0.0785 
    119 H119      -53.1076  -23.7572   12.3508 H         1 UNK         0.0785 
    120 H120      -54.8337  -23.6797   12.6744 H         1 UNK         0.0785 
    121 H121      -52.1488  -26.0256   12.4238 H         1 UNK         0.2998 
    122 H122      -50.5448  -28.3444   14.4291 H         1 UNK         0.0697 
    123 H123      -51.9842  -30.0344   13.2353 H         1 UNK         0.0825 
    124 H124      -50.3799  -29.9275   12.5406 H         1 UNK         0.0825 
    125 H125      -51.7414  -29.1616   11.7246 H         1 UNK         0.0825 
    126 H126      -49.9768  -27.4862   11.7572 H         1 UNK         0.3029 
    127 H127      -48.5144  -24.3464   12.5490 H         1 UNK         0.0897 
    128 H128      -46.7584  -25.4254   11.1901 H         1 UNK         0.0792 
    129 H129      -46.8740  -26.2232   12.7512 H         1 UNK         0.0792 
    130 H130      -47.5561  -26.9768   11.3182 H         1 UNK         0.0792 
    131 H131      -49.5412  -24.0023   10.6640 H         1 UNK         0.3086 
    132 H132      -50.8187  -25.9877    7.9891 H         1 UNK         0.0583 
    133 H133      -52.6183  -25.5870    9.7929 H         1 UNK         0.1020 
    134 H134      -52.1516  -23.9051    9.7845 H         1 UNK         0.1020 
    135 H135      -55.0517  -25.6599    8.7651 H         1 UNK         0.0694 
    136 H136      -55.1253  -25.8138    7.0288 H         1 UNK         0.0694 
    137 H137      -49.6884  -23.3656    8.8823 H         1 UNK         0.2989 
    138 H138      -48.0299  -22.9300    5.8064 H         1 UNK         0.1055 
    139 H139      -48.6934  -20.6306    6.4144 H         1 UNK         0.0806 
    140 H140      -49.8181  -21.2335    7.6287 H         1 UNK         0.0806 
    141 H141      -50.1006  -21.5608    5.9271 H         1 UNK         0.0806 
    142 H142      -46.4733  -22.7513    7.3406 H         1 UNK         0.3061 
    143 H143      -45.5511  -21.5619    9.4044 H         1 UNK         0.0734 
    144 H144      -46.7600  -21.3904   11.5891 H         1 UNK         0.0832 
    145 H145      -46.6942  -23.1352   11.7764 H         1 UNK         0.0832 
    146 H146      -45.2106  -22.1908   11.7799 H         1 UNK         0.0832 
    147 H147      -45.9076  -24.4054    9.0556 H         1 UNK         0.3156 
    148 H148      -42.4612  -24.7601    8.3394 H         1 UNK         0.0589 
    149 H149      -44.1598  -26.4357   10.2718 H         1 UNK         0.0808 
    150 H150      -42.7087  -26.9769    9.4267 H         1 UNK         0.0808 
    151 H151      -42.5965  -25.7262   10.6529 H         1 UNK         0.0808 
    152 H152      -44.5822  -26.5248    7.8129 H         1 UNK         0.3098 
    153 H153      -46.4401  -24.9600    5.4200 H         1 UNK         0.0720 
    154 H154      -45.6172  -26.3630    3.5576 H         1 UNK         0.0791 
    155 H155      -44.4741  -25.0707    3.8684 H         1 UNK         0.0791 
    156 H156      -44.1192  -26.6986    4.4284 H         1 UNK         0.0791 
    157 H157      -46.1861  -27.6844    5.5080 H         1 UNK         0.3028 
@<TRIPOS>BOND
     1    1    2 1    
     2    1   82 1    
     3    1   83 1    
     4    1   84 1    
     5    2    3 2    
     6    2    4 am   BACKBONE|DICT|INTERRES
     7    4    5 1    
     8    4   85 1    
     9    5    6 1    
    10    5   80 1    
    11    5   86 1    
    12    6    7 1    
    13    6   87 1    
    14    6   88 1    
    15    7    8 1    
    16    8    9 1    
    17    8   89 1    
    18    8   90 1    
    19    9   10 ar   
    20    9   14 ar   
    21   10   11 ar   
    22   10   91 1    
    23   11   12 ar   
    24   11   58 1    
    25   12   13 ar   
    26   12   92 1    
    27   13   14 ar   
    28   13   15 1    
    29   14   93 1    
    30   15   16 1    
    31   15   94 1    
    32   15   95 1    
    33   16   17 1    
    34   17   18 1    
    35   17   96 1    
    36   17   97 1    
    37   18   19 1    
    38   18   22 1    
    39   18   98 1    
    40   19   20 am   BACKBONE|DICT|INTERRES
    41   19   21 2    
    42   20   99 1    
    43   20  100 1    
    44   22   23 am   BACKBONE|DICT|INTERRES
    45   22  101 1    
    46   23   24 2    
    47   23   25 1    
    48   25   26 1    
    49   25   27 1    
    50   25  102 1    
    51   26  103 1    
    52   26  104 1    
    53   26  105 1    
    54   27   28 am   BACKBONE|DICT|INTERRES
    55   27  106 1    
    56   28   29 2    
    57   28   30 1    
    58   30   31 1    
    59   30   32 1    
    60   30  107 1    
    61   31  108 1    
    62   31  109 1    
    63   31  110 1    
    64   32   33 am   BACKBONE|DICT|INTERRES
    65   32  111 1    
    66   33   34 2    
    67   33   35 1    
    68   35   36 1    
    69   35   37 1    
    70   35  112 1    
    71   36  113 1    
    72   36  114 1    
    73   36  115 1    
    74   37   38 am   BACKBONE|DICT|INTERRES
    75   37  116 1    
    76   38   39 2    
    77   38   40 1    
    78   40   41 1    
    79   40   42 1    
    80   40  117 1    
    81   41  118 1    
    82   41  119 1    
    83   41  120 1    
    84   42   43 am   BACKBONE|DICT|INTERRES
    85   42  121 1    
    86   43   44 2    
    87   43   45 1    
    88   45   46 1    
    89   45   47 1    
    90   45  122 1    
    91   46  123 1    
    92   46  124 1    
    93   46  125 1    
    94   47   48 am   BACKBONE|DICT|INTERRES
    95   47  126 1    
    96   48   49 2    
    97   48   50 1    
    98   50   51 1    
    99   50   52 1    
   100   50  127 1    
   101   51  128 1    
   102   51  129 1    
   103   51  130 1    
   104   52   53 am   BACKBONE|DICT|INTERRES
   105   52  131 1    
   106   53   54 2    
   107   53   55 1    
   108   55   56 1    
   109   55   59 1    
   110   55  132 1    
   111   56   57 1    
   112   56  133 1    
   113   56  134 1    
   114   57   58 1    
   115   58  135 1    
   116   58  136 1    
   117   59   60 am   BACKBONE|DICT|INTERRES
   118   59  137 1    
   119   60   61 2    
   120   60   62 1    
   121   62   63 1    
   122   62   64 1    
   123   62  138 1    
   124   63  139 1    
   125   63  140 1    
   126   63  141 1    
   127   64   65 am   BACKBONE|DICT|INTERRES
   128   64  142 1    
   129   65   66 2    
   130   65   67 1    
   131   67   68 1    
   132   67   69 1    
   133   67  143 1    
   134   68  144 1    
   135   68  145 1    
   136   68  146 1    
   137   69   70 am   BACKBONE|DICT|INTERRES
   138   69  147 1    
   139   70   71 2    
   140   70   72 1    
   141   72   73 1    
   142   72   74 1    
   143   72  148 1    
   144   73  149 1    
   145   73  150 1    
   146   73  151 1    
   147   74   75 am   BACKBONE|DICT|INTERRES
   148   74  152 1    
   149   75   76 2    
   150   75   77 1    
   151   77   78 1    
   152   77   79 1    
   153   77  153 1    
   154   78  154 1    
   155   78  155 1    
   156   78  156 1    
   157   79   80 am   BACKBONE|DICT|INTERRES
   158   79  157 1    
   159   80   81 2    
@<TRIPOS>SUBSTRUCTURE
     1 UNK         1 GROUP             0       ****    0 ROOT    
