@<TRIPOS>MOLECULE
3R207
157   159    1
SMALL
USER_CHARGES


@<TRIPOS>ATOM
      1 CA        -50.8854  -28.3401    9.7813 C.3       0 UNK        -0.1975 
      2 C         -49.6937  -28.9227    9.0397 C.2       0 UNK         0.4852 
      3 O         -48.6188  -29.0602    9.6261 O.2       0 UNK        -0.5216 
      4 N         -49.8860  -29.2815    7.7628 N.am      1 UNK        -0.4461 
      5 CA        -48.9138  -29.9568    6.8956 C.3       1 UNK         0.0864 
      6 C6        -49.5022  -30.2596    5.4965 C.3       14 UNK        -0.0898 
      7 S7        -50.8799  -31.4507    5.5681 S.3       14 UNK        -0.2598 
      8 C8        -52.2461  -30.4924    4.8425 C.3       14 UNK         0.0286 
      9 C9        -52.8646  -29.5233    5.8395 C.ar      14 UNK        -0.0844 
     10 C10       -52.6474  -28.1458    5.7291 C.ar      14 UNK        -0.0881 
     11 C11       -53.2785  -27.2558    6.6056 C.ar      14 UNK        -0.0643 
     12 C12       -54.1232  -27.7529    7.6019 C.ar      14 UNK        -0.0930 
     13 C13       -54.3353  -29.1283    7.7284 C.ar      14 UNK        -0.0827 
     14 C14       -53.7031  -30.0081    6.8468 C.ar      14 UNK        -0.1249 
     15 C15       -55.2719  -29.6598    8.7984 C.3       14 UNK         0.0141 
     16 S16       -54.4172  -29.8351   10.3912 S.3       14 UNK        -0.2313 
     17 C17       -55.8269  -30.2961   11.4514 C.3       14 UNK        -0.0915 
     18 CA        -56.5545  -29.0605   12.0439 C.3       13 UNK         0.0968 
     19 C         -57.8424  -29.4844   12.8105 C.2       13 UNK         0.5732 
     20 N         -57.9646  -29.2534   14.1128 N.am      13 UNK        -0.7310 
     21 O         -58.7600  -30.0308   12.2027 O.2       13 UNK        -0.5035 
     22 N         -55.6331  -28.2141   12.8138 N.am      13 UNK        -0.4233 
     23 C         -55.8392  -26.9277   13.1185 C.2       13 UNK         0.4989 
     24 O         -56.7925  -26.2698   12.6975 O.2       13 UNK        -0.4996 
     25 CA        -54.8055  -26.2752   14.0611 C.3       12 UNK         0.0216 
     26 CB        -55.3708  -25.0434   14.7987 C.3       12 UNK        -0.1964 
     27 N         -54.2012  -27.2066   15.0265 N.am      12 UNK        -0.4276 
     28 C         -54.8329  -28.0003   15.9084 C.2       12 UNK         0.5020 
     29 O         -56.0570  -28.1062   15.9900 O.2       12 UNK        -0.5489 
     30 CA        -53.9449  -28.8407   16.8431 C.3       11 UNK         0.0294 
     31 CB        -53.7160  -30.2386   16.2460 C.3       11 UNK        -0.2019 
     32 N         -52.6498  -28.2117   17.1129 N.am      11 UNK        -0.4493 
     33 C         -52.4735  -27.0955   17.8307 C.2       11 UNK         0.4932 
     34 O         -53.3800  -26.5243   18.4370 O.2       11 UNK        -0.5029 
     35 CA        -51.0629  -26.4852   17.8484 C.3       10 UNK         0.0280 
     36 CB        -50.2107  -27.0672   18.9930 C.3       10 UNK        -0.1976 
     37 N         -50.3640  -26.5405   16.5551 N.am      10 UNK        -0.4242 
     38 C         -49.8417  -27.6001   15.9127 C.2       10 UNK         0.5072 
     39 O         -49.9496  -28.7567   16.3218 O.2       10 UNK        -0.5224 
     40 CA        -49.1150  -27.3543   14.5715 C.3       9 UNK         0.0343 
     41 CB        -49.8327  -28.0840   13.4228 C.3       9 UNK        -0.2003 
     42 N         -48.9893  -25.9357   14.2291 N.am      9 UNK        -0.4272 
     43 C         -48.1647  -25.0684   14.8370 C.2       9 UNK         0.4988 
     44 O         -47.2965  -25.4066   15.6417 O.2       9 UNK        -0.5108 
     45 CA        -48.3756  -23.5688   14.5535 C.3       8 UNK         0.0248 
     46 CB        -47.1735  -22.9724   13.8016 C.3       8 UNK        -0.2001 
     47 N         -49.6210  -23.2726   13.8320 N.am      8 UNK        -0.4140 
     48 C         -50.8516  -23.3797   14.3617 C.2       8 UNK         0.5028 
     49 O         -51.0549  -23.7645   15.5140 O.2       8 UNK        -0.5428 
     50 CA        -52.0598  -23.0483   13.4628 C.3       7 UNK         0.0264 
     51 CB        -52.5192  -21.6007   13.6950 C.3       7 UNK        -0.1988 
     52 N         -51.8069  -23.2527   12.0339 N.am      7 UNK        -0.4454 
     53 C         -51.5951  -24.4469   11.4610 C.2       7 UNK         0.5027 
     54 O         -51.6899  -25.5121   12.0704 O.2       7 UNK        -0.5083 
     55 CA        -51.1304  -24.4621    9.9866 C.3       6 UNK         0.0844 
     56 C56       -52.2552  -24.9150    9.0263 C.3       14 UNK        -0.0967 
     57 S57       -51.6042  -25.1753    7.3392 S.3       14 UNK        -0.2604 
     58 C58       -53.0778  -25.7563    6.4491 C.3       14 UNK         0.0134 
     59 N         -50.4841  -23.2170    9.5432 N.am      6 UNK        -0.4116 
     60 C         -49.3436  -22.7476   10.0595 C.2       5 UNK         0.5034 
     61 O         -48.8153  -23.2104   11.0724 O.2       5 UNK        -0.5045 
     62 CA        -48.6598  -21.5799    9.3490 C.3       5 UNK         0.0224 
     63 CB        -48.8941  -20.2601   10.1014 C.3       5 UNK        -0.1978 
     64 N         -47.2442  -21.9175    9.3686 N.am      5 UNK        -0.4737 
     65 C         -46.4122  -21.8769    8.3268 C.2       4 UNK         0.5027 
     66 O         -46.6515  -21.2896    7.2715 O.2       4 UNK        -0.5211 
     67 CA        -45.1055  -22.6752    8.4840 C.3       4 UNK         0.0297 
     68 CB        -44.0166  -21.8041    9.1312 C.3       4 UNK        -0.1993 
     69 N         -45.2632  -23.9188    9.2556 N.am      4 UNK        -0.4486 
     70 C         -46.0376  -24.9555    8.8980 C.2       3 UNK         0.4961 
     71 O         -46.7544  -24.9659    7.8953 O.2       3 UNK        -0.5105 
     72 CA        -46.0102  -26.1882    9.8235 C.3       3 UNK         0.0299 
     73 CB        -47.2155  -26.1862   10.7769 C.3       3 UNK        -0.1972 
     74 N         -46.0037  -27.4427    9.0645 N.am      3 UNK        -0.4305 
     75 C         -45.0185  -27.8216    8.2350 C.2       2 UNK         0.5006 
     76 O         -43.9747  -27.1833    8.0858 O.2       2 UNK        -0.5106 
     77 CA        -45.1878  -29.1365    7.4498 C.3       2 UNK         0.0296 
     78 CB        -44.2252  -30.2106    7.9854 C.3       2 UNK        -0.2002 
     79 N         -46.5477  -29.6791    7.4548 N.am      2 UNK        -0.4032 
     80 C         -47.5860  -29.1804    6.7698 C.2       1 UNK         0.5000 
     81 O         -47.5263  -28.1756    6.0582 O.2       1 UNK        -0.5238 
     82 H82       -51.2974  -29.0808   10.4658 H         1 UNK         0.0889 
     83 H83       -50.5820  -27.4750   10.3667 H         1 UNK         0.0889 
     84 H84       -51.6749  -28.0335    9.0970 H         1 UNK         0.0889 
     85 H85       -50.7964  -29.1388    7.3462 H         1 UNK         0.3028 
     86 H86       -48.6915  -30.9157    7.3691 H         1 UNK         0.0864 
     87 H87       -49.8248  -29.3379    5.0085 H         1 UNK         0.0720 
     88 H88       -48.7404  -30.6942    4.8460 H         1 UNK         0.0720 
     89 H89       -53.0149  -31.1885    4.5037 H         1 UNK         0.0814 
     90 H90       -51.9010  -29.9717    3.9478 H         1 UNK         0.0814 
     91 H91       -52.0055  -27.7611    4.9480 H         1 UNK         0.1469 
     92 H92       -54.6210  -27.0702    8.2768 H         1 UNK         0.1381 
     93 H93       -53.8747  -31.0727    6.9335 H         1 UNK         0.1206 
     94 H94       -56.1214  -28.9844    8.9099 H         1 UNK         0.0813 
     95 H95       -55.6829  -30.6254    8.4993 H         1 UNK         0.0813 
     96 H96       -55.4527  -30.9350   12.2532 H         1 UNK         0.0638 
     97 H97       -56.5139  -30.9135   10.8693 H         1 UNK         0.0638 
     98 H98       -56.9092  -28.4611   11.2036 H         1 UNK         0.0568 
     99 H99       -58.8116  -29.5348   14.5793 H         1 UNK         0.3450 
    100 H100      -57.2283  -28.7989   14.6460 H         1 UNK         0.3450 
    101 H101      -54.8227  -28.6771   13.1947 H         1 UNK         0.2987 
    102 H102      -53.9940  -25.9331   13.4181 H         1 UNK         0.0766 
    103 H103      -54.6204  -24.5896   15.4465 H         1 UNK         0.0798 
    104 H104      -56.2303  -25.3059   15.4166 H         1 UNK         0.0798 
    105 H105      -55.6956  -24.2765   14.0944 H         1 UNK         0.0798 
    106 H106      -53.1917  -27.2214   15.0420 H         1 UNK         0.3198 
    107 H107      -54.4756  -28.9513   17.7913 H         1 UNK         0.0843 
    108 H108      -54.6654  -30.7375   16.0452 H         1 UNK         0.0831 
    109 H109      -53.1567  -30.8752   16.9319 H         1 UNK         0.0831 
    110 H110      -53.1649  -30.1941   15.3058 H         1 UNK         0.0831 
    111 H111      -51.8197  -28.6367   16.7064 H         1 UNK         0.3133 
    112 H112      -51.1916  -25.4208   18.0523 H         1 UNK         0.0566 
    113 H113      -49.2292  -26.5951   19.0358 H         1 UNK         0.0814 
    114 H114      -50.6929  -26.9007   19.9572 H         1 UNK         0.0814 
    115 H115      -50.0622  -28.1424   18.8900 H         1 UNK         0.0814 
    116 H116      -50.3012  -25.6396   16.0918 H         1 UNK         0.3091 
    117 H117      -48.1116  -27.7742   14.6669 H         1 UNK         0.0702 
    118 H118      -49.3085  -27.9479   12.4770 H         1 UNK         0.0785 
    119 H119      -50.8563  -27.7313   13.2941 H         1 UNK         0.0785 
    120 H120      -49.8805  -29.1577   13.6091 H         1 UNK         0.0785 
    121 H121      -49.6677  -25.5718   13.5734 H         1 UNK         0.2998 
    122 H122      -48.4360  -23.0705   15.5234 H         1 UNK         0.0697 
    123 H123      -46.9808  -23.4896   12.8632 H         1 UNK         0.0825 
    124 H124      -46.2656  -23.0500   14.4011 H         1 UNK         0.0825 
    125 H125      -47.3247  -21.9161   13.5789 H         1 UNK         0.0825 
    126 H126      -49.5169  -23.0333   12.8497 H         1 UNK         0.3029 
    127 H127      -52.8728  -23.7140   13.7580 H         1 UNK         0.0897 
    128 H128      -53.4269  -21.3771   13.1341 H         1 UNK         0.0792 
    129 H129      -52.7416  -21.4270   14.7489 H         1 UNK         0.0792 
    130 H130      -51.7543  -20.8808   13.4004 H         1 UNK         0.0792 
    131 H131      -51.7078  -22.4250   11.4643 H         1 UNK         0.3086 
    132 H132      -50.3515  -25.2248    9.9429 H         1 UNK         0.0583 
    133 H133      -53.0582  -24.1762    8.9937 H         1 UNK         0.1020 
    134 H134      -52.7048  -25.8466    9.3740 H         1 UNK         0.1020 
    135 H135      -53.9586  -25.2098    6.7897 H         1 UNK         0.0694 
    136 H136      -52.9632  -25.5132    5.3916 H         1 UNK         0.0694 
    137 H137      -50.8632  -22.7940    8.7082 H         1 UNK         0.2989 
    138 H138      -49.0279  -21.5030    8.3231 H         1 UNK         0.1055 
    139 H139      -49.9518  -19.9939   10.1043 H         1 UNK         0.0806 
    140 H140      -48.3536  -19.4384    9.6313 H         1 UNK         0.0806 
    141 H141      -48.5678  -20.3220   11.1407 H         1 UNK         0.0806 
    142 H142      -46.9744  -22.4725   10.1714 H         1 UNK         0.3061 
    143 H143      -44.7706  -22.9521    7.4820 H         1 UNK         0.0734 
    144 H144      -43.8664  -20.8842    8.5642 H         1 UNK         0.0832 
    145 H145      -44.2791  -21.5181   10.1506 H         1 UNK         0.0832 
    146 H146      -43.0580  -22.3223    9.1621 H         1 UNK         0.0832 
    147 H147      -44.7059  -24.0010   10.0942 H         1 UNK         0.3156 
    148 H148      -45.0978  -26.1606   10.4228 H         1 UNK         0.0589 
    149 H149      -48.1589  -26.1971   10.2306 H         1 UNK         0.0808 
    150 H150      -47.2016  -27.0519   11.4391 H         1 UNK         0.0808 
    151 H151      -47.2139  -25.2992   11.4083 H         1 UNK         0.0808 
    152 H152      -46.8361  -28.0188    9.1305 H         1 UNK         0.3098 
    153 H153      -44.9155  -28.9244    6.4136 H         1 UNK         0.0720 
    154 H154      -44.2717  -31.1208    7.3871 H         1 UNK         0.0791 
    155 H155      -44.4503  -30.4745    9.0196 H         1 UNK         0.0791 
    156 H156      -43.1922  -29.8607    7.9566 H         1 UNK         0.0791 
    157 H157      -46.7063  -30.4799    8.0501 H         1 UNK         0.3028 
@<TRIPOS>BOND
     1    1    2 1    
     2    1   82 1    
     3    1   83 1    
     4    1   84 1    
     5    2    3 2    
     6    2    4 am   BACKBONE|DICT|INTERRES
     7    4    5 1    
     8    4   85 1    
     9    5    6 1    
    10    5   80 1    
    11    5   86 1    
    12    6    7 1    
    13    6   87 1    
    14    6   88 1    
    15    7    8 1    
    16    8    9 1    
    17    8   89 1    
    18    8   90 1    
    19    9   10 ar   
    20    9   14 ar   
    21   10   11 ar   
    22   10   91 1    
    23   11   12 ar   
    24   11   58 1    
    25   12   13 ar   
    26   12   92 1    
    27   13   14 ar   
    28   13   15 1    
    29   14   93 1    
    30   15   16 1    
    31   15   94 1    
    32   15   95 1    
    33   16   17 1    
    34   17   18 1    
    35   17   96 1    
    36   17   97 1    
    37   18   19 1    
    38   18   22 1    
    39   18   98 1    
    40   19   20 am   BACKBONE|DICT|INTERRES
    41   19   21 2    
    42   20   99 1    
    43   20  100 1    
    44   22   23 am   BACKBONE|DICT|INTERRES
    45   22  101 1    
    46   23   24 2    
    47   23   25 1    
    48   25   26 1    
    49   25   27 1    
    50   25  102 1    
    51   26  103 1    
    52   26  104 1    
    53   26  105 1    
    54   27   28 am   BACKBONE|DICT|INTERRES
    55   27  106 1    
    56   28   29 2    
    57   28   30 1    
    58   30   31 1    
    59   30   32 1    
    60   30  107 1    
    61   31  108 1    
    62   31  109 1    
    63   31  110 1    
    64   32   33 am   BACKBONE|DICT|INTERRES
    65   32  111 1    
    66   33   34 2    
    67   33   35 1    
    68   35   36 1    
    69   35   37 1    
    70   35  112 1    
    71   36  113 1    
    72   36  114 1    
    73   36  115 1    
    74   37   38 am   BACKBONE|DICT|INTERRES
    75   37  116 1    
    76   38   39 2    
    77   38   40 1    
    78   40   41 1    
    79   40   42 1    
    80   40  117 1    
    81   41  118 1    
    82   41  119 1    
    83   41  120 1    
    84   42   43 am   BACKBONE|DICT|INTERRES
    85   42  121 1    
    86   43   44 2    
    87   43   45 1    
    88   45   46 1    
    89   45   47 1    
    90   45  122 1    
    91   46  123 1    
    92   46  124 1    
    93   46  125 1    
    94   47   48 am   BACKBONE|DICT|INTERRES
    95   47  126 1    
    96   48   49 2    
    97   48   50 1    
    98   50   51 1    
    99   50   52 1    
   100   50  127 1    
   101   51  128 1    
   102   51  129 1    
   103   51  130 1    
   104   52   53 am   BACKBONE|DICT|INTERRES
   105   52  131 1    
   106   53   54 2    
   107   53   55 1    
   108   55   56 1    
   109   55   59 1    
   110   55  132 1    
   111   56   57 1    
   112   56  133 1    
   113   56  134 1    
   114   57   58 1    
   115   58  135 1    
   116   58  136 1    
   117   59   60 am   BACKBONE|DICT|INTERRES
   118   59  137 1    
   119   60   61 2    
   120   60   62 1    
   121   62   63 1    
   122   62   64 1    
   123   62  138 1    
   124   63  139 1    
   125   63  140 1    
   126   63  141 1    
   127   64   65 am   BACKBONE|DICT|INTERRES
   128   64  142 1    
   129   65   66 2    
   130   65   67 1    
   131   67   68 1    
   132   67   69 1    
   133   67  143 1    
   134   68  144 1    
   135   68  145 1    
   136   68  146 1    
   137   69   70 am   BACKBONE|DICT|INTERRES
   138   69  147 1    
   139   70   71 2    
   140   70   72 1    
   141   72   73 1    
   142   72   74 1    
   143   72  148 1    
   144   73  149 1    
   145   73  150 1    
   146   73  151 1    
   147   74   75 am   BACKBONE|DICT|INTERRES
   148   74  152 1    
   149   75   76 2    
   150   75   77 1    
   151   77   78 1    
   152   77   79 1    
   153   77  153 1    
   154   78  154 1    
   155   78  155 1    
   156   78  156 1    
   157   79   80 am   BACKBONE|DICT|INTERRES
   158   79  157 1    
   159   80   81 2    
@<TRIPOS>SUBSTRUCTURE
     1 UNK         1 GROUP             0       ****    0 ROOT    
