@<TRIPOS>MOLECULE
3R207
157   159    1
SMALL
USER_CHARGES


@<TRIPOS>ATOM
      1 CA        -47.5500  -28.0220    2.9882 C.3       0 UNK        -0.1975 
      2 C         -47.9191  -27.7420    4.4368 C.2       0 UNK         0.4852 
      3 O         -47.0284  -27.5994    5.2742 O.2       0 UNK        -0.5216 
      4 N         -49.2234  -27.6393    4.7317 N.am      1 UNK        -0.4461 
      5 CA        -49.8012  -27.4371    6.0708 C.3       1 UNK         0.0864 
      6 C6        -49.6751  -28.6911    6.9782 C.3       14 UNK        -0.0898 
      7 S7        -50.3964  -30.2053    6.2422 S.3       14 UNK        -0.2598 
      8 C8        -52.1977  -29.9145    6.3212 C.3       14 UNK         0.0286 
      9 C9        -52.6796  -29.6918    7.7456 C.ar      14 UNK        -0.0844 
     10 C10       -52.8416  -28.3923    8.2290 C.ar      14 UNK        -0.0881 
     11 C11       -53.1811  -28.1684    9.5644 C.ar      14 UNK        -0.0643 
     12 C12       -53.4171  -29.2593   10.4056 C.ar      14 UNK        -0.0930 
     13 C13       -53.3099  -30.5660    9.9206 C.ar      14 UNK        -0.0827 
     14 C14       -52.9339  -30.7766    8.5896 C.ar      14 UNK        -0.1249 
     15 C15       -53.5659  -31.7502   10.8410 C.3       14 UNK         0.0141 
     16 S16       -55.3160  -31.8547   11.3377 S.3       14 UNK        -0.2313 
     17 C17       -55.2552  -31.3095   13.0784 C.3       14 UNK        -0.0915 
     18 CA        -56.4423  -30.3809   13.4521 C.3       13 UNK         0.0968 
     19 C         -56.6642  -30.3147   14.9931 C.2       13 UNK         0.5732 
     20 N         -56.7487  -29.1488   15.6237 N.am      13 UNK        -0.7310 
     21 O         -56.7825  -31.3537   15.6383 O.2       13 UNK        -0.5035 
     22 N         -56.3096  -29.0584   12.8222 N.am      13 UNK        -0.4233 
     23 C         -57.3327  -28.3304   12.3549 C.2       13 UNK         0.4989 
     24 O         -58.4925  -28.7442   12.3016 O.2       13 UNK        -0.4996 
     25 CA        -57.0140  -26.8961   11.8712 C.3       12 UNK         0.0216 
     26 CB        -58.2515  -25.9735   11.8979 C.3       12 UNK        -0.1964 
     27 N         -55.8903  -26.2599   12.5748 N.am      12 UNK        -0.4276 
     28 C         -55.7646  -26.0765   13.8965 C.2       12 UNK         0.5020 
     29 O         -56.6212  -26.3898   14.7259 O.2       12 UNK        -0.5489 
     30 CA        -54.4179  -25.5130   14.3805 C.3       11 UNK         0.0294 
     31 CB        -54.6188  -24.1935   15.1441 C.3       11 UNK        -0.2019 
     32 N         -53.7224  -26.4677   15.2459 N.am      11 UNK        -0.4493 
     33 C         -53.3950  -27.7268   14.9278 C.2       11 UNK         0.4932 
     34 O         -53.6068  -28.2315   13.8226 O.2       11 UNK        -0.5029 
     35 CA        -52.7131  -28.5484   16.0387 C.3       10 UNK         0.0280 
     36 CB        -52.6530  -30.0512   15.7093 C.3       10 UNK        -0.1976 
     37 N         -51.3565  -28.0710   16.3104 N.am      10 UNK        -0.4242 
     38 C         -51.0365  -26.9595   16.9865 C.2       10 UNK         0.5072 
     39 O         -51.8731  -26.2038   17.4869 O.2       10 UNK        -0.5224 
     40 CA        -49.5435  -26.6292   17.1417 C.3       9 UNK         0.0343 
     41 CB        -48.5846  -27.7020   16.5822 C.3       9 UNK        -0.2003 
     42 N         -49.2801  -25.3602   16.4717 N.am      9 UNK        -0.4272 
     43 C         -48.5817  -24.3373   16.9825 C.2       9 UNK         0.4988 
     44 O         -48.0796  -24.3521   18.1077 O.2       9 UNK        -0.5108 
     45 CA        -48.3757  -23.0886   16.1004 C.3       8 UNK         0.0248 
     46 CB        -46.8908  -22.9284   15.7310 C.3       8 UNK        -0.2001 
     47 N         -49.1713  -23.1103   14.8705 N.am      8 UNK        -0.4140 
     48 C         -50.4709  -22.7839   14.8035 C.2       8 UNK         0.5028 
     49 O         -51.1108  -22.3411   15.7577 O.2       8 UNK        -0.5428 
     50 CA        -51.1952  -22.9990   13.4595 C.3       7 UNK         0.0264 
     51 CB        -51.3310  -21.6685   12.7025 C.3       7 UNK        -0.1988 
     52 N         -50.5683  -23.9874   12.5777 N.am      7 UNK        -0.4454 
     53 C         -50.3588  -25.2800   12.8703 C.2       7 UNK         0.5027 
     54 O         -50.6940  -25.7988   13.9337 O.2       7 UNK        -0.5083 
     55 CA        -49.5952  -26.1249   11.8257 C.3       6 UNK         0.0844 
     56 C56       -50.5653  -26.9266   10.9290 C.3       14 UNK        -0.0967 
     57 S57       -51.6559  -25.8840    9.8924 S.3       14 UNK        -0.2604 
     58 C58       -53.2456  -26.7468   10.1007 C.3       14 UNK         0.0134 
     59 N         -48.6054  -25.3799   11.0339 N.am      6 UNK        -0.4116 
     60 C         -47.6152  -24.6241   11.5351 C.2       5 UNK         0.5034 
     61 O         -47.4630  -24.4046   12.7388 O.2       5 UNK        -0.5045 
     62 CA        -46.6482  -24.0021   10.5137 C.3       5 UNK         0.0224 
     63 CB        -45.4639  -23.2627   11.1725 C.3       5 UNK        -0.1978 
     64 N         -46.1715  -24.9765    9.5267 N.am      5 UNK        -0.4737 
     65 C         -45.4601  -26.0946    9.7414 C.2       4 UNK         0.5027 
     66 O         -45.0920  -26.4739   10.8533 O.2       4 UNK        -0.5211 
     67 CA        -45.0976  -26.9484    8.5085 C.3       4 UNK         0.0297 
     68 CB        -45.8891  -28.2654    8.5270 C.3       4 UNK        -0.1993 
     69 N         -45.3415  -26.2645    7.2347 N.am      4 UNK        -0.4486 
     70 C         -44.6015  -25.2579    6.7481 C.2       3 UNK         0.4961 
     71 O         -43.5513  -24.8682    7.2589 O.2       3 UNK        -0.5105 
     72 CA        -45.1585  -24.5257    5.5149 C.3       3 UNK         0.0299 
     73 CB        -44.7042  -25.2092    4.2151 C.3       3 UNK        -0.1972 
     74 N         -46.6222  -24.4193    5.5446 N.am      3 UNK        -0.4305 
     75 C         -47.3076  -23.6456    6.4012 C.2       2 UNK         0.5006 
     76 O         -46.7741  -22.9063    7.2271 O.2       2 UNK        -0.5106 
     77 CA        -48.8436  -23.7207    6.3593 C.3       2 UNK         0.0296 
     78 CB        -49.4083  -22.6558    5.4056 C.3       2 UNK        -0.2002 
     79 N         -49.3481  -25.0392    5.9724 N.am      2 UNK        -0.4032 
     80 C         -49.2762  -26.1407    6.7351 C.2       1 UNK         0.5000 
     81 O         -48.7912  -26.1534    7.8706 O.2       1 UNK        -0.5238 
     82 H82       -46.9455  -28.9263    2.9264 H         1 UNK         0.0889 
     83 H83       -46.9687  -27.1951    2.5816 H         1 UNK         0.0889 
     84 H84       -48.4309  -28.1601    2.3616 H         1 UNK         0.0889 
     85 H85       -49.8981  -27.7640    3.9896 H         1 UNK         0.3028 
     86 H86       -50.8650  -27.2582    5.9137 H         1 UNK         0.0864 
     87 H87       -48.6240  -28.9014    7.1755 H         1 UNK         0.0720 
     88 H88       -50.1276  -28.5177    7.9547 H         1 UNK         0.0720 
     89 H89       -52.7110  -30.7772    5.8939 H         1 UNK         0.0814 
     90 H90       -52.4606  -29.0665    5.6876 H         1 UNK         0.0814 
     91 H91       -52.6487  -27.5475    7.5830 H         1 UNK         0.1469 
     92 H92       -53.6770  -29.0981   11.4410 H         1 UNK         0.1381 
     93 H93       -52.8169  -31.7838    8.2131 H         1 UNK         0.1206 
     94 H94       -52.9138  -31.6859   11.7128 H         1 UNK         0.0813 
     95 H95       -53.3005  -32.6827   10.3407 H         1 UNK         0.0813 
     96 H96       -54.3095  -30.8077   13.2830 H         1 UNK         0.0638 
     97 H97       -55.2545  -32.2165   13.6856 H         1 UNK         0.0638 
     98 H98       -57.3472  -30.8577   13.0712 H         1 UNK         0.0568 
     99 H99       -56.9073  -29.1492   16.6179 H         1 UNK         0.3450 
    100 H100      -56.6962  -28.2628   15.1295 H         1 UNK         0.3450 
    101 H101      -55.3930  -28.6330   12.9046 H         1 UNK         0.2987 
    102 H102      -56.7024  -26.9989   10.8306 H         1 UNK         0.0766 
    103 H103      -58.0119  -24.9765   11.5284 H         1 UNK         0.0798 
    104 H104      -58.6544  -25.8693   12.9061 H         1 UNK         0.0798 
    105 H105      -59.0500  -26.3661   11.2671 H         1 UNK         0.0798 
    106 H106      -55.1220  -25.9726   11.9870 H         1 UNK         0.3198 
    107 H107      -53.7710  -25.3232   13.5216 H         1 UNK         0.0843 
    108 H108      -55.2821  -24.3215   16.0008 H         1 UNK         0.0831 
    109 H109      -55.0621  -23.4335   14.4995 H         1 UNK         0.0831 
    110 H110      -53.6742  -23.7962   15.5160 H         1 UNK         0.0831 
    111 H111      -53.4390  -26.1379   16.1625 H         1 UNK         0.3133 
    112 H112      -53.3106  -28.4342   16.9457 H         1 UNK         0.0566 
    113 H113      -52.0979  -30.2458   14.7906 H         1 UNK         0.0814 
    114 H114      -52.1809  -30.6161   16.5133 H         1 UNK         0.0814 
    115 H115      -53.6557  -30.4585   15.5809 H         1 UNK         0.0814 
    116 H116      -50.6050  -28.6032   15.8973 H         1 UNK         0.3091 
    117 H117      -49.3639  -26.5364   18.2147 H         1 UNK         0.0702 
    118 H118      -47.5464  -27.4293   16.7736 H         1 UNK         0.0785 
    119 H119      -48.6938  -27.8270   15.5038 H         1 UNK         0.0785 
    120 H120      -48.7483  -28.6705   17.0569 H         1 UNK         0.0785 
    121 H121      -49.7155  -25.2601   15.5590 H         1 UNK         0.2998 
    122 H122      -48.6699  -22.2200   16.6933 H         1 UNK         0.0697 
    123 H123      -46.5163  -23.7925   15.1810 H         1 UNK         0.0825 
    124 H124      -46.2750  -22.8216   16.6250 H         1 UNK         0.0825 
    125 H125      -46.7257  -22.0428   15.1172 H         1 UNK         0.0825 
    126 H126      -48.7108  -23.4843   14.0457 H         1 UNK         0.3029 
    127 H127      -52.1967  -23.3631   13.6897 H         1 UNK         0.0897 
    128 H128      -51.8256  -20.9169   13.3198 H         1 UNK         0.0792 
    129 H129      -51.9283  -21.7844   11.7978 H         1 UNK         0.0792 
    130 H130      -50.3584  -21.2661   12.4162 H         1 UNK         0.0792 
    131 H131      -50.2662  -23.6592   11.6720 H         1 UNK         0.3086 
    132 H132      -49.0175  -26.8529   12.3991 H         1 UNK         0.0583 
    133 H133      -50.0006  -27.5864   10.2684 H         1 UNK         0.1020 
    134 H134      -51.1699  -27.5900   11.5513 H         1 UNK         0.1020 
    135 H135      -53.5062  -26.7441   11.1592 H         1 UNK         0.0694 
    136 H136      -54.0273  -26.1964    9.5757 H         1 UNK         0.0694 
    137 H137      -48.6538  -25.5152   10.0299 H         1 UNK         0.2989 
    138 H138      -47.2278  -23.2611    9.9607 H         1 UNK         0.1055 
    139 H139      -45.8169  -22.4597   11.8209 H         1 UNK         0.0806 
    140 H140      -44.8135  -22.8115   10.4231 H         1 UNK         0.0806 
    141 H141      -44.8578  -23.9305   11.7856 H         1 UNK         0.0806 
    142 H142      -46.4208  -24.7717    8.5679 H         1 UNK         0.3061 
    143 H143      -44.0335  -27.1852    8.5709 H         1 UNK         0.0734 
    144 H144      -45.6755  -28.8758    7.6492 H         1 UNK         0.0832 
    145 H145      -45.6375  -28.8591    9.4067 H         1 UNK         0.0832 
    146 H146      -46.9628  -28.0814    8.5577 H         1 UNK         0.0832 
    147 H147      -46.1433  -26.5812    6.6942 H         1 UNK         0.3156 
    148 H148      -44.7505  -23.5126    5.5195 H         1 UNK         0.0589 
    149 H149      -45.0460  -26.2423    4.1545 H         1 UNK         0.0808 
    150 H150      -45.0723  -24.6796    3.3363 H         1 UNK         0.0808 
    151 H151      -43.6155  -25.2266    4.1489 H         1 UNK         0.0808 
    152 H152      -47.1350  -25.0251    4.9215 H         1 UNK         0.3098 
    153 H153      -49.2097  -23.5038    7.3654 H         1 UNK         0.0720 
    154 H154      -50.4982  -22.6410    5.4279 H         1 UNK         0.0791 
    155 H155      -49.0946  -22.8262    4.3748 H         1 UNK         0.0791 
    156 H156      -49.0674  -21.6589    5.6891 H         1 UNK         0.0791 
    157 H157      -49.7536  -25.1189    5.0509 H         1 UNK         0.3028 
@<TRIPOS>BOND
     1    1    2 1    
     2    1   82 1    
     3    1   83 1    
     4    1   84 1    
     5    2    3 2    
     6    2    4 am   BACKBONE|DICT|INTERRES
     7    4    5 1    
     8    4   85 1    
     9    5    6 1    
    10    5   80 1    
    11    5   86 1    
    12    6    7 1    
    13    6   87 1    
    14    6   88 1    
    15    7    8 1    
    16    8    9 1    
    17    8   89 1    
    18    8   90 1    
    19    9   10 ar   
    20    9   14 ar   
    21   10   11 ar   
    22   10   91 1    
    23   11   12 ar   
    24   11   58 1    
    25   12   13 ar   
    26   12   92 1    
    27   13   14 ar   
    28   13   15 1    
    29   14   93 1    
    30   15   16 1    
    31   15   94 1    
    32   15   95 1    
    33   16   17 1    
    34   17   18 1    
    35   17   96 1    
    36   17   97 1    
    37   18   19 1    
    38   18   22 1    
    39   18   98 1    
    40   19   20 am   BACKBONE|DICT|INTERRES
    41   19   21 2    
    42   20   99 1    
    43   20  100 1    
    44   22   23 am   BACKBONE|DICT|INTERRES
    45   22  101 1    
    46   23   24 2    
    47   23   25 1    
    48   25   26 1    
    49   25   27 1    
    50   25  102 1    
    51   26  103 1    
    52   26  104 1    
    53   26  105 1    
    54   27   28 am   BACKBONE|DICT|INTERRES
    55   27  106 1    
    56   28   29 2    
    57   28   30 1    
    58   30   31 1    
    59   30   32 1    
    60   30  107 1    
    61   31  108 1    
    62   31  109 1    
    63   31  110 1    
    64   32   33 am   BACKBONE|DICT|INTERRES
    65   32  111 1    
    66   33   34 2    
    67   33   35 1    
    68   35   36 1    
    69   35   37 1    
    70   35  112 1    
    71   36  113 1    
    72   36  114 1    
    73   36  115 1    
    74   37   38 am   BACKBONE|DICT|INTERRES
    75   37  116 1    
    76   38   39 2    
    77   38   40 1    
    78   40   41 1    
    79   40   42 1    
    80   40  117 1    
    81   41  118 1    
    82   41  119 1    
    83   41  120 1    
    84   42   43 am   BACKBONE|DICT|INTERRES
    85   42  121 1    
    86   43   44 2    
    87   43   45 1    
    88   45   46 1    
    89   45   47 1    
    90   45  122 1    
    91   46  123 1    
    92   46  124 1    
    93   46  125 1    
    94   47   48 am   BACKBONE|DICT|INTERRES
    95   47  126 1    
    96   48   49 2    
    97   48   50 1    
    98   50   51 1    
    99   50   52 1    
   100   50  127 1    
   101   51  128 1    
   102   51  129 1    
   103   51  130 1    
   104   52   53 am   BACKBONE|DICT|INTERRES
   105   52  131 1    
   106   53   54 2    
   107   53   55 1    
   108   55   56 1    
   109   55   59 1    
   110   55  132 1    
   111   56   57 1    
   112   56  133 1    
   113   56  134 1    
   114   57   58 1    
   115   58  135 1    
   116   58  136 1    
   117   59   60 am   BACKBONE|DICT|INTERRES
   118   59  137 1    
   119   60   61 2    
   120   60   62 1    
   121   62   63 1    
   122   62   64 1    
   123   62  138 1    
   124   63  139 1    
   125   63  140 1    
   126   63  141 1    
   127   64   65 am   BACKBONE|DICT|INTERRES
   128   64  142 1    
   129   65   66 2    
   130   65   67 1    
   131   67   68 1    
   132   67   69 1    
   133   67  143 1    
   134   68  144 1    
   135   68  145 1    
   136   68  146 1    
   137   69   70 am   BACKBONE|DICT|INTERRES
   138   69  147 1    
   139   70   71 2    
   140   70   72 1    
   141   72   73 1    
   142   72   74 1    
   143   72  148 1    
   144   73  149 1    
   145   73  150 1    
   146   73  151 1    
   147   74   75 am   BACKBONE|DICT|INTERRES
   148   74  152 1    
   149   75   76 2    
   150   75   77 1    
   151   77   78 1    
   152   77   79 1    
   153   77  153 1    
   154   78  154 1    
   155   78  155 1    
   156   78  156 1    
   157   79   80 am   BACKBONE|DICT|INTERRES
   158   79  157 1    
   159   80   81 2    
@<TRIPOS>SUBSTRUCTURE
     1 UNK         1 GROUP             0       ****    0 ROOT    
