@<TRIPOS>MOLECULE
3R207
157   159    1
SMALL
USER_CHARGES


@<TRIPOS>ATOM
      1 CA        -46.2370  -31.9673    6.4970 C.3       0 UNK        -0.1975 
      2 C         -46.5536  -31.1325    5.2648 C.2       0 UNK         0.4852 
      3 O         -45.6423  -30.7647    4.5231 O.2       0 UNK        -0.5216 
      4 N         -47.8405  -30.8305    5.0438 N.am      1 UNK        -0.4461 
      5 CA        -48.3405  -30.0180    3.9260 C.3       1 UNK         0.0864 
      6 C6        -49.8737  -30.1878    3.7431 C.3       14 UNK        -0.0898 
      7 S7        -50.8751  -29.5113    5.1166 S.3       14 UNK        -0.2598 
      8 C8        -51.2165  -30.9896    6.1184 C.3       14 UNK         0.0286 
      9 C9        -51.3731  -30.6117    7.5827 C.ar      14 UNK        -0.0844 
     10 C10       -50.2387  -30.4345    8.3841 C.ar      14 UNK        -0.0881 
     11 C11       -50.3707  -30.0742    9.7277 C.ar      14 UNK        -0.0643 
     12 C12       -51.6458  -29.9135   10.2699 C.ar      14 UNK        -0.0930 
     13 C13       -52.7863  -30.0722    9.4808 C.ar      14 UNK        -0.0827 
     14 C14       -52.6457  -30.4232    8.1344 C.ar      14 UNK        -0.1249 
     15 C15       -54.1586  -29.8599   10.1013 C.3       14 UNK         0.0141 
     16 S16       -54.4536  -28.1009   10.4666 S.3       14 UNK        -0.2313 
     17 C17       -55.8898  -28.2393   11.5802 C.3       14 UNK        -0.0915 
     18 CA        -56.5558  -26.8683   11.8701 C.3       13 UNK         0.0968 
     19 C         -57.9158  -27.0423   12.6099 C.2       13 UNK         0.5732 
     20 N         -58.1279  -26.4714   13.7905 N.am      13 UNK        -0.7310 
     21 O         -58.8126  -27.7020   12.0893 O.2       13 UNK        -0.5035 
     22 N         -55.6278  -25.9396   12.5345 N.am      13 UNK        -0.4233 
     23 C         -55.7014  -24.6050   12.4471 C.2       13 UNK         0.4989 
     24 O         -56.5034  -24.0158   11.7196 O.2       13 UNK        -0.4996 
     25 CA        -54.7179  -23.7892   13.3157 C.3       12 UNK         0.0216 
     26 CB        -55.2089  -22.3498   13.5752 C.3       12 UNK        -0.1964 
     27 N         -54.3524  -24.4307   14.5859 N.am      12 UNK        -0.4276 
     28 C         -55.1717  -24.8867   15.5453 C.2       12 UNK         0.5020 
     29 O         -56.4017  -24.8315   15.4867 O.2       12 UNK        -0.5489 
     30 CA        -54.4775  -25.5634   16.7435 C.3       11 UNK         0.0294 
     31 CB        -55.4624  -26.2830   17.6893 C.3       11 UNK        -0.2019 
     32 N         -53.4023  -26.4670   16.3111 N.am      11 UNK        -0.4493 
     33 C         -53.5166  -27.5475   15.5237 C.2       11 UNK         0.4932 
     34 O         -54.5903  -27.9746   15.0989 O.2       11 UNK        -0.5029 
     35 CA        -52.2203  -28.2488   15.0777 C.3       10 UNK         0.0280 
     36 CB        -52.0435  -28.1079   13.5595 C.3       10 UNK        -0.1976 
     37 N         -51.0036  -27.7571   15.7272 N.am      10 UNK        -0.4242 
     38 C         -50.6140  -28.0546   16.9741 C.2       10 UNK         0.5072 
     39 O         -51.2664  -28.7518   17.7514 O.2       10 UNK        -0.5224 
     40 CA        -49.2681  -27.4694   17.4283 C.3       9 UNK         0.0343 
     41 CB        -48.1061  -28.3565   16.9514 C.3       9 UNK        -0.2003 
     42 N         -49.0804  -26.1097   16.9198 N.am      9 UNK        -0.4272 
     43 C         -49.4929  -25.0018   17.5507 C.2       9 UNK         0.4988 
     44 O         -50.0174  -25.0016   18.6647 O.2       9 UNK        -0.5108 
     45 CA        -49.2986  -23.6633   16.8145 C.3       8 UNK         0.0248 
     46 CB        -47.9245  -23.0604   17.1477 C.3       8 UNK        -0.2001 
     47 N         -49.4447  -23.7667   15.3599 N.am      8 UNK        -0.4140 
     48 C         -50.5840  -24.0885   14.7323 C.2       8 UNK         0.5028 
     49 O         -51.6472  -24.3143   15.3087 O.2       8 UNK        -0.5428 
     50 CA        -50.5364  -24.2051   13.2017 C.3       7 UNK         0.0264 
     51 CB        -50.7988  -22.8260   12.5754 C.3       7 UNK        -0.1988 
     52 N         -49.2998  -24.7715   12.6476 N.am      7 UNK        -0.4454 
     53 C         -48.6760  -25.8986   13.0314 C.2       7 UNK         0.5027 
     54 O         -49.0404  -26.5792   13.9927 O.2       7 UNK        -0.5083 
     55 CA        -47.4204  -26.3378   12.2398 C.3       6 UNK         0.0844 
     56 C56       -47.4896  -27.8197   11.7831 C.3       14 UNK        -0.0967 
     57 S57       -48.6354  -28.0772   10.3910 S.3       14 UNK        -0.2604 
     58 C58       -49.1469  -29.8071   10.5892 C.3       14 UNK         0.0134 
     59 N         -47.1001  -25.4351   11.1261 N.am      6 UNK        -0.4116 
     60 C         -46.4183  -24.2874   11.2354 C.2       5 UNK         0.5034 
     61 O         -45.9560  -23.8608   12.2935 O.2       5 UNK        -0.5045 
     62 CA        -46.2576  -23.4614    9.9528 C.3       5 UNK         0.0224 
     63 CB        -45.1396  -24.0369    9.0673 C.3       5 UNK        -0.1978 
     64 N         -47.5108  -23.3975    9.1949 N.am      5 UNK        -0.4737 
     65 C         -48.4833  -22.5047    9.4301 C.2       4 UNK         0.5027 
     66 O         -48.4171  -21.6526   10.3153 O.2       4 UNK        -0.5211 
     67 CA        -49.7336  -22.5420    8.5306 C.3       4 UNK         0.0297 
     68 CB        -49.6128  -21.4963    7.4106 C.3       4 UNK        -0.1993 
     69 N         -49.9923  -23.8530    7.9337 N.am      4 UNK        -0.4486 
     70 C         -50.4568  -24.9184    8.6006 C.2       3 UNK         0.4961 
     71 O         -50.7716  -24.8955    9.7887 O.2       3 UNK        -0.5105 
     72 CA        -50.5742  -26.2374    7.8136 C.3       3 UNK         0.0299 
     73 CB        -51.9924  -26.3907    7.2414 C.3       3 UNK        -0.1972 
     74 N         -49.5863  -26.4184    6.7384 N.am      3 UNK        -0.4305 
     75 C         -48.2531  -26.3070    6.8559 C.2       2 UNK         0.5006 
     76 O         -47.6787  -25.9591    7.8888 O.2       2 UNK        -0.5106 
     77 CA        -47.4345  -26.6631    5.6082 C.3       2 UNK         0.0296 
     78 CB        -45.9169  -26.4815    5.8065 C.3       2 UNK        -0.2002 
     79 N         -47.7216  -28.0497    5.2605 N.am      2 UNK        -0.4032 
     80 C         -47.9358  -28.5278    4.0280 C.2       1 UNK         0.5000 
     81 O         -47.8452  -27.8506    3.0020 O.2       1 UNK        -0.5238 
     82 H82       -45.7236  -32.8836    6.2068 H         1 UNK         0.0889 
     83 H83       -47.1361  -32.2434    7.0475 H         1 UNK         0.0889 
     84 H84       -45.5852  -31.4102    7.1695 H         1 UNK         0.0889 
     85 H85       -48.5453  -31.1790    5.6749 H         1 UNK         0.3028 
     86 H86       -47.8645  -30.3996    3.0199 H         1 UNK         0.0864 
     87 H87       -50.1205  -31.2407    3.5975 H         1 UNK         0.0720 
     88 H88       -50.1919  -29.6896    2.8254 H         1 UNK         0.0720 
     89 H89       -50.4135  -31.7197    6.0154 H         1 UNK         0.0814 
     90 H90       -52.1193  -31.4756    5.7450 H         1 UNK         0.0814 
     91 H91       -49.2517  -30.5515    7.9603 H         1 UNK         0.1469 
     92 H92       -51.7532  -29.6359   11.3056 H         1 UNK         0.1381 
     93 H93       -53.5239  -30.5447    7.5151 H         1 UNK         0.1206 
     94 H94       -54.2264  -30.4405   11.0226 H         1 UNK         0.0813 
     95 H95       -54.9462  -30.2281    9.4421 H         1 UNK         0.0813 
     96 H96       -56.6037  -28.9212   11.1140 H         1 UNK         0.0638 
     97 H97       -55.5701  -28.7135   12.5099 H         1 UNK         0.0638 
     98 H98       -56.8169  -26.4377   10.9016 H         1 UNK         0.0568 
     99 H99       -57.4142  -25.9127   14.2500 H         1 UNK         0.3450 
    100 H100      -59.0206  -26.5985   14.2386 H         1 UNK         0.3450 
    101 H101      -54.9789  -26.3562   13.1861 H         1 UNK         0.2987 
    102 H102      -53.7978  -23.7241   12.7340 H         1 UNK         0.0766 
    103 H103      -54.4822  -21.7825   14.1569 H         1 UNK         0.0798 
    104 H104      -56.1545  -22.3405   14.1185 H         1 UNK         0.0798 
    105 H105      -55.3633  -21.8101   12.6401 H         1 UNK         0.0798 
    106 H106      -53.3517  -24.4935   14.7788 H         1 UNK         0.3198 
    107 H107      -53.9980  -24.7631   17.3097 H         1 UNK         0.0843 
    108 H108      -56.0242  -27.0631   17.1745 H         1 UNK         0.0831 
    109 H109      -56.1884  -25.5812   18.1014 H         1 UNK         0.0831 
    110 H110      -54.9419  -26.7424   18.5294 H         1 UNK         0.0831 
    111 H111      -52.4643  -26.1537   16.5252 H         1 UNK         0.3133 
    112 H112      -52.3268  -29.3101   15.3114 H         1 UNK         0.0566 
    113 H113      -51.1228  -28.5850   13.2237 H         1 UNK         0.0814 
    114 H114      -52.8739  -28.5755   13.0302 H         1 UNK         0.0814 
    115 H115      -52.0078  -27.0642   13.2496 H         1 UNK         0.0814 
    116 H116      -50.3683  -27.2185   15.1428 H         1 UNK         0.3091 
    117 H117      -49.2563  -27.4573   18.5205 H         1 UNK         0.0702 
    118 H118      -47.1481  -27.9781   17.3084 H         1 UNK         0.0785 
    119 H119      -48.0582  -28.4152   15.8631 H         1 UNK         0.0785 
    120 H120      -48.2131  -29.3744   17.3286 H         1 UNK         0.0785 
    121 H121      -48.7141  -26.0271   15.9787 H         1 UNK         0.2998 
    122 H122      -50.0683  -22.9777   17.1755 H         1 UNK         0.0697 
    123 H123      -47.1083  -23.6876   16.7865 H         1 UNK         0.0825 
    124 H124      -47.7981  -22.9506   18.2258 H         1 UNK         0.0825 
    125 H125      -47.8078  -22.0697   16.7079 H         1 UNK         0.0825 
    126 H126      -48.6212  -23.5975   14.8003 H         1 UNK         0.3029 
    127 H127      -51.3483  -24.8684   12.9014 H         1 UNK         0.0897 
    128 H128      -49.9640  -22.1429   12.7371 H         1 UNK         0.0792 
    129 H129      -51.6881  -22.3595   13.0018 H         1 UNK         0.0792 
    130 H130      -50.9648  -22.9015   11.5020 H         1 UNK         0.0792 
    131 H131      -48.9390  -24.3080   11.8267 H         1 UNK         0.3086 
    132 H132      -46.6007  -26.2802   12.9590 H         1 UNK         0.0583 
    133 H133      -46.4993  -28.1492   11.4650 H         1 UNK         0.1020 
    134 H134      -47.7623  -28.4706   12.6161 H         1 UNK         0.1020 
    135 H135      -48.3259  -30.4682   10.3080 H         1 UNK         0.0694 
    136 H136      -49.3728  -30.0100   11.6373 H         1 UNK         0.0694 
    137 H137      -47.4452  -25.7174   10.2155 H         1 UNK         0.2989 
    138 H138      -45.9639  -22.4498   10.2434 H         1 UNK         0.1055 
    139 H139      -44.1862  -24.0369    9.5973 H         1 UNK         0.0806 
    140 H140      -45.0063  -23.4441    8.1622 H         1 UNK         0.0806 
    141 H141      -45.3419  -25.0652    8.7663 H         1 UNK         0.0806 
    142 H142      -47.6603  -24.1277    8.5038 H         1 UNK         0.3061 
    143 H143      -50.5921  -22.2752    9.1504 H         1 UNK         0.0734 
    144 H144      -48.7757  -21.7106    6.7449 H         1 UNK         0.0832 
    145 H145      -50.5204  -21.4513    6.8082 H         1 UNK         0.0832 
    146 H146      -49.4519  -20.4996    7.8242 H         1 UNK         0.0832 
    147 H147      -49.7635  -23.9661    6.9571 H         1 UNK         0.3156 
    148 H148      -50.4280  -27.0513    8.5222 H         1 UNK         0.0589 
    149 H149      -52.1984  -25.6563    6.4622 H         1 UNK         0.0808 
    150 H150      -52.1452  -27.3848    6.8220 H         1 UNK         0.0808 
    151 H151      -52.7430  -26.2609    8.0229 H         1 UNK         0.0808 
    152 H152      -49.9552  -26.7326    5.8520 H         1 UNK         0.3098 
    153 H153      -47.7628  -25.9961    4.8083 H         1 UNK         0.0720 
    154 H154      -45.3680  -26.7242    4.8965 H         1 UNK         0.0791 
    155 H155      -45.5358  -27.1176    6.6065 H         1 UNK         0.0791 
    156 H156      -45.6771  -25.4494    6.0654 H         1 UNK         0.0791 
    157 H157      -47.8480  -28.6798    6.0399 H         1 UNK         0.3028 
@<TRIPOS>BOND
     1    1    2 1    
     2    1   82 1    
     3    1   83 1    
     4    1   84 1    
     5    2    3 2    
     6    2    4 am   BACKBONE|DICT|INTERRES
     7    4    5 1    
     8    4   85 1    
     9    5    6 1    
    10    5   80 1    
    11    5   86 1    
    12    6    7 1    
    13    6   87 1    
    14    6   88 1    
    15    7    8 1    
    16    8    9 1    
    17    8   89 1    
    18    8   90 1    
    19    9   10 ar   
    20    9   14 ar   
    21   10   11 ar   
    22   10   91 1    
    23   11   12 ar   
    24   11   58 1    
    25   12   13 ar   
    26   12   92 1    
    27   13   14 ar   
    28   13   15 1    
    29   14   93 1    
    30   15   16 1    
    31   15   94 1    
    32   15   95 1    
    33   16   17 1    
    34   17   18 1    
    35   17   96 1    
    36   17   97 1    
    37   18   19 1    
    38   18   22 1    
    39   18   98 1    
    40   19   20 am   BACKBONE|DICT|INTERRES
    41   19   21 2    
    42   20   99 1    
    43   20  100 1    
    44   22   23 am   BACKBONE|DICT|INTERRES
    45   22  101 1    
    46   23   24 2    
    47   23   25 1    
    48   25   26 1    
    49   25   27 1    
    50   25  102 1    
    51   26  103 1    
    52   26  104 1    
    53   26  105 1    
    54   27   28 am   BACKBONE|DICT|INTERRES
    55   27  106 1    
    56   28   29 2    
    57   28   30 1    
    58   30   31 1    
    59   30   32 1    
    60   30  107 1    
    61   31  108 1    
    62   31  109 1    
    63   31  110 1    
    64   32   33 am   BACKBONE|DICT|INTERRES
    65   32  111 1    
    66   33   34 2    
    67   33   35 1    
    68   35   36 1    
    69   35   37 1    
    70   35  112 1    
    71   36  113 1    
    72   36  114 1    
    73   36  115 1    
    74   37   38 am   BACKBONE|DICT|INTERRES
    75   37  116 1    
    76   38   39 2    
    77   38   40 1    
    78   40   41 1    
    79   40   42 1    
    80   40  117 1    
    81   41  118 1    
    82   41  119 1    
    83   41  120 1    
    84   42   43 am   BACKBONE|DICT|INTERRES
    85   42  121 1    
    86   43   44 2    
    87   43   45 1    
    88   45   46 1    
    89   45   47 1    
    90   45  122 1    
    91   46  123 1    
    92   46  124 1    
    93   46  125 1    
    94   47   48 am   BACKBONE|DICT|INTERRES
    95   47  126 1    
    96   48   49 2    
    97   48   50 1    
    98   50   51 1    
    99   50   52 1    
   100   50  127 1    
   101   51  128 1    
   102   51  129 1    
   103   51  130 1    
   104   52   53 am   BACKBONE|DICT|INTERRES
   105   52  131 1    
   106   53   54 2    
   107   53   55 1    
   108   55   56 1    
   109   55   59 1    
   110   55  132 1    
   111   56   57 1    
   112   56  133 1    
   113   56  134 1    
   114   57   58 1    
   115   58  135 1    
   116   58  136 1    
   117   59   60 am   BACKBONE|DICT|INTERRES
   118   59  137 1    
   119   60   61 2    
   120   60   62 1    
   121   62   63 1    
   122   62   64 1    
   123   62  138 1    
   124   63  139 1    
   125   63  140 1    
   126   63  141 1    
   127   64   65 am   BACKBONE|DICT|INTERRES
   128   64  142 1    
   129   65   66 2    
   130   65   67 1    
   131   67   68 1    
   132   67   69 1    
   133   67  143 1    
   134   68  144 1    
   135   68  145 1    
   136   68  146 1    
   137   69   70 am   BACKBONE|DICT|INTERRES
   138   69  147 1    
   139   70   71 2    
   140   70   72 1    
   141   72   73 1    
   142   72   74 1    
   143   72  148 1    
   144   73  149 1    
   145   73  150 1    
   146   73  151 1    
   147   74   75 am   BACKBONE|DICT|INTERRES
   148   74  152 1    
   149   75   76 2    
   150   75   77 1    
   151   77   78 1    
   152   77   79 1    
   153   77  153 1    
   154   78  154 1    
   155   78  155 1    
   156   78  156 1    
   157   79   80 am   BACKBONE|DICT|INTERRES
   158   79  157 1    
   159   80   81 2    
@<TRIPOS>SUBSTRUCTURE
     1 UNK         1 GROUP             0       ****    0 ROOT    
