@<TRIPOS>MOLECULE
3R207
157   159    1
SMALL
USER_CHARGES


@<TRIPOS>ATOM
      1 CA        -50.9815  -33.7211    7.9996 C.3       0 UNK        -0.1975 
      2 C         -50.2040  -32.4716    7.6125 C.2       0 UNK         0.4852 
      3 O         -49.3113  -32.5432    6.7663 O.2       0 UNK        -0.5216 
      4 N         -50.5432  -31.3314    8.2232 N.am      1 UNK        -0.4461 
      5 CA        -49.8592  -30.0449    8.0614 C.3       1 UNK         0.0864 
      6 C6        -50.8902  -28.8915    8.1503 C.3       14 UNK        -0.0898 
      7 S7        -50.3818  -27.3678    7.2784 S.3       14 UNK        -0.2598 
      8 C8        -51.8156  -27.0200    6.2007 C.3       14 UNK         0.0286 
      9 C9        -52.9615  -26.3432    6.9478 C.ar      14 UNK        -0.0844 
     10 C10       -53.1934  -24.9700    6.8073 C.ar      14 UNK        -0.0881 
     11 C11       -54.2587  -24.3510    7.4767 C.ar      14 UNK        -0.0643 
     12 C12       -55.0761  -25.1191    8.3139 C.ar      14 UNK        -0.0930 
     13 C13       -54.8648  -26.4942    8.4523 C.ar      14 UNK        -0.0827 
     14 C14       -53.8217  -27.0988    7.7479 C.ar      14 UNK        -0.1249 
     15 C15       -55.7866  -27.3350    9.3280 C.3       14 UNK         0.0141 
     16 S16       -55.2100  -27.4205   11.0547 S.3       14 UNK        -0.2313 
     17 C17       -53.7878  -28.5602   10.9347 C.3       14 UNK        -0.0915 
     18 CA        -53.9049  -29.8172   11.8349 C.3       13 UNK         0.0968 
     19 C         -52.7168  -30.7987   11.6027 C.2       13 UNK         0.5732 
     20 N         -52.0518  -31.3089   12.6334 N.am      13 UNK        -0.7310 
     21 O         -52.3954  -31.1169   10.4589 O.2       13 UNK        -0.5035 
     22 N         -54.0912  -29.4588   13.2496 N.am      13 UNK        -0.4233 
     23 C         -54.9383  -30.0738   14.0837 C.2       13 UNK         0.4989 
     24 O         -55.7009  -30.9781   13.7364 O.2       13 UNK        -0.4996 
     25 CA        -54.9395  -29.5995   15.5524 C.3       12 UNK         0.0216 
     26 CB        -55.5822  -30.6252   16.5107 C.3       12 UNK        -0.1964 
     27 N         -53.6203  -29.1930   16.0533 N.am      12 UNK        -0.4276 
     28 C         -52.4981  -29.9310   16.0975 C.2       12 UNK         0.5020 
     29 O         -52.4273  -31.0839   15.6683 O.2       12 UNK        -0.5489 
     30 CA        -51.2366  -29.2682   16.6878 C.3       11 UNK         0.0294 
     31 CB        -49.9704  -29.6707   15.9083 C.3       11 UNK        -0.2019 
     32 N         -51.3510  -27.8098   16.6690 N.am      11 UNK        -0.4493 
     33 C         -51.5451  -27.0168   17.7315 C.2       11 UNK         0.4932 
     34 O         -51.5659  -27.4227   18.8933 O.2       11 UNK        -0.5029 
     35 CA        -51.7834  -25.5171   17.4566 C.3       10 UNK         0.0280 
     36 CB        -50.4982  -24.7157   17.7160 C.3       10 UNK        -0.1976 
     37 N         -52.2611  -25.2379   16.0972 N.am      10 UNK        -0.4242 
     38 C         -53.4510  -25.6306   15.6117 C.2       10 UNK         0.5072 
     39 O         -54.3071  -26.1980   16.2908 O.2       10 UNK        -0.5224 
     40 CA        -53.6976  -25.4501   14.1009 C.3       9 UNK         0.0343 
     41 CB        -54.4478  -24.1394   13.8251 C.3       9 UNK        -0.2003 
     42 N         -52.4672  -25.4929   13.3038 N.am      9 UNK        -0.4272 
     43 C         -51.6218  -26.5358   13.2746 C.2       9 UNK         0.4988 
     44 O         -51.8765  -27.6120   13.8145 O.2       9 UNK        -0.5108 
     45 CA        -50.2621  -26.3753   12.5705 C.3       8 UNK         0.0248 
     46 CB        -50.2888  -27.1465   11.2470 C.3       8 UNK        -0.2001 
     47 N         -49.8633  -24.9941   12.2964 N.am      8 UNK        -0.4140 
     48 C         -49.7385  -24.0001   13.1905 C.2       8 UNK         0.5028 
     49 O         -49.8584  -24.1557   14.4068 O.2       8 UNK        -0.5428 
     50 CA        -49.5403  -22.5772   12.6241 C.3       7 UNK         0.0264 
     51 CB        -48.0471  -22.2212   12.5972 C.3       7 UNK        -0.1988 
     52 N         -50.0998  -22.4055   11.2761 N.am      7 UNK        -0.4454 
     53 C         -51.3755  -22.6573   10.9365 C.2       7 UNK         0.5027 
     54 O         -52.2603  -22.8665   11.7669 O.2       7 UNK        -0.5083 
     55 CA        -51.7227  -22.7886    9.4376 C.3       6 UNK         0.0844 
     56 C56       -52.7068  -21.6782    8.9990 C.3       14 UNK        -0.0967 
     57 S57       -53.1406  -21.7699    7.2279 S.3       14 UNK        -0.2604 
     58 C58       -54.5905  -22.8759    7.2516 C.3       14 UNK         0.0134 
     59 N         -50.5661  -22.8932    8.5402 N.am      6 UNK        -0.4116 
     60 C         -49.6263  -23.8475    8.5531 C.2       5 UNK         0.5034 
     61 O         -49.5435  -24.7136    9.4220 O.2       5 UNK        -0.5045 
     62 CA        -48.5776  -23.8145    7.4280 C.3       5 UNK         0.0224 
     63 CB        -48.9489  -22.8907    6.2454 C.3       5 UNK        -0.1978 
     64 N         -47.2384  -23.4831    7.9250 N.am      5 UNK        -0.4737 
     65 C         -46.8706  -22.4292    8.6720 C.2       4 UNK         0.5027 
     66 O         -47.6564  -21.5799    9.0973 O.2       4 UNK        -0.5211 
     67 CA        -45.3590  -22.2875    8.9572 C.3       4 UNK         0.0297 
     68 CB        -45.0515  -21.4792   10.2366 C.3       4 UNK        -0.1993 
     69 N         -44.6376  -23.5690    8.9398 N.am      4 UNK        -0.4486 
     70 C         -44.8077  -24.5983    9.7811 C.2       3 UNK         0.4961 
     71 O         -45.5326  -24.5742   10.7780 O.2       3 UNK        -0.5105 
     72 CA        -44.0261  -25.8793    9.4400 C.3       3 UNK         0.0299 
     73 CB        -42.6953  -25.9200   10.2084 C.3       3 UNK        -0.1972 
     74 N         -44.8044  -27.0784    9.7562 N.am      3 UNK        -0.4305 
     75 C         -45.9548  -27.4222    9.1611 C.2       2 UNK         0.5006 
     76 O         -46.4273  -26.8376    8.1806 O.2       2 UNK        -0.5106 
     77 CA        -46.7017  -28.6111    9.7818 C.3       2 UNK         0.0296 
     78 CB        -46.9806  -28.3722   11.2853 C.3       2 UNK        -0.2002 
     79 N         -47.9342  -28.8402    9.0236 N.am      2 UNK        -0.4032 
     80 C         -48.7015  -29.9347    9.0857 C.2       1 UNK         0.5000 
     81 O         -48.5007  -30.8474    9.8938 O.2       1 UNK        -0.5238 
     82 H82       -51.7399  -33.5091    8.7536 H         1 UNK         0.0889 
     83 H83       -50.3047  -34.4741    8.4024 H         1 UNK         0.0889 
     84 H84       -51.4793  -34.1404    7.1257 H         1 UNK         0.0889 
     85 H85       -51.2410  -31.3514    8.9642 H         1 UNK         0.3028 
     86 H86       -49.4078  -30.0191    7.0671 H         1 UNK         0.0864 
     87 H87       -51.8152  -29.2329    7.6883 H         1 UNK         0.0720 
     88 H88       -51.1533  -28.6659    9.1817 H         1 UNK         0.0720 
     89 H89       -51.4790  -26.3816    5.3825 H         1 UNK         0.0814 
     90 H90       -52.1642  -27.9420    5.7332 H         1 UNK         0.0814 
     91 H91       -52.5564  -24.3841    6.1594 H         1 UNK         0.1469 
     92 H92       -55.9001  -24.6533    8.8371 H         1 UNK         0.1381 
     93 H93       -53.6862  -28.1659    7.8190 H         1 UNK         0.1206 
     94 H94       -55.8857  -28.3437    8.9239 H         1 UNK         0.0813 
     95 H95       -56.7906  -26.9084    9.3180 H         1 UNK         0.0813 
     96 H96       -53.6669  -28.8684    9.8983 H         1 UNK         0.0638 
     97 H97       -52.8949  -27.9970   11.1864 H         1 UNK         0.0638 
     98 H98       -54.7860  -30.3603   11.4896 H         1 UNK         0.0568 
     99 H99       -52.3126  -31.0965   13.5892 H         1 UNK         0.3450 
    100 H100      -51.2891  -31.9408   12.4538 H         1 UNK         0.3450 
    101 H101      -53.4438  -28.7651   13.6111 H         1 UNK         0.2987 
    102 H102      -55.5577  -28.7007   15.5715 H         1 UNK         0.0766 
    103 H103      -55.6003  -30.2537   17.5352 H         1 UNK         0.0798 
    104 H104      -56.6141  -30.8363   16.2275 H         1 UNK         0.0798 
    105 H105      -55.0428  -31.5731   16.5069 H         1 UNK         0.0798 
    106 H106      -53.5722  -28.2395   16.3939 H         1 UNK         0.3198 
    107 H107      -51.1370  -29.6291   17.7135 H         1 UNK         0.0843 
    108 H108      -49.8026  -30.7472   15.9598 H         1 UNK         0.0831 
    109 H109      -49.0827  -29.1872   16.3162 H         1 UNK         0.0831 
    110 H110      -50.0441  -29.4030   14.8533 H         1 UNK         0.0831 
    111 H111      -51.3935  -27.4038   15.7398 H         1 UNK         0.3133 
    112 H112      -52.5477  -25.1725   18.1562 H         1 UNK         0.0566 
    113 H113      -49.6920  -25.0195   17.0469 H         1 UNK         0.0814 
    114 H114      -50.1460  -24.8615   18.7382 H         1 UNK         0.0814 
    115 H115      -50.6612  -23.6465   17.5792 H         1 UNK         0.0814 
    116 H116      -51.5961  -24.7987   15.4674 H         1 UNK         0.3091 
    117 H117      -54.3289  -26.2787   13.7742 H         1 UNK         0.0702 
    118 H118      -54.7042  -24.0472   12.7693 H         1 UNK         0.0785 
    119 H119      -53.8529  -23.2682   14.1027 H         1 UNK         0.0785 
    120 H120      -55.3799  -24.0952   14.3901 H         1 UNK         0.0785 
    121 H121      -52.2214  -24.6410   12.8101 H         1 UNK         0.2998 
    122 H122      -49.5007  -26.8137   13.2181 H         1 UNK         0.0697 
    123 H123      -51.0743  -26.7726   10.5889 H         1 UNK         0.0825 
    124 H124      -50.4588  -28.2108   11.4162 H         1 UNK         0.0825 
    125 H125      -49.3555  -27.0473   10.6988 H         1 UNK         0.0825 
    126 H126      -49.7327  -24.7694   11.3119 H         1 UNK         0.3029 
    127 H127      -50.0559  -21.8818   13.2894 H         1 UNK         0.0897 
    128 H128      -47.8841  -21.2043   12.2396 H         1 UNK         0.0792 
    129 H129      -47.6101  -22.2906   13.5942 H         1 UNK         0.0792 
    130 H130      -47.4902  -22.8990   11.9486 H         1 UNK         0.0792 
    131 H131      -49.4341  -22.2394   10.5304 H         1 UNK         0.3086 
    132 H132      -52.2471  -23.7421    9.3526 H         1 UNK         0.0583 
    133 H133      -53.6218  -21.7187    9.5937 H         1 UNK         0.1020 
    134 H134      -52.2727  -20.6935    9.1836 H         1 UNK         0.1020 
    135 H135      -55.2965  -22.5163    8.0018 H         1 UNK         0.0694 
    136 H136      -55.0993  -22.7896    6.2908 H         1 UNK         0.0694 
    137 H137      -50.5312  -22.2065    7.8015 H         1 UNK         0.2989 
    138 H138      -48.5224  -24.8360    7.0472 H         1 UNK         0.1055 
    139 H139      -49.9302  -23.1414    5.8393 H         1 UNK         0.0806 
    140 H140      -48.2337  -22.9990    5.4299 H         1 UNK         0.0806 
    141 H141      -48.9610  -21.8377    6.5296 H         1 UNK         0.0806 
    142 H142      -46.5226  -24.1607    7.7002 H         1 UNK         0.3061 
    143 H143      -44.9634  -21.7141    8.1175 H         1 UNK         0.0734 
    144 H144      -45.4972  -20.4848   10.1891 H         1 UNK         0.0832 
    145 H145      -45.4399  -21.9638   11.1313 H         1 UNK         0.0832 
    146 H146      -43.9784  -21.3441   10.3701 H         1 UNK         0.0832 
    147 H147      -44.0020  -23.6943    8.1629 H         1 UNK         0.3156 
    148 H148      -43.8119  -25.8922    8.3692 H         1 UNK         0.0589 
    149 H149      -42.8526  -25.9202   11.2880 H         1 UNK         0.0808 
    150 H150      -42.1144  -26.8064    9.9525 H         1 UNK         0.0808 
    151 H151      -42.0798  -25.0514    9.9703 H         1 UNK         0.0808 
    152 H152      -44.5113  -27.5986   10.5699 H         1 UNK         0.3098 
    153 H153      -46.0740  -29.4974    9.6695 H         1 UNK         0.0720 
    154 H154      -47.7428  -29.0416   11.6829 H         1 UNK         0.0791 
    155 H155      -46.0794  -28.5399   11.8752 H         1 UNK         0.0791 
    156 H156      -47.2973  -27.3479   11.4841 H         1 UNK         0.0791 
    157 H157      -48.1368  -28.1183    8.3395 H         1 UNK         0.3028 
@<TRIPOS>BOND
     1    1    2 1    
     2    1   82 1    
     3    1   83 1    
     4    1   84 1    
     5    2    3 2    
     6    2    4 am   BACKBONE|DICT|INTERRES
     7    4    5 1    
     8    4   85 1    
     9    5    6 1    
    10    5   80 1    
    11    5   86 1    
    12    6    7 1    
    13    6   87 1    
    14    6   88 1    
    15    7    8 1    
    16    8    9 1    
    17    8   89 1    
    18    8   90 1    
    19    9   10 ar   
    20    9   14 ar   
    21   10   11 ar   
    22   10   91 1    
    23   11   12 ar   
    24   11   58 1    
    25   12   13 ar   
    26   12   92 1    
    27   13   14 ar   
    28   13   15 1    
    29   14   93 1    
    30   15   16 1    
    31   15   94 1    
    32   15   95 1    
    33   16   17 1    
    34   17   18 1    
    35   17   96 1    
    36   17   97 1    
    37   18   19 1    
    38   18   22 1    
    39   18   98 1    
    40   19   20 am   BACKBONE|DICT|INTERRES
    41   19   21 2    
    42   20   99 1    
    43   20  100 1    
    44   22   23 am   BACKBONE|DICT|INTERRES
    45   22  101 1    
    46   23   24 2    
    47   23   25 1    
    48   25   26 1    
    49   25   27 1    
    50   25  102 1    
    51   26  103 1    
    52   26  104 1    
    53   26  105 1    
    54   27   28 am   BACKBONE|DICT|INTERRES
    55   27  106 1    
    56   28   29 2    
    57   28   30 1    
    58   30   31 1    
    59   30   32 1    
    60   30  107 1    
    61   31  108 1    
    62   31  109 1    
    63   31  110 1    
    64   32   33 am   BACKBONE|DICT|INTERRES
    65   32  111 1    
    66   33   34 2    
    67   33   35 1    
    68   35   36 1    
    69   35   37 1    
    70   35  112 1    
    71   36  113 1    
    72   36  114 1    
    73   36  115 1    
    74   37   38 am   BACKBONE|DICT|INTERRES
    75   37  116 1    
    76   38   39 2    
    77   38   40 1    
    78   40   41 1    
    79   40   42 1    
    80   40  117 1    
    81   41  118 1    
    82   41  119 1    
    83   41  120 1    
    84   42   43 am   BACKBONE|DICT|INTERRES
    85   42  121 1    
    86   43   44 2    
    87   43   45 1    
    88   45   46 1    
    89   45   47 1    
    90   45  122 1    
    91   46  123 1    
    92   46  124 1    
    93   46  125 1    
    94   47   48 am   BACKBONE|DICT|INTERRES
    95   47  126 1    
    96   48   49 2    
    97   48   50 1    
    98   50   51 1    
    99   50   52 1    
   100   50  127 1    
   101   51  128 1    
   102   51  129 1    
   103   51  130 1    
   104   52   53 am   BACKBONE|DICT|INTERRES
   105   52  131 1    
   106   53   54 2    
   107   53   55 1    
   108   55   56 1    
   109   55   59 1    
   110   55  132 1    
   111   56   57 1    
   112   56  133 1    
   113   56  134 1    
   114   57   58 1    
   115   58  135 1    
   116   58  136 1    
   117   59   60 am   BACKBONE|DICT|INTERRES
   118   59  137 1    
   119   60   61 2    
   120   60   62 1    
   121   62   63 1    
   122   62   64 1    
   123   62  138 1    
   124   63  139 1    
   125   63  140 1    
   126   63  141 1    
   127   64   65 am   BACKBONE|DICT|INTERRES
   128   64  142 1    
   129   65   66 2    
   130   65   67 1    
   131   67   68 1    
   132   67   69 1    
   133   67  143 1    
   134   68  144 1    
   135   68  145 1    
   136   68  146 1    
   137   69   70 am   BACKBONE|DICT|INTERRES
   138   69  147 1    
   139   70   71 2    
   140   70   72 1    
   141   72   73 1    
   142   72   74 1    
   143   72  148 1    
   144   73  149 1    
   145   73  150 1    
   146   73  151 1    
   147   74   75 am   BACKBONE|DICT|INTERRES
   148   74  152 1    
   149   75   76 2    
   150   75   77 1    
   151   77   78 1    
   152   77   79 1    
   153   77  153 1    
   154   78  154 1    
   155   78  155 1    
   156   78  156 1    
   157   79   80 am   BACKBONE|DICT|INTERRES
   158   79  157 1    
   159   80   81 2    
@<TRIPOS>SUBSTRUCTURE
     1 UNK         1 GROUP             0       ****    0 ROOT    
