@<TRIPOS>MOLECULE
3R207
157   159    1
SMALL
USER_CHARGES


@<TRIPOS>ATOM
      1 CA        -47.0652  -26.1341   11.5066 C.3       0 UNK        -0.1975 
      2 C         -47.4207  -26.6469   10.1201 C.2       0 UNK         0.4852 
      3 O         -47.5606  -25.8514    9.1925 O.2       0 UNK        -0.5216 
      4 N         -47.5786  -27.9692    9.9667 N.am      1 UNK        -0.4461 
      5 CA        -47.9035  -28.6359    8.6974 C.3       1 UNK         0.0864 
      6 C6        -49.3070  -28.2285    8.1673 C.3       14 UNK        -0.0898 
      7 S7        -50.0889  -29.5378    7.1733 S.3       14 UNK        -0.2598 
      8 C8        -51.2105  -28.5501    6.1275 C.3       14 UNK         0.0286 
      9 C9        -52.2701  -27.7900    6.9221 C.ar      14 UNK        -0.0844 
     10 C10       -52.5220  -26.4428    6.6405 C.ar      14 UNK        -0.0881 
     11 C11       -53.5107  -25.7431    7.3400 C.ar      14 UNK        -0.0643 
     12 C12       -54.2548  -26.4009    8.3220 C.ar      14 UNK        -0.0930 
     13 C13       -54.0115  -27.7437    8.6197 C.ar      14 UNK        -0.0827 
     14 C14       -53.0227  -28.4331    7.9121 C.ar      14 UNK        -0.1249 
     15 C15       -54.8247  -28.4575    9.6904 C.3       14 UNK         0.0141 
     16 S16       -54.2284  -28.0565   11.3624 S.3       14 UNK        -0.2313 
     17 C17       -55.2213  -26.5779   11.7788 C.3       14 UNK        -0.0915 
     18 CA        -56.2174  -26.7984   12.9474 C.3       13 UNK         0.0968 
     19 C         -57.2948  -27.8773   12.6164 C.2       13 UNK         0.5732 
     20 N         -57.3735  -28.9953   13.3308 N.am      13 UNK        -0.7310 
     21 O         -58.0830  -27.6872   11.6930 O.2       13 UNK        -0.5035 
     22 N         -55.5156  -26.9789   14.2251 N.am      13 UNK        -0.4233 
     23 C         -56.0931  -26.8853   15.4298 C.2       13 UNK         0.4989 
     24 O         -57.2571  -26.5176   15.6008 O.2       13 UNK        -0.4996 
     25 CA        -55.2289  -27.2793   16.6433 C.3       12 UNK         0.0216 
     26 CB        -56.0687  -27.6221   17.8919 C.3       12 UNK        -0.1964 
     27 N         -54.2771  -28.3590   16.3562 N.am      12 UNK        -0.4276 
     28 C         -54.5505  -29.5981   15.9189 C.2       12 UNK         0.5020 
     29 O         -55.6821  -29.9997   15.6426 O.2       12 UNK        -0.5489 
     30 CA        -53.3533  -30.5497   15.7505 C.3       11 UNK         0.0294 
     31 CB        -52.9087  -30.5883   14.2815 C.3       11 UNK        -0.2019 
     32 N         -52.2177  -30.1721   16.5998 N.am      11 UNK        -0.4493 
     33 C         -52.1381  -30.4273   17.9125 C.2       11 UNK         0.4932 
     34 O         -52.9743  -31.0847   18.5324 O.2       11 UNK        -0.5029 
     35 CA        -50.9419  -29.8287   18.6748 C.3       10 UNK         0.0280 
     36 CB        -49.5978  -30.4107   18.1894 C.3       10 UNK        -0.1976 
     37 N         -50.9377  -28.3578   18.6899 N.am      10 UNK        -0.4242 
     38 C         -50.7623  -27.5222   17.6579 C.2       10 UNK         0.5072 
     39 O         -50.5267  -27.8909   16.5036 O.2       10 UNK        -0.5224 
     40 CA        -50.8720  -26.0226   17.9669 C.3       9 UNK         0.0343 
     41 CB        -49.5255  -25.4738   18.4662 C.3       9 UNK        -0.2003 
     42 N         -51.2388  -25.3340   16.7334 N.am      9 UNK        -0.4272 
     43 C         -52.3521  -24.6221   16.5261 C.2       9 UNK         0.4988 
     44 O         -53.1368  -24.3064   17.4209 O.2       9 UNK        -0.5108 
     45 CA        -52.6648  -24.1981   15.0752 C.3       8 UNK         0.0248 
     46 CB        -52.5623  -22.6720   14.9204 C.3       8 UNK        -0.2001 
     47 N         -51.8111  -24.8339   14.0659 N.am      8 UNK        -0.4140 
     48 C         -51.8290  -26.1285   13.7267 C.2       8 UNK         0.5028 
     49 O         -52.6290  -26.9423   14.1903 O.2       8 UNK        -0.5428 
     50 CA        -50.7576  -26.5649   12.7109 C.3       7 UNK         0.0264 
     51 CB        -50.6020  -28.0916   12.6065 C.3       7 UNK        -0.1988 
     52 N         -51.0037  -26.0140   11.3768 N.am      7 UNK        -0.4454 
     53 C         -50.7294  -24.7563   11.0055 C.2       7 UNK         0.5027 
     54 O         -50.3068  -23.8987   11.7849 O.2       7 UNK        -0.5083 
     55 CA        -50.9301  -24.4245    9.5179 C.3       6 UNK         0.0844 
     56 C56       -52.1716  -23.5290    9.2569 C.3       14 UNK        -0.0967 
     57 S57       -52.4067  -23.1874    7.4749 S.3       14 UNK        -0.2604 
     58 C58       -53.7934  -24.2797    7.0298 C.3       14 UNK         0.0134 
     59 N         -49.6690  -23.9397    8.9526 N.am      6 UNK        -0.4116 
     60 C         -49.1288  -22.7124    8.9802 C.2       5 UNK         0.5034 
     61 O         -49.6449  -21.7230    9.5013 O.2       5 UNK        -0.5045 
     62 CA        -47.7677  -22.5571    8.2714 C.3       5 UNK         0.0224 
     63 CB        -46.6173  -22.5283    9.2913 C.3       5 UNK        -0.1978 
     64 N         -47.5224  -23.6235    7.2924 N.am      5 UNK        -0.4737 
     65 C         -48.1096  -23.6852    6.0894 C.2       4 UNK         0.5027 
     66 O         -48.8058  -22.7795    5.6278 O.2       4 UNK        -0.5211 
     67 CA        -47.8942  -24.9831    5.2849 C.3       4 UNK         0.0297 
     68 CB        -48.4609  -24.9051    3.8517 C.3       4 UNK        -0.1993 
     69 N         -46.4987  -25.4368    5.2617 N.am      4 UNK        -0.4486 
     70 C         -45.4241  -24.7500    4.8365 C.2       3 UNK         0.4961 
     71 O         -45.4786  -23.5994    4.4000 O.2       3 UNK        -0.5105 
     72 CA        -44.0564  -25.4693    4.8535 C.3       3 UNK         0.0299 
     73 CB        -42.9128  -24.5408    5.3173 C.3       3 UNK        -0.1972 
     74 N         -44.0444  -26.7416    5.5890 N.am      3 UNK        -0.4305 
     75 C         -44.2054  -26.9210    6.9071 C.2       2 UNK         0.5006 
     76 O         -44.3259  -26.0107    7.7290 O.2       2 UNK        -0.5106 
     77 CA        -44.2866  -28.3820    7.3800 C.3       2 UNK         0.0296 
     78 CB        -43.0697  -28.7453    8.2467 C.3       2 UNK        -0.2002 
     79 N         -45.5155  -28.6232    8.1379 N.am      2 UNK        -0.4032 
     80 C         -46.7619  -28.4659    7.6635 C.2       1 UNK         0.5000 
     81 O         -47.0066  -28.1679    6.4907 O.2       1 UNK        -0.5238 
     82 H82       -47.7119  -25.2992   11.7748 H         1 UNK         0.0889 
     83 H83       -46.0343  -25.7818   11.5192 H         1 UNK         0.0889 
     84 H84       -47.1747  -26.9065   12.2675 H         1 UNK         0.0889 
     85 H85       -47.4509  -28.5809   10.7612 H         1 UNK         0.3028 
     86 H86       -47.9313  -29.7006    8.9350 H         1 UNK         0.0864 
     87 H87       -49.9806  -28.0345    9.0035 H         1 UNK         0.0720 
     88 H88       -49.2645  -27.2966    7.6011 H         1 UNK         0.0720 
     89 H89       -51.7137  -29.2175    5.4269 H         1 UNK         0.0814 
     90 H90       -50.6109  -27.8662    5.5243 H         1 UNK         0.0814 
     91 H91       -51.9525  -25.9324    5.8755 H         1 UNK         0.1469 
     92 H92       -55.0272  -25.8635    8.8515 H         1 UNK         0.1381 
     93 H93       -52.8382  -29.4761    8.1307 H         1 UNK         0.1206 
     94 H94       -54.7570  -29.5376    9.5529 H         1 UNK         0.0813 
     95 H95       -55.8830  -28.2105    9.5936 H         1 UNK         0.0813 
     96 H96       -55.7679  -26.2346   10.9014 H         1 UNK         0.0638 
     97 H97       -54.5314  -25.7698   12.0266 H         1 UNK         0.0638 
     98 H98       -56.7779  -25.8670   13.0467 H         1 UNK         0.0568 
     99 H99       -58.0802  -29.6745   13.1002 H         1 UNK         0.3450 
    100 H100      -56.7362  -29.1750   14.0991 H         1 UNK         0.3450 
    101 H101      -54.5335  -27.2378   14.1652 H         1 UNK         0.2987 
    102 H102      -54.6329  -26.4012   16.8832 H         1 UNK         0.0766 
    103 H103      -56.6838  -26.7745   18.1966 H         1 UNK         0.0798 
    104 H104      -55.4326  -27.8792   18.7389 H         1 UNK         0.0798 
    105 H105      -56.7392  -28.4625   17.7087 H         1 UNK         0.0798 
    106 H106      -53.3000  -28.1140   16.4359 H         1 UNK         0.3198 
    107 H107      -53.6835  -31.5519   16.0325 H         1 UNK         0.0843 
    108 H108      -52.6367  -29.5966   13.9247 H         1 UNK         0.0831 
    109 H109      -53.7147  -30.9485   13.6407 H         1 UNK         0.0831 
    110 H110      -52.0546  -31.2494   14.1358 H         1 UNK         0.0831 
    111 H111      -51.5079  -29.5643   16.1982 H         1 UNK         0.3133 
    112 H112      -51.0571  -30.1284   19.7179 H         1 UNK         0.0566 
    113 H113      -48.7679  -30.0405   18.7912 H         1 UNK         0.0814 
    114 H114      -49.3878  -30.1666   17.1479 H         1 UNK         0.0814 
    115 H115      -49.5958  -31.4984   18.2707 H         1 UNK         0.0814 
    116 H116      -51.1387  -27.9467   19.5916 H         1 UNK         0.3091 
    117 H117      -51.6335  -25.8745   18.7356 H         1 UNK         0.0702 
    118 H118      -49.5862  -24.4038   18.6663 H         1 UNK         0.0785 
    119 H119      -48.7289  -25.6327   17.7379 H         1 UNK         0.0785 
    120 H120      -49.2221  -25.9600   19.3942 H         1 UNK         0.0785 
    121 H121      -50.7042  -25.6155   15.9237 H         1 UNK         0.2998 
    122 H122      -53.6962  -24.4935   14.8715 H         1 UNK         0.0697 
    123 H123      -51.5475  -22.3159   15.1024 H         1 UNK         0.0825 
    124 H124      -53.2189  -22.1610   15.6260 H         1 UNK         0.0825 
    125 H125      -52.8556  -22.3538   13.9197 H         1 UNK         0.0825 
    126 H126      -51.1576  -24.2343   13.5705 H         1 UNK         0.3029 
    127 H127      -49.8047  -26.1771   13.0776 H         1 UNK         0.0897 
    128 H128      -51.4832  -28.5621   12.1732 H         1 UNK         0.0792 
    129 H129      -50.4396  -28.5342   13.5904 H         1 UNK         0.0792 
    130 H130      -49.7469  -28.3606   11.9874 H         1 UNK         0.0792 
    131 H131      -51.4123  -26.6478   10.7040 H         1 UNK         0.3086 
    132 H132      -51.1087  -25.3695    9.0025 H         1 UNK         0.0583 
    133 H133      -53.0714  -23.9991    9.6572 H         1 UNK         0.1020 
    134 H134      -52.0803  -22.5769    9.7821 H         1 UNK         0.1020 
    135 H135      -54.6915  -23.9366    7.5459 H         1 UNK         0.0694 
    136 H136      -53.9957  -24.1739    5.9632 H         1 UNK         0.0694 
    137 H137      -49.0545  -24.6702    8.6098 H         1 UNK         0.2989 
    138 H138      -47.7817  -21.5991    7.7466 H         1 UNK         0.1055 
    139 H139      -46.5553  -23.4562    9.8601 H         1 UNK         0.0806 
    140 H140      -46.7528  -21.7167   10.0074 H         1 UNK         0.0806 
    141 H141      -45.6565  -22.3716    8.8006 H         1 UNK         0.0806 
    142 H142      -47.0030  -24.4290    7.6255 H         1 UNK         0.3061 
    143 H143      -48.4531  -25.7573    5.8126 H         1 UNK         0.0734 
    144 H144      -47.9693  -24.1286    3.2647 H         1 UNK         0.0832 
    145 H145      -48.3403  -25.8519    3.3255 H         1 UNK         0.0832 
    146 H146      -49.5275  -24.6771    3.8650 H         1 UNK         0.0832 
    147 H147      -46.3563  -26.3771    5.6171 H         1 UNK         0.3156 
    148 H148      -43.8543  -25.7334    3.8145 H         1 UNK         0.0589 
    149 H149      -41.9544  -25.0598    5.3194 H         1 UNK         0.0808 
    150 H150      -42.8121  -23.6823    4.6522 H         1 UNK         0.0808 
    151 H151      -43.0868  -24.1505    6.3204 H         1 UNK         0.0808 
    152 H152      -43.9732  -27.5670    5.0088 H         1 UNK         0.3098 
    153 H153      -44.2990  -29.0431    6.5109 H         1 UNK         0.0720 
    154 H154      -42.1402  -28.5915    7.6968 H         1 UNK         0.0791 
    155 H155      -43.0955  -29.7920    8.5508 H         1 UNK         0.0791 
    156 H156      -43.0190  -28.1336    9.1486 H         1 UNK         0.0791 
    157 H157      -45.4043  -28.8210    9.1210 H         1 UNK         0.3028 
@<TRIPOS>BOND
     1    1    2 1    
     2    1   82 1    
     3    1   83 1    
     4    1   84 1    
     5    2    3 2    
     6    2    4 am   BACKBONE|DICT|INTERRES
     7    4    5 1    
     8    4   85 1    
     9    5    6 1    
    10    5   80 1    
    11    5   86 1    
    12    6    7 1    
    13    6   87 1    
    14    6   88 1    
    15    7    8 1    
    16    8    9 1    
    17    8   89 1    
    18    8   90 1    
    19    9   10 ar   
    20    9   14 ar   
    21   10   11 ar   
    22   10   91 1    
    23   11   12 ar   
    24   11   58 1    
    25   12   13 ar   
    26   12   92 1    
    27   13   14 ar   
    28   13   15 1    
    29   14   93 1    
    30   15   16 1    
    31   15   94 1    
    32   15   95 1    
    33   16   17 1    
    34   17   18 1    
    35   17   96 1    
    36   17   97 1    
    37   18   19 1    
    38   18   22 1    
    39   18   98 1    
    40   19   20 am   BACKBONE|DICT|INTERRES
    41   19   21 2    
    42   20   99 1    
    43   20  100 1    
    44   22   23 am   BACKBONE|DICT|INTERRES
    45   22  101 1    
    46   23   24 2    
    47   23   25 1    
    48   25   26 1    
    49   25   27 1    
    50   25  102 1    
    51   26  103 1    
    52   26  104 1    
    53   26  105 1    
    54   27   28 am   BACKBONE|DICT|INTERRES
    55   27  106 1    
    56   28   29 2    
    57   28   30 1    
    58   30   31 1    
    59   30   32 1    
    60   30  107 1    
    61   31  108 1    
    62   31  109 1    
    63   31  110 1    
    64   32   33 am   BACKBONE|DICT|INTERRES
    65   32  111 1    
    66   33   34 2    
    67   33   35 1    
    68   35   36 1    
    69   35   37 1    
    70   35  112 1    
    71   36  113 1    
    72   36  114 1    
    73   36  115 1    
    74   37   38 am   BACKBONE|DICT|INTERRES
    75   37  116 1    
    76   38   39 2    
    77   38   40 1    
    78   40   41 1    
    79   40   42 1    
    80   40  117 1    
    81   41  118 1    
    82   41  119 1    
    83   41  120 1    
    84   42   43 am   BACKBONE|DICT|INTERRES
    85   42  121 1    
    86   43   44 2    
    87   43   45 1    
    88   45   46 1    
    89   45   47 1    
    90   45  122 1    
    91   46  123 1    
    92   46  124 1    
    93   46  125 1    
    94   47   48 am   BACKBONE|DICT|INTERRES
    95   47  126 1    
    96   48   49 2    
    97   48   50 1    
    98   50   51 1    
    99   50   52 1    
   100   50  127 1    
   101   51  128 1    
   102   51  129 1    
   103   51  130 1    
   104   52   53 am   BACKBONE|DICT|INTERRES
   105   52  131 1    
   106   53   54 2    
   107   53   55 1    
   108   55   56 1    
   109   55   59 1    
   110   55  132 1    
   111   56   57 1    
   112   56  133 1    
   113   56  134 1    
   114   57   58 1    
   115   58  135 1    
   116   58  136 1    
   117   59   60 am   BACKBONE|DICT|INTERRES
   118   59  137 1    
   119   60   61 2    
   120   60   62 1    
   121   62   63 1    
   122   62   64 1    
   123   62  138 1    
   124   63  139 1    
   125   63  140 1    
   126   63  141 1    
   127   64   65 am   BACKBONE|DICT|INTERRES
   128   64  142 1    
   129   65   66 2    
   130   65   67 1    
   131   67   68 1    
   132   67   69 1    
   133   67  143 1    
   134   68  144 1    
   135   68  145 1    
   136   68  146 1    
   137   69   70 am   BACKBONE|DICT|INTERRES
   138   69  147 1    
   139   70   71 2    
   140   70   72 1    
   141   72   73 1    
   142   72   74 1    
   143   72  148 1    
   144   73  149 1    
   145   73  150 1    
   146   73  151 1    
   147   74   75 am   BACKBONE|DICT|INTERRES
   148   74  152 1    
   149   75   76 2    
   150   75   77 1    
   151   77   78 1    
   152   77   79 1    
   153   77  153 1    
   154   78  154 1    
   155   78  155 1    
   156   78  156 1    
   157   79   80 am   BACKBONE|DICT|INTERRES
   158   79  157 1    
   159   80   81 2    
@<TRIPOS>SUBSTRUCTURE
     1 UNK         1 GROUP             0       ****    0 ROOT    
