@<TRIPOS>MOLECULE
3R207
157   159    1
SMALL
USER_CHARGES


@<TRIPOS>ATOM
      1 CA        -48.3270  -28.7169    3.5189 C.3       0 UNK        -0.1975 
      2 C         -49.3228  -27.6346    3.9077 C.2       0 UNK         0.4852 
      3 O         -49.6758  -26.7966    3.0756 O.2       0 UNK        -0.5216 
      4 N         -49.7776  -27.6402    5.1676 N.am      1 UNK        -0.4461 
      5 CA        -50.7204  -26.6671    5.7313 C.3       1 UNK         0.0864 
      6 C6        -51.4987  -27.2445    6.9412 C.3       14 UNK        -0.0898 
      7 S7        -52.5783  -28.6228    6.4296 S.3       14 UNK        -0.2598 
      8 C8        -51.6755  -30.0673    7.0668 C.3       14 UNK         0.0286 
      9 C9        -52.1902  -30.4781    8.4362 C.ar      14 UNK        -0.0844 
     10 C10       -51.6048  -29.9757    9.6025 C.ar      14 UNK        -0.0881 
     11 C11       -52.0702  -30.3804   10.8586 C.ar      14 UNK        -0.0643 
     12 C12       -53.1241  -31.2948   10.9399 C.ar      14 UNK        -0.0930 
     13 C13       -53.7451  -31.7674    9.7806 C.ar      14 UNK        -0.0827 
     14 C14       -53.2648  -31.3662    8.5319 C.ar      14 UNK        -0.1249 
     15 C15       -54.9656  -32.6715    9.8765 C.3       14 UNK         0.0141 
     16 S16       -56.3547  -31.8603   10.7379 S.3       14 UNK        -0.2313 
     17 C17       -56.5731  -30.3194    9.7762 C.3       14 UNK        -0.0915 
     18 CA        -55.8815  -29.0863   10.4236 C.3       13 UNK         0.0968 
     19 C         -56.1067  -27.8139    9.5642 C.2       13 UNK         0.5732 
     20 N         -55.2760  -27.5921    8.5547 N.am      13 UNK        -0.7310 
     21 O         -57.0508  -27.0538    9.7748 O.2       13 UNK        -0.5035 
     22 N         -56.2871  -28.9181   11.8257 N.am      13 UNK        -0.4233 
     23 C         -55.7187  -28.0928   12.7125 C.2       13 UNK         0.4989 
     24 O         -54.7678  -27.3520   12.4509 O.2       13 UNK        -0.4996 
     25 CA        -56.3444  -28.0706   14.1250 C.3       12 UNK         0.0216 
     26 CB        -57.0531  -29.3898   14.5147 C.3       12 UNK        -0.1964 
     27 N         -55.3895  -27.6753   15.1673 N.am      12 UNK        -0.4276 
     28 C         -54.2618  -28.3025   15.5316 C.2       12 UNK         0.5020 
     29 O         -53.8598  -29.3568   15.0346 O.2       12 UNK        -0.5489 
     30 CA        -53.4532  -27.6155   16.6485 C.3       11 UNK         0.0294 
     31 CB        -52.2147  -28.4213   17.0813 C.3       11 UNK        -0.2019 
     32 N         -53.0302  -26.2764   16.2362 N.am      11 UNK        -0.4493 
     33 C         -53.7770  -25.1682   16.3276 C.2       11 UNK         0.4932 
     34 O         -54.9255  -25.1722   16.7755 O.2       11 UNK        -0.5029 
     35 CA        -53.1688  -23.8557   15.7947 C.3       10 UNK         0.0280 
     36 CB        -53.7979  -22.5991   16.4332 C.3       10 UNK        -0.1976 
     37 N         -51.7034  -23.8089   15.8656 N.am      10 UNK        -0.4242 
     38 C         -50.9292  -23.8243   16.9630 C.2       10 UNK         0.5072 
     39 O         -51.3743  -23.8467   18.1115 O.2       10 UNK        -0.5224 
     40 CA        -49.3972  -23.8319   16.7670 C.3       9 UNK         0.0343 
     41 CB        -48.7890  -25.1290   17.3278 C.3       9 UNK        -0.2003 
     42 N         -48.9744  -23.6774   15.3719 N.am      9 UNK        -0.4272 
     43 C         -48.9746  -22.5239   14.6882 C.2       9 UNK         0.4988 
     44 O         -49.2427  -21.4314   15.1882 O.2       9 UNK        -0.5108 
     45 CA        -48.6760  -22.6120   13.1795 C.3       8 UNK         0.0248 
     46 CB        -47.1629  -22.5541   12.9159 C.3       8 UNK        -0.2001 
     47 N         -49.2366  -23.8152   12.5562 N.am      8 UNK        -0.4140 
     48 C         -50.5430  -24.1140   12.4975 C.2       8 UNK         0.5028 
     49 O         -51.4332  -23.3679   12.9026 O.2       8 UNK        -0.5428 
     50 CA        -50.9162  -25.5080   11.9720 C.3       7 UNK         0.0264 
     51 CB        -50.9461  -25.5352   10.4367 C.3       7 UNK        -0.1988 
     52 N         -50.0036  -26.5359   12.4766 N.am      7 UNK        -0.4454 
     53 C         -49.9811  -26.9611   13.7489 C.2       7 UNK         0.5027 
     54 O         -50.7398  -26.5355   14.6189 O.2       7 UNK        -0.5083 
     55 CA        -48.9116  -28.0068   14.1296 C.3       6 UNK         0.0844 
     56 C56       -49.4180  -29.4619   13.9795 C.3       14 UNK        -0.0967 
     57 S57       -49.6875  -30.0104   12.2579 S.3       14 UNK        -0.2604 
     58 C58       -51.4914  -29.7877   12.1333 C.3       14 UNK         0.0134 
     59 N         -47.6408  -27.7801   13.4399 N.am      6 UNK        -0.4116 
     60 C         -46.8361  -26.7372   13.6813 C.2       5 UNK         0.5034 
     61 O         -47.0710  -25.8691   14.5219 O.2       5 UNK        -0.5045 
     62 CA        -45.5793  -26.6194   12.8049 C.3       5 UNK         0.0224 
     63 CB        -44.4602  -27.5291   13.3367 C.3       5 UNK        -0.1978 
     64 N         -45.8088  -26.8974   11.3808 N.am      5 UNK        -0.4737 
     65 C         -46.6741  -26.2291   10.6075 C.2       4 UNK         0.5027 
     66 O         -47.4716  -25.3935   11.0364 O.2       4 UNK        -0.5211 
     67 CA        -46.6584  -26.5428    9.1046 C.3       4 UNK         0.0297 
     68 CB        -47.8332  -27.4581    8.7249 C.3       4 UNK        -0.1993 
     69 N         -46.7354  -25.2907    8.3476 N.am      4 UNK        -0.4486 
     70 C         -45.7066  -24.4361    8.2267 C.2       3 UNK         0.4961 
     71 O         -44.5644  -24.7035    8.6055 O.2       3 UNK        -0.5105 
     72 CA        -45.9864  -23.0403    7.6280 C.3       3 UNK         0.0299 
     73 CB        -44.7760  -22.4728    6.8545 C.3       3 UNK        -0.1972 
     74 N         -47.2114  -22.9546    6.8250 N.am      3 UNK        -0.4305 
     75 C         -47.4743  -23.5909    5.6759 C.2       2 UNK         0.5006 
     76 O         -46.6936  -24.3494    5.0972 O.2       2 UNK        -0.5106 
     77 CA        -48.8735  -23.3528    5.0873 C.3       2 UNK         0.0296 
     78 CB        -48.7860  -22.7294    3.6842 C.3       2 UNK        -0.2002 
     79 N         -49.6327  -24.5996    5.0189 N.am      2 UNK        -0.4032 
     80 C         -49.9809  -25.3571    6.0678 C.2       1 UNK         0.5000 
     81 O         -49.7126  -25.0727    7.2380 O.2       1 UNK        -0.5238 
     82 H82       -48.1175  -29.3954    4.3456 H         1 UNK         0.0889 
     83 H83       -47.3869  -28.2644    3.2045 H         1 UNK         0.0889 
     84 H84       -48.7176  -29.3045    2.6885 H         1 UNK         0.0889 
     85 H85       -49.4378  -28.3395    5.8100 H         1 UNK         0.3028 
     86 H86       -51.4599  -26.4186    4.9661 H         1 UNK         0.0864 
     87 H87       -52.1376  -26.4783    7.3846 H         1 UNK         0.0720 
     88 H88       -50.8201  -27.5662    7.7316 H         1 UNK         0.0720 
     89 H89       -50.6035  -29.8700    7.1018 H         1 UNK         0.0814 
     90 H90       -51.8034  -30.8931    6.3652 H         1 UNK         0.0814 
     91 H91       -50.7897  -29.2685    9.5371 H         1 UNK         0.1469 
     92 H92       -53.5055  -31.5948   11.9067 H         1 UNK         0.1381 
     93 H93       -53.7372  -31.7317    7.6301 H         1 UNK         0.1206 
     94 H94       -54.6967  -33.5821   10.4134 H         1 UNK         0.0813 
     95 H95       -55.2993  -32.9845    8.8859 H         1 UNK         0.0813 
     96 H96       -57.6457  -30.1417    9.6790 H         1 UNK         0.0638 
     97 H97       -56.2021  -30.4792    8.7621 H         1 UNK         0.0638 
     98 H98       -54.8066  -29.2604   10.4358 H         1 UNK         0.0568 
     99 H99       -54.5111  -28.2196    8.3568 H         1 UNK         0.3450 
    100 H100      -55.4198  -26.7812    7.9749 H         1 UNK         0.3450 
    101 H101      -57.0684  -29.4827   12.1210 H         1 UNK         0.2987 
    102 H102      -57.1004  -27.2843   14.1034 H         1 UNK         0.0766 
    103 H103      -56.3864  -30.2491   14.4285 H         1 UNK         0.0798 
    104 H104      -57.9234  -29.5804   13.8859 H         1 UNK         0.0798 
    105 H105      -57.4133  -29.3540   15.5430 H         1 UNK         0.0798 
    106 H106      -55.5775  -26.7890   15.6249 H         1 UNK         0.3198 
    107 H107      -54.1082  -27.5342   17.5189 H         1 UNK         0.0843 
    108 H108      -51.5085  -28.5444   16.2621 H         1 UNK         0.0831 
    109 H109      -52.4966  -29.4180   17.4231 H         1 UNK         0.0831 
    110 H110      -51.6911  -27.9318   17.9026 H         1 UNK         0.0831 
    111 H111      -52.1343  -26.2233   15.7524 H         1 UNK         0.3133 
    112 H112      -53.4123  -23.8336   14.7319 H         1 UNK         0.0566 
    113 H113      -54.8700  -22.5555   16.2377 H         1 UNK         0.0814 
    114 H114      -53.6658  -22.5840   17.5153 H         1 UNK         0.0814 
    115 H115      -53.3596  -21.6871   16.0278 H         1 UNK         0.0814 
    116 H116      -51.2435  -23.7876   14.9625 H         1 UNK         0.3091 
    117 H117      -48.9957  -22.9947   17.3416 H         1 UNK         0.0702 
    118 H118      -47.7031  -25.1333   17.2306 H         1 UNK         0.0785 
    119 H119      -49.1750  -26.0094   16.8140 H         1 UNK         0.0785 
    120 H120      -49.0191  -25.2444   18.3877 H         1 UNK         0.0785 
    121 H121      -48.6639  -24.5189   14.8990 H         1 UNK         0.2998 
    122 H122      -49.1398  -21.7478   12.6997 H         1 UNK         0.0697 
    123 H123      -46.6426  -23.4016   13.3629 H         1 UNK         0.0825 
    124 H124      -46.7279  -21.6455   13.3342 H         1 UNK         0.0825 
    125 H125      -46.9462  -22.5570   11.8473 H         1 UNK         0.0825 
    126 H126      -48.5732  -24.4655   12.1353 H         1 UNK         0.3029 
    127 H127      -51.9210  -25.7437   12.3319 H         1 UNK         0.0897 
    128 H128      -49.9852  -25.2525   10.0064 H         1 UNK         0.0792 
    129 H129      -51.6878  -24.8346   10.0512 H         1 UNK         0.0792 
    130 H130      -51.2106  -26.5235   10.0609 H         1 UNK         0.0792 
    131 H131      -49.3092  -26.8880   11.8340 H         1 UNK         0.3086 
    132 H132      -48.7173  -27.8612   15.1946 H         1 UNK         0.0583 
    133 H133      -48.6871  -30.1389   14.4246 H         1 UNK         0.1020 
    134 H134      -50.3280  -29.6123   14.5620 H         1 UNK         0.1020 
    135 H135      -51.9660  -30.2380   13.0069 H         1 UNK         0.0694 
    136 H136      -51.7398  -28.7266   12.1650 H         1 UNK         0.0694 
    137 H137      -47.3864  -28.4430   12.7221 H         1 UNK         0.2989 
    138 H138      -45.2377  -25.5845   12.8794 H         1 UNK         0.1055 
    139 H139      -44.2641  -27.3309   14.3916 H         1 UNK         0.0806 
    140 H140      -43.5254  -27.3632   12.8007 H         1 UNK         0.0806 
    141 H141      -44.7169  -28.5853   13.2459 H         1 UNK         0.0806 
    142 H142      -45.1945  -27.5728   10.9478 H         1 UNK         0.3061 
    143 H143      -45.7270  -27.0530    8.8492 H         1 UNK         0.0734 
    144 H144      -47.8365  -27.6725    7.6565 H         1 UNK         0.0832 
    145 H145      -47.7713  -28.4127    9.2491 H         1 UNK         0.0832 
    146 H146      -48.7927  -27.0098    8.9788 H         1 UNK         0.0832 
    147 H147      -47.6581  -24.9991    8.0455 H         1 UNK         0.3156 
    148 H148      -46.1544  -22.3876    8.4859 H         1 UNK         0.0589 
    149 H149      -44.4893  -23.1156    6.0217 H         1 UNK         0.0808 
    150 H150      -44.9882  -21.4808    6.4559 H         1 UNK         0.0808 
    151 H151      -43.9047  -22.3779    7.5037 H         1 UNK         0.0808 
    152 H152      -47.9448  -22.3832    7.2227 H         1 UNK         0.3098 
    153 H153      -49.4238  -22.6639    5.7318 H         1 UNK         0.0720 
    154 H154      -49.7762  -22.5073    3.2857 H         1 UNK         0.0791 
    155 H155      -48.2815  -23.3916    2.9789 H         1 UNK         0.0791 
    156 H156      -48.2284  -21.7921    3.7079 H         1 UNK         0.0791 
    157 H157      -49.7949  -24.9872    4.0956 H         1 UNK         0.3028 
@<TRIPOS>BOND
     1    1    2 1    
     2    1   82 1    
     3    1   83 1    
     4    1   84 1    
     5    2    3 2    
     6    2    4 am   BACKBONE|DICT|INTERRES
     7    4    5 1    
     8    4   85 1    
     9    5    6 1    
    10    5   80 1    
    11    5   86 1    
    12    6    7 1    
    13    6   87 1    
    14    6   88 1    
    15    7    8 1    
    16    8    9 1    
    17    8   89 1    
    18    8   90 1    
    19    9   10 ar   
    20    9   14 ar   
    21   10   11 ar   
    22   10   91 1    
    23   11   12 ar   
    24   11   58 1    
    25   12   13 ar   
    26   12   92 1    
    27   13   14 ar   
    28   13   15 1    
    29   14   93 1    
    30   15   16 1    
    31   15   94 1    
    32   15   95 1    
    33   16   17 1    
    34   17   18 1    
    35   17   96 1    
    36   17   97 1    
    37   18   19 1    
    38   18   22 1    
    39   18   98 1    
    40   19   20 am   BACKBONE|DICT|INTERRES
    41   19   21 2    
    42   20   99 1    
    43   20  100 1    
    44   22   23 am   BACKBONE|DICT|INTERRES
    45   22  101 1    
    46   23   24 2    
    47   23   25 1    
    48   25   26 1    
    49   25   27 1    
    50   25  102 1    
    51   26  103 1    
    52   26  104 1    
    53   26  105 1    
    54   27   28 am   BACKBONE|DICT|INTERRES
    55   27  106 1    
    56   28   29 2    
    57   28   30 1    
    58   30   31 1    
    59   30   32 1    
    60   30  107 1    
    61   31  108 1    
    62   31  109 1    
    63   31  110 1    
    64   32   33 am   BACKBONE|DICT|INTERRES
    65   32  111 1    
    66   33   34 2    
    67   33   35 1    
    68   35   36 1    
    69   35   37 1    
    70   35  112 1    
    71   36  113 1    
    72   36  114 1    
    73   36  115 1    
    74   37   38 am   BACKBONE|DICT|INTERRES
    75   37  116 1    
    76   38   39 2    
    77   38   40 1    
    78   40   41 1    
    79   40   42 1    
    80   40  117 1    
    81   41  118 1    
    82   41  119 1    
    83   41  120 1    
    84   42   43 am   BACKBONE|DICT|INTERRES
    85   42  121 1    
    86   43   44 2    
    87   43   45 1    
    88   45   46 1    
    89   45   47 1    
    90   45  122 1    
    91   46  123 1    
    92   46  124 1    
    93   46  125 1    
    94   47   48 am   BACKBONE|DICT|INTERRES
    95   47  126 1    
    96   48   49 2    
    97   48   50 1    
    98   50   51 1    
    99   50   52 1    
   100   50  127 1    
   101   51  128 1    
   102   51  129 1    
   103   51  130 1    
   104   52   53 am   BACKBONE|DICT|INTERRES
   105   52  131 1    
   106   53   54 2    
   107   53   55 1    
   108   55   56 1    
   109   55   59 1    
   110   55  132 1    
   111   56   57 1    
   112   56  133 1    
   113   56  134 1    
   114   57   58 1    
   115   58  135 1    
   116   58  136 1    
   117   59   60 am   BACKBONE|DICT|INTERRES
   118   59  137 1    
   119   60   61 2    
   120   60   62 1    
   121   62   63 1    
   122   62   64 1    
   123   62  138 1    
   124   63  139 1    
   125   63  140 1    
   126   63  141 1    
   127   64   65 am   BACKBONE|DICT|INTERRES
   128   64  142 1    
   129   65   66 2    
   130   65   67 1    
   131   67   68 1    
   132   67   69 1    
   133   67  143 1    
   134   68  144 1    
   135   68  145 1    
   136   68  146 1    
   137   69   70 am   BACKBONE|DICT|INTERRES
   138   69  147 1    
   139   70   71 2    
   140   70   72 1    
   141   72   73 1    
   142   72   74 1    
   143   72  148 1    
   144   73  149 1    
   145   73  150 1    
   146   73  151 1    
   147   74   75 am   BACKBONE|DICT|INTERRES
   148   74  152 1    
   149   75   76 2    
   150   75   77 1    
   151   77   78 1    
   152   77   79 1    
   153   77  153 1    
   154   78  154 1    
   155   78  155 1    
   156   78  156 1    
   157   79   80 am   BACKBONE|DICT|INTERRES
   158   79  157 1    
   159   80   81 2    
@<TRIPOS>SUBSTRUCTURE
     1 UNK         1 GROUP             0       ****    0 ROOT    
