@<TRIPOS>MOLECULE
3R207
157   159    1
SMALL
USER_CHARGES


@<TRIPOS>ATOM
      1 CA        -49.8075  -23.0939    1.2892 C.3       0 UNK        -0.1975 
      2 C         -48.9960  -22.8072    2.5437 C.2       0 UNK         0.4852 
      3 O         -48.0582  -22.0105    2.4978 O.2       0 UNK        -0.5216 
      4 N         -49.3438  -23.4561    3.6633 N.am      1 UNK        -0.4461 
      5 CA        -48.6821  -23.3054    4.9669 C.3       1 UNK         0.0864 
      6 C6        -49.6366  -23.6630    6.1321 C.3       14 UNK        -0.0898 
      7 S7        -50.2599  -25.3799    6.0850 S.3       14 UNK        -0.2598 
      8 C8        -51.9237  -25.1833    6.8275 C.3       14 UNK         0.0286 
      9 C9        -52.3661  -26.3196    7.7545 C.ar      14 UNK        -0.0844 
     10 C10       -51.7334  -27.5683    7.7720 C.ar      14 UNK        -0.0881 
     11 C11       -52.1573  -28.5714    8.6437 C.ar      14 UNK        -0.0643 
     12 C12       -53.2553  -28.3448    9.4726 C.ar      14 UNK        -0.0930 
     13 C13       -53.8967  -27.0998    9.4902 C.ar      14 UNK        -0.0827 
     14 C14       -53.4414  -26.0989    8.6235 C.ar      14 UNK        -0.1249 
     15 C15       -55.0653  -26.7723   10.4273 C.3       14 UNK         0.0141 
     16 S16       -55.7391  -28.1580   11.4142 S.3       14 UNK        -0.2313 
     17 C17       -54.4526  -28.3456   12.6930 C.3       14 UNK        -0.0915 
     18 CA        -54.7753  -29.4611   13.7161 C.3       13 UNK         0.0968 
     19 C         -53.5291  -29.7889   14.5926 C.2       13 UNK         0.5732 
     20 N         -53.5474  -29.5939   15.9064 N.am      13 UNK        -0.7310 
     21 O         -52.5214  -30.2523   14.0652 O.2       13 UNK        -0.5035 
     22 N         -55.9928  -29.1511   14.4776 N.am      13 UNK        -0.4233 
     23 C         -56.7191  -30.0512   15.1536 C.2       13 UNK         0.4989 
     24 O         -56.5207  -31.2663   15.0978 O.2       13 UNK        -0.4996 
     25 CA        -57.8448  -29.4972   16.0558 C.3       12 UNK         0.0216 
     26 CB        -58.2198  -30.4652   17.1986 C.3       12 UNK        -0.1964 
     27 N         -57.5572  -28.1571   16.5895 N.am      12 UNK        -0.4276 
     28 C         -56.4891  -27.7914   17.3140 C.2       12 UNK         0.5020 
     29 O         -55.6023  -28.5634   17.6846 O.2       12 UNK        -0.5489 
     30 CA        -56.3451  -26.2895   17.5989 C.3       11 UNK         0.0294 
     31 CB        -56.0443  -26.0281   19.0843 C.3       11 UNK        -0.2019 
     32 N         -55.2804  -25.7037   16.7828 N.am      11 UNK        -0.4493 
     33 C         -55.2484  -25.6418   15.4462 C.2       11 UNK         0.4932 
     34 O         -56.1395  -26.0896   14.7234 O.2       11 UNK        -0.5029 
     35 CA        -54.0304  -24.9563   14.7991 C.3       10 UNK         0.0280 
     36 CB        -54.0773  -23.4314   15.0165 C.3       10 UNK        -0.1976 
     37 N         -52.7213  -25.5076   15.1785 N.am      10 UNK        -0.4242 
     38 C         -52.1301  -25.5190   16.3840 C.2       10 UNK         0.5072 
     39 O         -52.6597  -25.1252   17.4248 O.2       10 UNK        -0.5224 
     40 CA        -50.6731  -26.0101   16.4287 C.3       9 UNK         0.0343 
     41 CB        -50.5977  -27.5404   16.3102 C.3       9 UNK        -0.2003 
     42 N         -49.8438  -25.3814   15.3967 N.am      9 UNK        -0.4272 
     43 C         -49.5661  -24.0687   15.3418 C.2       9 UNK         0.4988 
     44 O         -49.9069  -23.2571   16.2034 O.2       9 UNK        -0.5108 
     45 CA        -48.7790  -23.5661   14.1209 C.3       8 UNK         0.0248 
     46 CB        -47.2664  -23.7112   14.3533 C.3       8 UNK        -0.2001 
     47 N         -49.1558  -24.2474   12.8817 N.am      8 UNK        -0.4140 
     48 C         -50.3412  -24.1220   12.2669 C.2       8 UNK         0.5028 
     49 O         -51.2320  -23.3582   12.6383 O.2       8 UNK        -0.5428 
     50 CA        -50.5806  -25.0173   11.0391 C.3       7 UNK         0.0264 
     51 CB        -49.9027  -24.4235    9.7959 C.3       7 UNK        -0.1988 
     52 N         -50.1134  -26.3906   11.2406 N.am      7 UNK        -0.4454 
     53 C         -50.6145  -27.2395   12.1499 C.2       7 UNK         0.5027 
     54 O         -51.5422  -26.9533   12.9089 O.2       7 UNK        -0.5083 
     55 CA        -49.9063  -28.6036   12.2984 C.3       6 UNK         0.0844 
     56 C56       -50.5148  -29.7185   11.4072 C.3       14 UNK        -0.0967 
     57 S57       -49.8893  -29.7484    9.6885 S.3       14 UNK        -0.2604 
     58 C58       -51.4124  -29.8940    8.7012 C.3       14 UNK         0.0134 
     59 N         -48.4541  -28.4913   12.1366 N.am      6 UNK        -0.4116 
     60 C         -47.6404  -27.8415   12.9762 C.2       5 UNK         0.5034 
     61 O         -48.0177  -27.2857   14.0079 O.2       5 UNK        -0.5045 
     62 CA        -46.1619  -27.7698   12.5678 C.3       5 UNK         0.0224 
     63 CB        -45.4764  -29.1369   12.7250 C.3       5 UNK        -0.1978 
     64 N         -45.9539  -27.2667   11.2048 N.am      5 UNK        -0.4737 
     65 C         -46.2820  -26.0413   10.7794 C.2       4 UNK         0.5027 
     66 O         -46.9241  -25.2425   11.4568 O.2       4 UNK        -0.5211 
     67 CA        -45.7893  -25.6070    9.3875 C.3       4 UNK         0.0297 
     68 CB        -44.2557  -25.4574    9.3651 C.3       4 UNK        -0.1993 
     69 N         -46.2555  -26.4233    8.2609 N.am      4 UNK        -0.4486 
     70 C         -46.0220  -27.7179    7.9970 C.2       3 UNK         0.4961 
     71 O         -45.4085  -28.4810    8.7443 O.2       3 UNK        -0.5105 
     72 CA        -46.5445  -28.2492    6.6491 C.3       3 UNK         0.0299 
     73 CB        -47.9413  -28.8602    6.8165 C.3       3 UNK        -0.1972 
     74 N         -46.5880  -27.2251    5.6004 N.am      3 UNK        -0.4305 
     75 C         -45.5032  -26.6910    5.0191 C.2       2 UNK         0.5006 
     76 O         -44.3489  -27.0265    5.2876 O.2       2 UNK        -0.5106 
     77 CA        -45.7311  -25.6063    3.9508 C.3       2 UNK         0.0296 
     78 CB        -45.6338  -26.2134    2.5414 C.3       2 UNK        -0.2002 
     79 N         -47.0020  -24.8857    4.0733 N.am      2 UNK        -0.4032 
     80 C         -47.3314  -24.0532    5.0729 C.2       1 UNK         0.5000 
     81 O         -46.6175  -23.8672    6.0604 O.2       1 UNK        -0.5238 
     82 H82       -50.2717  -22.1773    0.9259 H         1 UNK         0.0889 
     83 H83       -50.5962  -23.8239    1.4712 H         1 UNK         0.0889 
     84 H84       -49.1600  -23.4826    0.5036 H         1 UNK         0.0889 
     85 H85       -50.1226  -24.1006    3.6487 H         1 UNK         0.3028 
     86 H86       -48.4329  -22.2481    5.0831 H         1 UNK         0.0864 
     87 H87       -50.4847  -22.9769    6.1103 H         1 UNK         0.0720 
     88 H88       -49.1490  -23.4945    7.0939 H         1 UNK         0.0720 
     89 H89       -52.6538  -25.0761    6.0245 H         1 UNK         0.0814 
     90 H90       -51.9515  -24.2525    7.3958 H         1 UNK         0.0814 
     91 H91       -50.8998  -27.7726    7.1184 H         1 UNK         0.1469 
     92 H92       -53.5878  -29.1494   10.1091 H         1 UNK         0.1381 
     93 H93       -53.9307  -25.1340    8.6266 H         1 UNK         0.1206 
     94 H94       -54.7603  -25.9751   11.1070 H         1 UNK         0.0813 
     95 H95       -55.8827  -26.3680    9.8287 H         1 UNK         0.0813 
     96 H96       -54.3158  -27.3922   13.1992 H         1 UNK         0.0638 
     97 H97       -53.5061  -28.5513   12.1993 H         1 UNK         0.0638 
     98 H98       -54.9721  -30.3721   13.1478 H         1 UNK         0.0568 
     99 H99       -52.7312  -29.8408   16.4402 H         1 UNK         0.3450 
    100 H100      -54.3680  -29.2368   16.3875 H         1 UNK         0.3450 
    101 H101      -56.2140  -28.1661   14.5711 H         1 UNK         0.2987 
    102 H102      -58.7190  -29.3905   15.4119 H         1 UNK         0.0766 
    103 H103      -59.0250  -30.0617   17.8125 H         1 UNK         0.0798 
    104 H104      -57.3698  -30.6679   17.8512 H         1 UNK         0.0798 
    105 H105      -58.5639  -31.4229   16.8059 H         1 UNK         0.0798 
    106 H106      -58.1937  -27.4290   16.2924 H         1 UNK         0.3198 
    107 H107      -57.2804  -25.7851   17.3476 H         1 UNK         0.0843 
    108 H108      -55.0911  -26.4647   19.3861 H         1 UNK         0.0831 
    109 H109      -56.8175  -26.4602   19.7209 H         1 UNK         0.0831 
    110 H110      -56.0057  -24.9602   19.2995 H         1 UNK         0.0831 
    111 H111      -54.4451  -25.3830   17.2703 H         1 UNK         0.3133 
    112 H112      -54.1094  -25.1224   13.7238 H         1 UNK         0.0566 
    113 H113      -53.2731  -22.9321   14.4757 H         1 UNK         0.0814 
    114 H114      -55.0182  -23.0150   14.6547 H         1 UNK         0.0814 
    115 H115      -53.9866  -23.1624   16.0693 H         1 UNK         0.0814 
    116 H116      -52.1975  -25.9126   14.4048 H         1 UNK         0.3091 
    117 H117      -50.2579  -25.7290   17.3988 H         1 UNK         0.0702 
    118 H118      -49.5692  -27.8941   16.3838 H         1 UNK         0.0785 
    119 H119      -51.0066  -27.8971   15.3653 H         1 UNK         0.0785 
    120 H120      -51.1640  -28.0182   17.1104 H         1 UNK         0.0785 
    121 H121      -49.4519  -25.9906   14.6863 H         1 UNK         0.2998 
    122 H122      -49.0024  -22.5044   13.9976 H         1 UNK         0.0697 
    123 H123      -46.9711  -24.7566   14.4510 H         1 UNK         0.0825 
    124 H124      -46.9592  -23.1971   15.2650 H         1 UNK         0.0825 
    125 H125      -46.6966  -23.2803   13.5298 H         1 UNK         0.0825 
    126 H126      -48.4423  -24.8324   12.4512 H         1 UNK         0.3029 
    127 H127      -51.6567  -25.0634   10.8571 H         1 UNK         0.0897 
    128 H128      -49.9734  -25.1044    8.9506 H         1 UNK         0.0792 
    129 H129      -48.8462  -24.2137    9.9611 H         1 UNK         0.0792 
    130 H130      -50.3787  -23.4862    9.5060 H         1 UNK         0.0792 
    131 H131      -49.3383  -26.6989   10.6736 H         1 UNK         0.3086 
    132 H132      -50.0788  -28.9108   13.3322 H         1 UNK         0.0583 
    133 H133      -50.2739  -30.6872   11.8479 H         1 UNK         0.1020 
    134 H134      -51.6035  -29.6734   11.4183 H         1 UNK         0.1020 
    135 H135      -51.1469  -30.2056    7.6899 H         1 UNK         0.0694 
    136 H136      -52.0432  -30.6852    9.1094 H         1 UNK         0.0694 
    137 H137      -48.0672  -28.9080   11.3018 H         1 UNK         0.2989 
    138 H138      -45.6769  -27.0690   13.2513 H         1 UNK         0.1055 
    139 H139      -45.6215  -29.5342   13.7308 H         1 UNK         0.0806 
    140 H140      -44.4013  -29.0602   12.5614 H         1 UNK         0.0806 
    141 H141      -45.8686  -29.8730   12.0222 H         1 UNK         0.0806 
    142 H142      -45.4946  -27.8794   10.5346 H         1 UNK         0.3061 
    143 H143      -46.2077  -24.6143    9.2115 H         1 UNK         0.0734 
    144 H144      -43.9164  -25.0291    8.4218 H         1 UNK         0.0832 
    145 H145      -43.9170  -24.7944   10.1624 H         1 UNK         0.0832 
    146 H146      -43.7471  -26.4125    9.4992 H         1 UNK         0.0832 
    147 H147      -46.7643  -25.9049    7.5570 H         1 UNK         0.3156 
    148 H148      -45.8671  -29.0396    6.3186 H         1 UNK         0.0589 
    149 H149      -48.6472  -28.1371    7.2245 H         1 UNK         0.0808 
    150 H150      -48.3383  -29.2270    5.8699 H         1 UNK         0.0808 
    151 H151      -47.9072  -29.7085    7.5007 H         1 UNK         0.0808 
    152 H152      -47.4991  -26.9014    5.3091 H         1 UNK         0.3098 
    153 H153      -44.9276  -24.8750    4.0615 H         1 UNK         0.0720 
    154 H154      -45.6949  -25.4435    1.7718 H         1 UNK         0.0791 
    155 H155      -46.4282  -26.9381    2.3575 H         1 UNK         0.0791 
    156 H156      -44.6830  -26.7306    2.4033 H         1 UNK         0.0791 
    157 H157      -47.6551  -24.9815    3.3097 H         1 UNK         0.3028 
@<TRIPOS>BOND
     1    1    2 1    
     2    1   82 1    
     3    1   83 1    
     4    1   84 1    
     5    2    3 2    
     6    2    4 am   BACKBONE|DICT|INTERRES
     7    4    5 1    
     8    4   85 1    
     9    5    6 1    
    10    5   80 1    
    11    5   86 1    
    12    6    7 1    
    13    6   87 1    
    14    6   88 1    
    15    7    8 1    
    16    8    9 1    
    17    8   89 1    
    18    8   90 1    
    19    9   10 ar   
    20    9   14 ar   
    21   10   11 ar   
    22   10   91 1    
    23   11   12 ar   
    24   11   58 1    
    25   12   13 ar   
    26   12   92 1    
    27   13   14 ar   
    28   13   15 1    
    29   14   93 1    
    30   15   16 1    
    31   15   94 1    
    32   15   95 1    
    33   16   17 1    
    34   17   18 1    
    35   17   96 1    
    36   17   97 1    
    37   18   19 1    
    38   18   22 1    
    39   18   98 1    
    40   19   20 am   BACKBONE|DICT|INTERRES
    41   19   21 2    
    42   20   99 1    
    43   20  100 1    
    44   22   23 am   BACKBONE|DICT|INTERRES
    45   22  101 1    
    46   23   24 2    
    47   23   25 1    
    48   25   26 1    
    49   25   27 1    
    50   25  102 1    
    51   26  103 1    
    52   26  104 1    
    53   26  105 1    
    54   27   28 am   BACKBONE|DICT|INTERRES
    55   27  106 1    
    56   28   29 2    
    57   28   30 1    
    58   30   31 1    
    59   30   32 1    
    60   30  107 1    
    61   31  108 1    
    62   31  109 1    
    63   31  110 1    
    64   32   33 am   BACKBONE|DICT|INTERRES
    65   32  111 1    
    66   33   34 2    
    67   33   35 1    
    68   35   36 1    
    69   35   37 1    
    70   35  112 1    
    71   36  113 1    
    72   36  114 1    
    73   36  115 1    
    74   37   38 am   BACKBONE|DICT|INTERRES
    75   37  116 1    
    76   38   39 2    
    77   38   40 1    
    78   40   41 1    
    79   40   42 1    
    80   40  117 1    
    81   41  118 1    
    82   41  119 1    
    83   41  120 1    
    84   42   43 am   BACKBONE|DICT|INTERRES
    85   42  121 1    
    86   43   44 2    
    87   43   45 1    
    88   45   46 1    
    89   45   47 1    
    90   45  122 1    
    91   46  123 1    
    92   46  124 1    
    93   46  125 1    
    94   47   48 am   BACKBONE|DICT|INTERRES
    95   47  126 1    
    96   48   49 2    
    97   48   50 1    
    98   50   51 1    
    99   50   52 1    
   100   50  127 1    
   101   51  128 1    
   102   51  129 1    
   103   51  130 1    
   104   52   53 am   BACKBONE|DICT|INTERRES
   105   52  131 1    
   106   53   54 2    
   107   53   55 1    
   108   55   56 1    
   109   55   59 1    
   110   55  132 1    
   111   56   57 1    
   112   56  133 1    
   113   56  134 1    
   114   57   58 1    
   115   58  135 1    
   116   58  136 1    
   117   59   60 am   BACKBONE|DICT|INTERRES
   118   59  137 1    
   119   60   61 2    
   120   60   62 1    
   121   62   63 1    
   122   62   64 1    
   123   62  138 1    
   124   63  139 1    
   125   63  140 1    
   126   63  141 1    
   127   64   65 am   BACKBONE|DICT|INTERRES
   128   64  142 1    
   129   65   66 2    
   130   65   67 1    
   131   67   68 1    
   132   67   69 1    
   133   67  143 1    
   134   68  144 1    
   135   68  145 1    
   136   68  146 1    
   137   69   70 am   BACKBONE|DICT|INTERRES
   138   69  147 1    
   139   70   71 2    
   140   70   72 1    
   141   72   73 1    
   142   72   74 1    
   143   72  148 1    
   144   73  149 1    
   145   73  150 1    
   146   73  151 1    
   147   74   75 am   BACKBONE|DICT|INTERRES
   148   74  152 1    
   149   75   76 2    
   150   75   77 1    
   151   77   78 1    
   152   77   79 1    
   153   77  153 1    
   154   78  154 1    
   155   78  155 1    
   156   78  156 1    
   157   79   80 am   BACKBONE|DICT|INTERRES
   158   79  157 1    
   159   80   81 2    
@<TRIPOS>SUBSTRUCTURE
     1 UNK         1 GROUP             0       ****    0 ROOT    
