@<TRIPOS>MOLECULE
3R207
157   159    1
SMALL
USER_CHARGES


@<TRIPOS>ATOM
      1 CA        -52.9053  -24.8205    3.6065 C.3       0 UNK        -0.1975 
      2 C         -53.2846  -24.9787    5.0714 C.2       0 UNK         0.4852 
      3 O         -54.2227  -24.3294    5.5342 O.2       0 UNK        -0.5216 
      4 N         -52.5598  -25.8348    5.8047 N.am      1 UNK        -0.4461 
      5 CA        -52.7916  -26.1289    7.2250 C.3       1 UNK         0.0864 
      6 C6        -52.0027  -27.3760    7.6890 C.3       14 UNK        -0.0898 
      7 S7        -52.5067  -28.9176    6.8660 S.3       14 UNK        -0.2598 
      8 C8        -51.0093  -29.9430    7.1189 C.3       14 UNK         0.0286 
      9 C9        -50.6025  -30.1983    8.5757 C.ar      14 UNK        -0.0844 
     10 C10       -49.2907  -30.6059    8.8480 C.ar      14 UNK        -0.0881 
     11 C11       -48.8771  -30.8808   10.1570 C.ar      14 UNK        -0.0643 
     12 C12       -49.7848  -30.7277   11.2079 C.ar      14 UNK        -0.0930 
     13 C13       -51.0903  -30.3019   10.9573 C.ar      14 UNK        -0.0827 
     14 C14       -51.4986  -30.0619    9.6436 C.ar      14 UNK        -0.1249 
     15 C15       -52.0578  -30.0626   12.1023 C.3       14 UNK         0.0141 
     16 S16       -53.3016  -31.3825   12.2162 S.3       14 UNK        -0.2313 
     17 C17       -54.4477  -30.6482   13.4294 C.3       14 UNK        -0.0915 
     18 CA        -55.7038  -30.0183   12.7684 C.3       13 UNK         0.0968 
     19 C         -56.7530  -29.5945   13.8380 C.2       13 UNK         0.5732 
     20 N         -57.2015  -28.3454   13.8955 N.am      13 UNK        -0.7310 
     21 O         -57.1868  -30.4276   14.6304 O.2       13 UNK        -0.5035 
     22 N         -55.3509  -28.9390   11.8321 N.am      13 UNK        -0.4233 
     23 C         -56.0259  -28.6540   10.7103 C.2       13 UNK         0.4989 
     24 O         -56.9683  -29.3328   10.2973 O.2       13 UNK        -0.4996 
     25 CA        -55.5814  -27.4091    9.9069 C.3       12 UNK         0.0216 
     26 CB        -56.7187  -26.8221    9.0456 C.3       12 UNK        -0.1964 
     27 N         -54.9643  -26.3454   10.7098 N.am      12 UNK        -0.4276 
     28 C         -55.4604  -25.7535   11.8041 C.2       12 UNK         0.5020 
     29 O         -56.5626  -26.0048   12.2976 O.2       12 UNK        -0.5489 
     30 CA        -54.5292  -24.7496   12.5035 C.3       11 UNK         0.0294 
     31 CB        -55.1518  -23.3442   12.5215 C.3       11 UNK        -0.2019 
     32 N         -54.1823  -25.1510   13.8730 N.am      11 UNK        -0.4493 
     33 C         -53.7036  -26.3483   14.2444 C.2       11 UNK         0.4932 
     34 O         -53.5562  -27.3081   13.4857 O.2       11 UNK        -0.5029 
     35 CA        -53.2506  -26.4726   15.7009 C.3       10 UNK         0.0280 
     36 CB        -53.4586  -27.9003   16.2491 C.3       10 UNK        -0.1976 
     37 N         -51.8387  -26.0968   15.7626 N.am      10 UNK        -0.4242 
     38 C         -51.1704  -25.7915   16.8837 C.2       10 UNK         0.5072 
     39 O         -51.6941  -25.7622   17.9987 O.2       10 UNK        -0.5224 
     40 CA        -49.6655  -25.4733   16.7722 C.3       9 UNK         0.0343 
     41 CB        -48.8275  -26.7074   17.1439 C.3       9 UNK        -0.2003 
     42 N         -49.2501  -24.9982   15.4525 N.am      9 UNK        -0.4272 
     43 C         -49.5549  -23.7983   14.9386 C.2       9 UNK         0.4988 
     44 O         -50.1815  -22.9314   15.5488 O.2       9 UNK        -0.5108 
     45 CA        -49.0975  -23.5187   13.4942 C.3       8 UNK         0.0248 
     46 CB        -47.7635  -22.7556   13.4905 C.3       8 UNK        -0.2001 
     47 N         -48.9666  -24.7238   12.6685 N.am      8 UNK        -0.4140 
     48 C         -49.9688  -25.5635   12.3764 C.2       8 UNK         0.5028 
     49 O         -51.1201  -25.3966   12.7647 O.2       8 UNK        -0.5428 
     50 CA        -49.6253  -26.8163   11.5605 C.3       7 UNK         0.0264 
     51 CB        -49.5386  -26.4980   10.0647 C.3       7 UNK        -0.1988 
     52 N         -48.3730  -27.4260   11.9927 N.am      7 UNK        -0.4454 
     53 C         -48.2204  -28.1481   13.1099 C.2       7 UNK         0.5027 
     54 O         -49.1331  -28.3986   13.8969 O.2       7 UNK        -0.5083 
     55 CA        -46.7956  -28.6599   13.4061 C.3       6 UNK         0.0844 
     56 C56       -46.5382  -30.0544   12.7798 C.3       14 UNK        -0.0967 
     57 S57       -46.3411  -30.0406   10.9572 S.3       14 UNK        -0.2604 
     58 C58       -47.4620  -31.3759   10.4272 C.3       14 UNK         0.0134 
     59 N         -45.7655  -27.6916   13.0202 N.am      6 UNK        -0.4116 
     60 C         -45.5864  -26.4865   13.5776 C.2       5 UNK         0.5034 
     61 O         -46.2306  -26.0681   14.5397 O.2       5 UNK        -0.5045 
     62 CA        -44.5413  -25.5779   12.9058 C.3       5 UNK         0.0224 
     63 CB        -43.1317  -25.8886   13.4340 C.3       5 UNK        -0.1978 
     64 N         -44.5524  -25.6704   11.4382 N.am      5 UNK        -0.4737 
     65 C         -45.5918  -25.3054   10.6776 C.2       4 UNK         0.5027 
     66 O         -46.6472  -24.8648   11.1365 O.2       4 UNK        -0.5211 
     67 CA        -45.4650  -25.5010    9.1647 C.3       4 UNK         0.0297 
     68 CB        -45.7354  -26.9693    8.7812 C.3       4 UNK        -0.1993 
     69 N         -46.4359  -24.6167    8.5236 N.am      4 UNK        -0.4486 
     70 C         -46.4409  -24.2444    7.2397 C.2       3 UNK         0.4961 
     71 O         -45.6230  -24.6506    6.4128 O.2       3 UNK        -0.5105 
     72 CA        -47.5383  -23.2533    6.8101 C.3       3 UNK         0.0299 
     73 CB        -47.7986  -23.2669    5.2898 C.3       3 UNK        -0.1972 
     74 N         -48.7972  -23.4872    7.5270 N.am      3 UNK        -0.4305 
     75 C         -49.6474  -22.5222    7.9087 C.2       2 UNK         0.5006 
     76 O         -49.4296  -21.3206    7.7447 O.2       2 UNK        -0.5106 
     77 CA        -50.9760  -22.9797    8.5362 C.3       2 UNK         0.0296 
     78 CB        -51.9905  -21.8308    8.7219 C.3       2 UNK        -0.2002 
     79 N         -51.5575  -24.0529    7.7287 N.am      2 UNK        -0.4032 
     80 C         -52.4437  -24.9567    8.1666 C.2       1 UNK         0.5000 
     81 O         -52.9355  -24.9408    9.2965 O.2       1 UNK        -0.5238 
     82 H82       -53.7476  -25.0909    2.9704 H         1 UNK         0.0889 
     83 H83       -52.0588  -25.4502    3.3332 H         1 UNK         0.0889 
     84 H84       -52.6390  -23.7848    3.3974 H         1 UNK         0.0889 
     85 H85       -51.8254  -26.3694    5.3622 H         1 UNK         0.3028 
     86 H86       -53.8578  -26.3280    7.3528 H         1 UNK         0.0864 
     87 H87       -52.1340  -27.5300    8.7614 H         1 UNK         0.0720 
     88 H88       -50.9333  -27.2288    7.5274 H         1 UNK         0.0720 
     89 H89       -50.1814  -29.4711    6.5873 H         1 UNK         0.0814 
     90 H90       -51.1721  -30.9075    6.6365 H         1 UNK         0.0814 
     91 H91       -48.5890  -30.7255    8.0336 H         1 UNK         0.1469 
     92 H92       -49.4759  -30.9302   12.2232 H         1 UNK         0.1381 
     93 H93       -52.5216  -29.7622    9.4677 H         1 UNK         0.1206 
     94 H94       -52.5524  -29.1060   11.9390 H         1 UNK         0.0813 
     95 H95       -51.5269  -29.9748   13.0519 H         1 UNK         0.0813 
     96 H96       -53.9196  -29.9129   14.0366 H         1 UNK         0.0638 
     97 H97       -54.7377  -31.4481   14.1131 H         1 UNK         0.0638 
     98 H98       -56.1873  -30.8151   12.2006 H         1 UNK         0.0568 
     99 H99       -57.8874  -28.1071   14.5929 H         1 UNK         0.3450 
    100 H100      -56.8809  -27.6319   13.2460 H         1 UNK         0.3450 
    101 H101      -54.6318  -28.3010   12.1601 H         1 UNK         0.2987 
    102 H102      -54.8036  -27.7632    9.2292 H         1 UNK         0.0766 
    103 H103      -56.3728  -25.9707    8.4592 H         1 UNK         0.0798 
    104 H104      -57.5552  -26.4883    9.6607 H         1 UNK         0.0798 
    105 H105      -57.1039  -27.5610    8.3419 H         1 UNK         0.0798 
    106 H106      -54.0679  -26.0031   10.3666 H         1 UNK         0.3198 
    107 H107      -53.5926  -24.6933   11.9449 H         1 UNK         0.0843 
    108 H108      -56.0711  -23.3183   13.1081 H         1 UNK         0.0831 
    109 H109      -55.4004  -23.0178   11.5106 H         1 UNK         0.0831 
    110 H110      -54.4634  -22.6084   12.9373 H         1 UNK         0.0831 
    111 H111      -54.2566  -24.4315   14.5767 H         1 UNK         0.3133 
    112 H112      -53.8368  -25.7773   16.3054 H         1 UNK         0.0566 
    113 H113      -53.2656  -27.9495   17.3205 H         1 UNK         0.0814 
    114 H114      -54.4850  -28.2343   16.0904 H         1 UNK         0.0814 
    115 H115      -52.7992  -28.6177   15.7593 H         1 UNK         0.0814 
    116 H116      -51.3644  -26.0484   14.8657 H         1 UNK         0.3091 
    117 H117      -49.4451  -24.6853   17.4954 H         1 UNK         0.0702 
    118 H118      -47.7602  -26.4857   17.1200 H         1 UNK         0.0785 
    119 H119      -49.0124  -27.5395   16.4639 H         1 UNK         0.0785 
    120 H120      -49.0653  -27.0515   18.1514 H         1 UNK         0.0785 
    121 H121      -48.6965  -25.6320   14.8919 H         1 UNK         0.2998 
    122 H122      -49.8563  -22.8859   13.0294 H         1 UNK         0.0697 
    123 H123      -46.9597  -23.3516   13.9242 H         1 UNK         0.0825 
    124 H124      -47.8375  -21.8344   14.0699 H         1 UNK         0.0825 
    125 H125      -47.4665  -22.4794   12.4785 H         1 UNK         0.0825 
    126 H126      -48.0528  -24.8916   12.2498 H         1 UNK         0.3029 
    127 H127      -50.4326  -27.5367   11.7087 H         1 UNK         0.0897 
    128 H128      -48.7223  -25.8164    9.8346 H         1 UNK         0.0792 
    129 H129      -50.4577  -26.0236    9.7357 H         1 UNK         0.0792 
    130 H130      -49.4024  -27.4060    9.4765 H         1 UNK         0.0792 
    131 H131      -47.5623  -27.2613   11.4160 H         1 UNK         0.3086 
    132 H132      -46.7304  -28.7752   14.4904 H         1 UNK         0.0583 
    133 H133      -45.6207  -30.4685   13.2009 H         1 UNK         0.1020 
    134 H134      -47.3219  -30.7531   13.0756 H         1 UNK         0.1020 
    135 H135      -47.0511  -31.8246    9.5216 H         1 UNK         0.0694 
    136 H136      -47.4761  -32.1739   11.1709 H         1 UNK         0.0694 
    137 H137      -45.1918  -27.9479   12.2301 H         1 UNK         0.2989 
    138 H138      -44.7873  -24.5485   13.1765 H         1 UNK         0.1055 
    139 H139      -43.0972  -25.8098   14.5218 H         1 UNK         0.0806 
    140 H140      -42.3965  -25.1877   13.0382 H         1 UNK         0.0806 
    141 H141      -42.8110  -26.8971   13.1702 H         1 UNK         0.0806 
    142 H142      -43.7169  -26.0246   10.9932 H         1 UNK         0.3061 
    143 H143      -44.4579  -25.2125    8.8563 H         1 UNK         0.0734 
    144 H144      -46.7373  -27.2881    9.0698 H         1 UNK         0.0832 
    145 H145      -45.6350  -27.1264    7.7074 H         1 UNK         0.0832 
    146 H146      -45.0267  -27.6406    9.2674 H         1 UNK         0.0832 
    147 H147      -47.0877  -24.1963    9.1759 H         1 UNK         0.3156 
    148 H148      -47.1517  -22.2668    7.0747 H         1 UNK         0.0589 
    149 H149      -48.1566  -24.2404    4.9531 H         1 UNK         0.0808 
    150 H150      -48.5403  -22.5199    5.0067 H         1 UNK         0.0808 
    151 H151      -46.8893  -23.0406    4.7314 H         1 UNK         0.0808 
    152 H152      -49.0274  -24.4536    7.7114 H         1 UNK         0.3098 
    153 H153      -50.7297  -23.3787    9.5228 H         1 UNK         0.0720 
    154 H154      -52.8933  -22.1721    9.2286 H         1 UNK         0.0791 
    155 H155      -52.2865  -21.4002    7.7647 H         1 UNK         0.0791 
    156 H156      -51.5690  -21.0282    9.3284 H         1 UNK         0.0791 
    157 H157      -51.2187  -24.1299    6.7795 H         1 UNK         0.3028 
@<TRIPOS>BOND
     1    1    2 1    
     2    1   82 1    
     3    1   83 1    
     4    1   84 1    
     5    2    3 2    
     6    2    4 am   BACKBONE|DICT|INTERRES
     7    4    5 1    
     8    4   85 1    
     9    5    6 1    
    10    5   80 1    
    11    5   86 1    
    12    6    7 1    
    13    6   87 1    
    14    6   88 1    
    15    7    8 1    
    16    8    9 1    
    17    8   89 1    
    18    8   90 1    
    19    9   10 ar   
    20    9   14 ar   
    21   10   11 ar   
    22   10   91 1    
    23   11   12 ar   
    24   11   58 1    
    25   12   13 ar   
    26   12   92 1    
    27   13   14 ar   
    28   13   15 1    
    29   14   93 1    
    30   15   16 1    
    31   15   94 1    
    32   15   95 1    
    33   16   17 1    
    34   17   18 1    
    35   17   96 1    
    36   17   97 1    
    37   18   19 1    
    38   18   22 1    
    39   18   98 1    
    40   19   20 am   BACKBONE|DICT|INTERRES
    41   19   21 2    
    42   20   99 1    
    43   20  100 1    
    44   22   23 am   BACKBONE|DICT|INTERRES
    45   22  101 1    
    46   23   24 2    
    47   23   25 1    
    48   25   26 1    
    49   25   27 1    
    50   25  102 1    
    51   26  103 1    
    52   26  104 1    
    53   26  105 1    
    54   27   28 am   BACKBONE|DICT|INTERRES
    55   27  106 1    
    56   28   29 2    
    57   28   30 1    
    58   30   31 1    
    59   30   32 1    
    60   30  107 1    
    61   31  108 1    
    62   31  109 1    
    63   31  110 1    
    64   32   33 am   BACKBONE|DICT|INTERRES
    65   32  111 1    
    66   33   34 2    
    67   33   35 1    
    68   35   36 1    
    69   35   37 1    
    70   35  112 1    
    71   36  113 1    
    72   36  114 1    
    73   36  115 1    
    74   37   38 am   BACKBONE|DICT|INTERRES
    75   37  116 1    
    76   38   39 2    
    77   38   40 1    
    78   40   41 1    
    79   40   42 1    
    80   40  117 1    
    81   41  118 1    
    82   41  119 1    
    83   41  120 1    
    84   42   43 am   BACKBONE|DICT|INTERRES
    85   42  121 1    
    86   43   44 2    
    87   43   45 1    
    88   45   46 1    
    89   45   47 1    
    90   45  122 1    
    91   46  123 1    
    92   46  124 1    
    93   46  125 1    
    94   47   48 am   BACKBONE|DICT|INTERRES
    95   47  126 1    
    96   48   49 2    
    97   48   50 1    
    98   50   51 1    
    99   50   52 1    
   100   50  127 1    
   101   51  128 1    
   102   51  129 1    
   103   51  130 1    
   104   52   53 am   BACKBONE|DICT|INTERRES
   105   52  131 1    
   106   53   54 2    
   107   53   55 1    
   108   55   56 1    
   109   55   59 1    
   110   55  132 1    
   111   56   57 1    
   112   56  133 1    
   113   56  134 1    
   114   57   58 1    
   115   58  135 1    
   116   58  136 1    
   117   59   60 am   BACKBONE|DICT|INTERRES
   118   59  137 1    
   119   60   61 2    
   120   60   62 1    
   121   62   63 1    
   122   62   64 1    
   123   62  138 1    
   124   63  139 1    
   125   63  140 1    
   126   63  141 1    
   127   64   65 am   BACKBONE|DICT|INTERRES
   128   64  142 1    
   129   65   66 2    
   130   65   67 1    
   131   67   68 1    
   132   67   69 1    
   133   67  143 1    
   134   68  144 1    
   135   68  145 1    
   136   68  146 1    
   137   69   70 am   BACKBONE|DICT|INTERRES
   138   69  147 1    
   139   70   71 2    
   140   70   72 1    
   141   72   73 1    
   142   72   74 1    
   143   72  148 1    
   144   73  149 1    
   145   73  150 1    
   146   73  151 1    
   147   74   75 am   BACKBONE|DICT|INTERRES
   148   74  152 1    
   149   75   76 2    
   150   75   77 1    
   151   77   78 1    
   152   77   79 1    
   153   77  153 1    
   154   78  154 1    
   155   78  155 1    
   156   78  156 1    
   157   79   80 am   BACKBONE|DICT|INTERRES
   158   79  157 1    
   159   80   81 2    
@<TRIPOS>SUBSTRUCTURE
     1 UNK         1 GROUP             0       ****    0 ROOT    
