@<TRIPOS>MOLECULE
3R207
157   159    1
SMALL
USER_CHARGES


@<TRIPOS>ATOM
      1 CA        -47.6764  -32.8499    5.1297 C.3       0 UNK        -0.1975 
      2 C         -48.1005  -31.3905    5.0678 C.2       0 UNK         0.4852 
      3 O         -47.5180  -30.6120    4.3103 O.2       0 UNK        -0.5216 
      4 N         -49.1048  -31.0047    5.8650 N.am      1 UNK        -0.4461 
      5 CA        -49.6647  -29.6512    5.9650 C.3       1 UNK         0.0864 
      6 C6        -51.1373  -29.6686    6.4606 C.3       14 UNK        -0.0898 
      7 S7        -51.4639  -30.7413    7.9096 S.3       14 UNK        -0.2598 
      8 C8        -51.9247  -29.5535    9.2170 C.3       14 UNK         0.0286 
      9 C9        -53.0768  -28.6368    8.8193 C.ar      14 UNK        -0.0844 
     10 C10       -52.8962  -27.2509    8.8322 C.ar      14 UNK        -0.0881 
     11 C11       -53.9317  -26.3932    8.4493 C.ar      14 UNK        -0.0643 
     12 C12       -55.1548  -26.9364    8.0420 C.ar      14 UNK        -0.0930 
     13 C13       -55.3442  -28.3211    8.0068 C.ar      14 UNK        -0.0827 
     14 C14       -54.3080  -29.1658    8.4171 C.ar      14 UNK        -0.1249 
     15 C15       -56.6402  -28.8980    7.4508 C.3       14 UNK         0.0141 
     16 S16       -58.0006  -28.8837    8.6597 S.3       14 UNK        -0.2313 
     17 C17       -57.5200  -30.2509    9.7683 C.3       14 UNK        -0.0915 
     18 CA        -57.2867  -29.7917   11.2300 C.3       13 UNK         0.0968 
     19 C         -56.9370  -31.0104   12.1330 C.2       13 UNK         0.5732 
     20 N         -55.7179  -31.1403   12.6420 N.am      13 UNK        -0.7310 
     21 O         -57.7958  -31.8546   12.3784 O.2       13 UNK        -0.5035 
     22 N         -56.3325  -28.6764   11.3061 N.am      13 UNK        -0.4233 
     23 C         -56.1791  -27.8773   12.3665 C.2       13 UNK         0.4989 
     24 O         -56.8556  -27.9523   13.3947 O.2       13 UNK        -0.4996 
     25 CA        -55.0644  -26.8219   12.2602 C.3       12 UNK         0.0216 
     26 CB        -55.5616  -25.4575   12.7718 C.3       12 UNK        -0.1964 
     27 N         -53.8487  -27.1874   12.9942 N.am      12 UNK        -0.4276 
     28 C         -53.1987  -28.3612   12.9583 C.2       12 UNK         0.5020 
     29 O         -53.5462  -29.3211   12.2707 O.2       12 UNK        -0.5489 
     30 CA        -51.9280  -28.5076   13.8140 C.3       11 UNK         0.0294 
     31 CB        -50.7157  -28.8262   12.9217 C.3       11 UNK        -0.2019 
     32 N         -51.6224  -27.3462   14.6563 N.am      11 UNK        -0.4493 
     33 C         -52.2637  -27.0390   15.7947 C.2       11 UNK         0.4932 
     34 O         -53.2446  -27.6594   16.2073 O.2       11 UNK        -0.5029 
     35 CA        -51.7069  -25.8509   16.6078 C.3       10 UNK         0.0280 
     36 CB        -52.2221  -25.8201   18.0622 C.3       10 UNK        -0.1976 
     37 N         -50.2420  -25.7788   16.5731 N.am      10 UNK        -0.4242 
     38 C         -49.3667  -26.7247   16.9548 C.2       10 UNK         0.5072 
     39 O         -49.6886  -27.7759   17.5104 O.2       10 UNK        -0.5224 
     40 CA        -47.8802  -26.4782   16.6409 C.3       9 UNK         0.0343 
     41 CB        -47.3020  -27.6284   15.7965 C.3       9 UNK        -0.2003 
     42 N         -47.6802  -25.2198   15.9171 N.am      9 UNK        -0.4272 
     43 C         -47.0615  -24.1428   16.4159 C.2       9 UNK         0.4988 
     44 O         -46.5427  -24.1014   17.5321 O.2       9 UNK        -0.5108 
     45 CA        -47.0085  -22.8913   15.5256 C.3       8 UNK         0.0248 
     46 CB        -45.7375  -22.9050   14.6603 C.3       8 UNK        -0.2001 
     47 N         -48.1858  -22.6916   14.6714 N.am      8 UNK        -0.4140 
     48 C         -49.4181  -22.4131   15.1261 C.2       8 UNK         0.5028 
     49 O         -49.7360  -22.4713   16.3135 O.2       8 UNK        -0.5428 
     50 CA        -50.4726  -21.9870   14.0944 C.3       7 UNK         0.0264 
     51 CB        -50.1941  -20.5587   13.5970 C.3       7 UNK        -0.1988 
     52 N         -50.5033  -22.8966   12.9533 N.am      7 UNK        -0.4454 
     53 C         -51.3979  -23.8820   12.7864 C.2       7 UNK         0.5027 
     54 O         -52.3229  -24.1209   13.5635 O.2       7 UNK        -0.5083 
     55 CA        -51.1695  -24.8055   11.5698 C.3       6 UNK         0.0844 
     56 C56       -51.6821  -24.1497   10.2614 C.3       14 UNK        -0.0967 
     57 S57       -53.4977  -24.1729   10.0819 S.3       14 UNK        -0.2604 
     58 C58       -53.7203  -24.8848    8.4195 C.3       14 UNK         0.0134 
     59 N         -49.7624  -25.1961   11.4347 N.am      6 UNK        -0.4116 
     60 C         -48.9614  -25.6781   12.3974 C.2       5 UNK         0.5034 
     61 O         -49.3266  -25.9354   13.5450 O.2       5 UNK        -0.5045 
     62 CA        -47.4812  -25.8625   12.0328 C.3       5 UNK         0.0224 
     63 CB        -47.2321  -27.3190   11.6159 C.3       5 UNK        -0.1978 
     64 N         -47.0065  -24.9588   10.9766 N.am      5 UNK        -0.4737 
     65 C         -47.0355  -23.6168   11.0193 C.2       4 UNK         0.5027 
     66 O         -47.5173  -22.9671   11.9486 O.2       4 UNK        -0.5211 
     67 CA        -46.4859  -22.8856    9.7858 C.3       4 UNK         0.0297 
     68 CB        -44.9530  -22.8022    9.8442 C.3       4 UNK        -0.1993 
     69 N         -46.9009  -23.5233    8.5332 N.am      4 UNK        -0.4486 
     70 C         -48.1621  -23.5761    8.0878 C.2       3 UNK         0.4961 
     71 O         -49.1127  -23.0635    8.6760 O.2       3 UNK        -0.5105 
     72 CA        -48.4220  -24.3542    6.7889 C.3       3 UNK         0.0299 
     73 CB        -47.9424  -23.5692    5.5525 C.3       3 UNK        -0.1972 
     74 N         -47.9030  -25.7279    6.8047 N.am      3 UNK        -0.4305 
     75 C         -46.6372  -26.1662    6.8040 C.2       2 UNK         0.5006 
     76 O         -45.6600  -25.4163    6.8286 O.2       2 UNK        -0.5106 
     77 CA        -46.3974  -27.6913    6.7676 C.3       2 UNK         0.0296 
     78 CB        -45.9144  -28.2080    8.1354 C.3       2 UNK        -0.2002 
     79 N         -47.5066  -28.5188    6.2616 N.am      2 UNK        -0.4032 
     80 C         -48.7450  -28.6864    6.7507 C.2       1 UNK         0.5000 
     81 O         -49.1654  -28.0880    7.7429 O.2       1 UNK        -0.5238 
     82 H82       -48.2766  -33.4188    5.8396 H         1 UNK         0.0889 
     83 H83       -46.6321  -32.9244    5.4315 H         1 UNK         0.0889 
     84 H84       -47.7821  -33.3126    4.1489 H         1 UNK         0.0889 
     85 H85       -49.5321  -31.6774    6.4874 H         1 UNK         0.3028 
     86 H86       -49.6980  -29.2413    4.9528 H         1 UNK         0.0864 
     87 H87       -51.4963  -28.6546    6.6414 H         1 UNK         0.0720 
     88 H88       -51.7695  -30.0454    5.6553 H         1 UNK         0.0720 
     89 H89       -51.0418  -28.9747    9.4919 H         1 UNK         0.0814 
     90 H90       -52.2116  -30.1127   10.1078 H         1 UNK         0.0814 
     91 H91       -51.9413  -26.8418    9.1283 H         1 UNK         0.1469 
     92 H92       -55.9542  -26.2828    7.7202 H         1 UNK         0.1381 
     93 H93       -54.4401  -30.2386    8.3851 H         1 UNK         0.1206 
     94 H94       -56.4853  -29.9148    7.0863 H         1 UNK         0.0813 
     95 H95       -56.9462  -28.3154    6.5806 H         1 UNK         0.0813 
     96 H96       -56.6289  -30.7460    9.3798 H         1 UNK         0.0638 
     97 H97       -58.3171  -30.9956    9.7292 H         1 UNK         0.0638 
     98 H98       -58.2404  -29.4129   11.6024 H         1 UNK         0.0568 
     99 H99       -55.5093  -31.9338   13.2253 H         1 UNK         0.3450 
    100 H100      -54.9929  -30.4532   12.4421 H         1 UNK         0.3450 
    101 H101      -55.7104  -28.5740   10.5160 H         1 UNK         0.2987 
    102 H102      -54.7884  -26.7126   11.2105 H         1 UNK         0.0766 
    103 H103      -54.8074  -24.6816   12.6492 H         1 UNK         0.0798 
    104 H104      -55.8268  -25.4935   13.8293 H         1 UNK         0.0798 
    105 H105      -56.4471  -25.1352   12.2224 H         1 UNK         0.0798 
    106 H106      -53.4684  -26.4730   13.5989 H         1 UNK         0.3198 
    107 H107      -52.0888  -29.3630   14.4738 H         1 UNK         0.0843 
    108 H108      -50.8456  -29.7866   12.4211 H         1 UNK         0.0831 
    109 H109      -50.5808  -28.0770   12.1423 H         1 UNK         0.0831 
    110 H110      -49.7945  -28.8873   13.5011 H         1 UNK         0.0831 
    111 H111      -50.8225  -26.7825   14.3777 H         1 UNK         0.3133 
    112 H112      -52.0664  -24.9471   16.1148 H         1 UNK         0.0566 
    113 H113      -51.8232  -24.9635   18.6056 H         1 UNK         0.0814 
    114 H114      -53.3096  -25.7419   18.0902 H         1 UNK         0.0814 
    115 H115      -51.9472  -26.7227   18.6089 H         1 UNK         0.0814 
    116 H116      -49.8629  -24.9350   16.1665 H         1 UNK         0.3091 
    117 H117      -47.3538  -26.4623   17.5972 H         1 UNK         0.0702 
    118 H118      -47.3547  -28.5747   16.3363 H         1 UNK         0.0785 
    119 H119      -46.2541  -27.4543   15.5519 H         1 UNK         0.0785 
    120 H120      -47.8486  -27.7582   14.8627 H         1 UNK         0.0785 
    121 H121      -48.0981  -25.1722   14.9947 H         1 UNK         0.2998 
    122 H122      -46.9471  -22.0278   16.1914 H         1 UNK         0.0697 
    123 H123      -45.7262  -23.7477   13.9691 H         1 UNK         0.0825 
    124 H124      -44.8437  -22.9822   15.2809 H         1 UNK         0.0825 
    125 H125      -45.6456  -21.9906   14.0739 H         1 UNK         0.0825 
    126 H126      -48.0060  -22.6617   13.6689 H         1 UNK         0.3029 
    127 H127      -51.4439  -21.9822   14.5949 H         1 UNK         0.0897 
    128 H128      -50.9789  -20.2170   12.9219 H         1 UNK         0.0792 
    129 H129      -50.1559  -19.8554   14.4302 H         1 UNK         0.0792 
    130 H130      -49.2437  -20.4888   13.0659 H         1 UNK         0.0792 
    131 H131      -49.7373  -22.8226   12.2944 H         1 UNK         0.3086 
    132 H132      -51.7269  -25.7281   11.7393 H         1 UNK         0.0583 
    133 H133      -51.3419  -23.1153   10.1780 H         1 UNK         0.1020 
    134 H134      -51.2453  -24.6573    9.4013 H         1 UNK         0.1020 
    135 H135      -54.5814  -24.3952    7.9622 H         1 UNK         0.0694 
    136 H136      -52.8706  -24.6423    7.7799 H         1 UNK         0.0694 
    137 H137      -49.3340  -24.9965   10.5428 H         1 UNK         0.2989 
    138 H138      -46.8939  -25.6560   12.9293 H         1 UNK         0.1055 
    139 H139      -47.4712  -28.0040   12.4303 H         1 UNK         0.0806 
    140 H140      -46.1886  -27.4894   11.3503 H         1 UNK         0.0806 
    141 H141      -47.8544  -27.6039   10.7668 H         1 UNK         0.0806 
    142 H142      -46.6001  -25.3917   10.1602 H         1 UNK         0.3061 
    143 H143      -46.8855  -21.8692    9.7976 H         1 UNK         0.0734 
    144 H144      -44.5573  -22.2113    9.0180 H         1 UNK         0.0832 
    145 H145      -44.6238  -22.3254   10.7688 H         1 UNK         0.0832 
    146 H146      -44.4894  -23.7887    9.8025 H         1 UNK         0.0832 
    147 H147      -46.1937  -24.0077    7.9847 H         1 UNK         0.3156 
    148 H148      -49.5048  -24.4586    6.7016 H         1 UNK         0.0589 
    149 H149      -46.8644  -23.4060    5.5586 H         1 UNK         0.0808 
    150 H150      -48.1962  -24.0913    4.6301 H         1 UNK         0.0808 
    151 H151      -48.4161  -22.5876    5.5096 H         1 UNK         0.0808 
    152 H152      -48.6064  -26.4507    6.9287 H         1 UNK         0.3098 
    153 H153      -45.5809  -27.8397    6.0592 H         1 UNK         0.0720 
    154 H154      -45.0781  -27.6167    8.5109 H         1 UNK         0.0791 
    155 H155      -45.5745  -29.2414    8.0675 H         1 UNK         0.0791 
    156 H156      -46.7053  -28.1688    8.8812 H         1 UNK         0.0791 
    157 H157      -47.2893  -29.0680    5.4327 H         1 UNK         0.3028 
@<TRIPOS>BOND
     1    1    2 1    
     2    1   82 1    
     3    1   83 1    
     4    1   84 1    
     5    2    3 2    
     6    2    4 am   BACKBONE|DICT|INTERRES
     7    4    5 1    
     8    4   85 1    
     9    5    6 1    
    10    5   80 1    
    11    5   86 1    
    12    6    7 1    
    13    6   87 1    
    14    6   88 1    
    15    7    8 1    
    16    8    9 1    
    17    8   89 1    
    18    8   90 1    
    19    9   10 ar   
    20    9   14 ar   
    21   10   11 ar   
    22   10   91 1    
    23   11   12 ar   
    24   11   58 1    
    25   12   13 ar   
    26   12   92 1    
    27   13   14 ar   
    28   13   15 1    
    29   14   93 1    
    30   15   16 1    
    31   15   94 1    
    32   15   95 1    
    33   16   17 1    
    34   17   18 1    
    35   17   96 1    
    36   17   97 1    
    37   18   19 1    
    38   18   22 1    
    39   18   98 1    
    40   19   20 am   BACKBONE|DICT|INTERRES
    41   19   21 2    
    42   20   99 1    
    43   20  100 1    
    44   22   23 am   BACKBONE|DICT|INTERRES
    45   22  101 1    
    46   23   24 2    
    47   23   25 1    
    48   25   26 1    
    49   25   27 1    
    50   25  102 1    
    51   26  103 1    
    52   26  104 1    
    53   26  105 1    
    54   27   28 am   BACKBONE|DICT|INTERRES
    55   27  106 1    
    56   28   29 2    
    57   28   30 1    
    58   30   31 1    
    59   30   32 1    
    60   30  107 1    
    61   31  108 1    
    62   31  109 1    
    63   31  110 1    
    64   32   33 am   BACKBONE|DICT|INTERRES
    65   32  111 1    
    66   33   34 2    
    67   33   35 1    
    68   35   36 1    
    69   35   37 1    
    70   35  112 1    
    71   36  113 1    
    72   36  114 1    
    73   36  115 1    
    74   37   38 am   BACKBONE|DICT|INTERRES
    75   37  116 1    
    76   38   39 2    
    77   38   40 1    
    78   40   41 1    
    79   40   42 1    
    80   40  117 1    
    81   41  118 1    
    82   41  119 1    
    83   41  120 1    
    84   42   43 am   BACKBONE|DICT|INTERRES
    85   42  121 1    
    86   43   44 2    
    87   43   45 1    
    88   45   46 1    
    89   45   47 1    
    90   45  122 1    
    91   46  123 1    
    92   46  124 1    
    93   46  125 1    
    94   47   48 am   BACKBONE|DICT|INTERRES
    95   47  126 1    
    96   48   49 2    
    97   48   50 1    
    98   50   51 1    
    99   50   52 1    
   100   50  127 1    
   101   51  128 1    
   102   51  129 1    
   103   51  130 1    
   104   52   53 am   BACKBONE|DICT|INTERRES
   105   52  131 1    
   106   53   54 2    
   107   53   55 1    
   108   55   56 1    
   109   55   59 1    
   110   55  132 1    
   111   56   57 1    
   112   56  133 1    
   113   56  134 1    
   114   57   58 1    
   115   58  135 1    
   116   58  136 1    
   117   59   60 am   BACKBONE|DICT|INTERRES
   118   59  137 1    
   119   60   61 2    
   120   60   62 1    
   121   62   63 1    
   122   62   64 1    
   123   62  138 1    
   124   63  139 1    
   125   63  140 1    
   126   63  141 1    
   127   64   65 am   BACKBONE|DICT|INTERRES
   128   64  142 1    
   129   65   66 2    
   130   65   67 1    
   131   67   68 1    
   132   67   69 1    
   133   67  143 1    
   134   68  144 1    
   135   68  145 1    
   136   68  146 1    
   137   69   70 am   BACKBONE|DICT|INTERRES
   138   69  147 1    
   139   70   71 2    
   140   70   72 1    
   141   72   73 1    
   142   72   74 1    
   143   72  148 1    
   144   73  149 1    
   145   73  150 1    
   146   73  151 1    
   147   74   75 am   BACKBONE|DICT|INTERRES
   148   74  152 1    
   149   75   76 2    
   150   75   77 1    
   151   77   78 1    
   152   77   79 1    
   153   77  153 1    
   154   78  154 1    
   155   78  155 1    
   156   78  156 1    
   157   79   80 am   BACKBONE|DICT|INTERRES
   158   79  157 1    
   159   80   81 2    
@<TRIPOS>SUBSTRUCTURE
     1 UNK         1 GROUP             0       ****    0 ROOT    
