@<TRIPOS>MOLECULE
3R207
157   159    1
SMALL
USER_CHARGES


@<TRIPOS>ATOM
      1 CA        -49.6262  -30.2887    6.5537 C.3       0 UNK        -0.1975 
      2 C         -50.7371  -29.4051    7.1152 C.2       0 UNK         0.4852 
      3 O         -51.0818  -29.5506    8.2842 O.2       0 UNK        -0.5216 
      4 N         -51.3241  -28.4860    6.3362 N.am      1 UNK        -0.4461 
      5 CA        -51.0809  -28.2531    4.9050 C.3       1 UNK         0.0864 
      6 C6        -52.3214  -27.6472    4.2000 C.3       14 UNK        -0.0898 
      7 S7        -53.7559  -28.7794    4.2533 S.3       14 UNK        -0.2598 
      8 C8        -54.9935  -27.8315    5.1976 C.3       14 UNK         0.0286 
      9 C9        -54.5453  -27.5675    6.6271 C.ar      14 UNK        -0.0844 
     10 C10       -54.0866  -26.2996    6.9931 C.ar      14 UNK        -0.0881 
     11 C11       -53.6413  -26.0563    8.2936 C.ar      14 UNK        -0.0643 
     12 C12       -53.6599  -27.0890    9.2351 C.ar      14 UNK        -0.0930 
     13 C13       -54.1424  -28.3547    8.8892 C.ar      14 UNK        -0.0827 
     14 C14       -54.5856  -28.5880    7.5829 C.ar      14 UNK        -0.1249 
     15 C15       -54.1703  -29.4696    9.9246 C.3       14 UNK         0.0141 
     16 S16       -55.5410  -29.2306   11.0958 S.3       14 UNK        -0.2313 
     17 C17       -55.4983  -30.7783   12.0599 C.3       14 UNK        -0.0915 
     18 CA        -54.8572  -30.5865   13.4670 C.3       13 UNK         0.0968 
     19 C         -55.2249  -31.7149   14.4813 C.2       13 UNK         0.5732 
     20 N         -54.3823  -32.0198   15.4628 N.am      13 UNK        -0.7310 
     21 O         -56.3015  -32.3030   14.4065 O.2       13 UNK        -0.5035 
     22 N         -53.4178  -30.2784   13.4074 N.am      13 UNK        -0.4233 
     23 C         -52.4485  -31.1136   13.0013 C.2       13 UNK         0.4989 
     24 O         -52.6626  -32.2356   12.5409 O.2       13 UNK        -0.4996 
     25 CA        -50.9853  -30.6476   13.1353 C.3       12 UNK         0.0216 
     26 CB        -50.3695  -30.3997   11.7543 C.3       12 UNK        -0.1964 
     27 N         -50.8005  -29.4529   13.9641 N.am      12 UNK        -0.4276 
     28 C         -50.9472  -29.4294   15.2968 C.2       12 UNK         0.5020 
     29 O         -51.1933  -30.4293   15.9731 O.2       12 UNK        -0.5489 
     30 CA        -50.8589  -28.0560   15.9881 C.3       11 UNK         0.0294 
     31 CB        -49.4118  -27.7682   16.4126 C.3       11 UNK        -0.2019 
     32 N         -51.3661  -26.9410   15.1775 N.am      11 UNK        -0.4493 
     33 C         -52.6004  -26.8782   14.6550 C.2       11 UNK         0.4932 
     34 O         -53.4617  -27.7417   14.8301 O.2       11 UNK        -0.5029 
     35 CA        -52.8997  -25.6700   13.7575 C.3       10 UNK         0.0280 
     36 CB        -54.2433  -25.7842   13.0061 C.3       10 UNK        -0.1976 
     37 N         -52.7982  -24.3947   14.4701 N.am      10 UNK        -0.4242 
     38 C         -53.5215  -23.9907   15.5255 C.2       10 UNK         0.5072 
     39 O         -54.4152  -24.6555   16.0536 O.2       10 UNK        -0.5224 
     40 CA        -53.1772  -22.5910   16.0711 C.3       9 UNK         0.0343 
     41 CB        -54.0487  -22.1731   17.2758 C.3       9 UNK        -0.2003 
     42 N         -51.7499  -22.4530   16.3834 N.am      9 UNK        -0.4272 
     43 C         -51.0354  -23.1684   17.2675 C.2       9 UNK         0.4988 
     44 O         -51.5058  -24.0388   18.0019 O.2       9 UNK        -0.5108 
     45 CA        -49.5290  -22.8409   17.3229 C.3       8 UNK         0.0248 
     46 CB        -48.7186  -23.8285   18.1878 C.3       8 UNK        -0.2001 
     47 N         -48.9225  -22.7023   15.9915 N.am      8 UNK        -0.4140 
     48 C         -48.9290  -23.6053   14.9989 C.2       8 UNK         0.5028 
     49 O         -49.4420  -24.7261   15.0730 O.2       8 UNK        -0.5428 
     50 CA        -48.2284  -23.1612   13.7018 C.3       7 UNK         0.0264 
     51 CB        -46.7195  -23.4389   13.7901 C.3       7 UNK        -0.1988 
     52 N         -48.7580  -23.8183   12.5062 N.am      7 UNK        -0.4454 
     53 C         -50.0303  -23.7799   12.0857 C.2       7 UNK         0.5027 
     54 O         -50.9127  -23.1295   12.6514 O.2       7 UNK        -0.5083 
     55 CA        -50.3929  -24.5879   10.8193 C.3       6 UNK         0.0844 
     56 C56       -50.7233  -23.6261    9.6518 C.3       14 UNK        -0.0967 
     57 S57       -51.3847  -24.5064    8.2012 S.3       14 UNK        -0.2604 
     58 C58       -53.1296  -24.6798    8.6743 C.3       14 UNK         0.0134 
     59 N         -49.3704  -25.5730   10.4543 N.am      6 UNK        -0.4116 
     60 C         -49.0833  -26.7038   11.1162 C.2       5 UNK         0.5034 
     61 O         -49.7146  -27.1126   12.0936 O.2       5 UNK        -0.5045 
     62 CA        -47.8446  -27.4788   10.6296 C.3       5 UNK         0.0224 
     63 CB        -48.1963  -28.4671    9.5080 C.3       5 UNK        -0.1978 
     64 N         -46.8128  -26.5723   10.1235 N.am      5 UNK        -0.4737 
     65 C         -45.8299  -26.0354   10.8551 C.2       4 UNK         0.5027 
     66 O         -45.6516  -26.2868   12.0457 O.2       4 UNK        -0.5211 
     67 CA        -44.8795  -25.0549   10.1416 C.3       4 UNK         0.0297 
     68 CB        -43.5872  -25.7744    9.7233 C.3       4 UNK        -0.1993 
     69 N         -45.4747  -24.4136    8.9640 N.am      4 UNK        -0.4486 
     70 C         -46.4305  -23.4755    9.0131 C.2       3 UNK         0.4961 
     71 O         -46.8960  -23.0271   10.0599 O.2       3 UNK        -0.5105 
     72 CA        -46.9924  -22.9814    7.6664 C.3       3 UNK         0.0299 
     73 CB        -46.1366  -21.8267    7.1219 C.3       3 UNK        -0.1972 
     74 N         -47.1350  -24.0169    6.6319 N.am      3 UNK        -0.4305 
     75 C         -47.8187  -25.1607    6.7727 C.2       2 UNK         0.5006 
     76 O         -48.3039  -25.5414    7.8375 O.2       2 UNK        -0.5106 
     77 CA        -47.9422  -26.0602    5.5423 C.3       2 UNK         0.0296 
     78 CB        -46.7372  -27.0165    5.4573 C.3       2 UNK        -0.2002 
     79 N         -49.1861  -26.8253    5.6419 N.am      2 UNK        -0.4032 
     80 C         -49.8102  -27.4198    4.6159 C.2       1 UNK         0.5000 
     81 O         -49.4011  -27.3552    3.4549 O.2       1 UNK        -0.5238 
     82 H82       -48.8073  -29.6934    6.1525 H         1 UNK         0.0889 
     83 H83       -50.0086  -30.9421    5.7704 H         1 UNK         0.0889 
     84 H84       -49.2143  -30.9219    7.3395 H         1 UNK         0.0889 
     85 H85       -52.0806  -27.9460    6.7371 H         1 UNK         0.3028 
     86 H86       -50.9035  -29.2215    4.4338 H         1 UNK         0.0864 
     87 H87       -52.5797  -26.6793    4.6309 H         1 UNK         0.0720 
     88 H88       -52.1095  -27.4574    3.1459 H         1 UNK         0.0720 
     89 H89       -55.9302  -28.3905    5.2114 H         1 UNK         0.0814 
     90 H90       -55.2061  -26.8967    4.6763 H         1 UNK         0.0814 
     91 H91       -54.0602  -25.5015    6.2634 H         1 UNK         0.1469 
     92 H92       -53.3027  -26.9090   10.2392 H         1 UNK         0.1381 
     93 H93       -54.9469  -29.5682    7.3030 H         1 UNK         0.1206 
     94 H94       -53.2240  -29.4907   10.4661 H         1 UNK         0.0813 
     95 H95       -54.2693  -30.4401    9.4361 H         1 UNK         0.0813 
     96 H96       -56.5371  -31.0993   12.1508 H         1 UNK         0.0638 
     97 H97       -54.9955  -31.5641   11.4954 H         1 UNK         0.0638 
     98 H98       -55.3157  -29.6989   13.9039 H         1 UNK         0.0568 
     99 H99       -54.6329  -32.7410   16.1202 H         1 UNK         0.3450 
    100 H100      -53.5006  -31.5369   15.5530 H         1 UNK         0.3450 
    101 H101      -53.1654  -29.3845   13.8163 H         1 UNK         0.2987 
    102 H102      -50.4362  -31.4677   13.6028 H         1 UNK         0.0766 
    103 H103      -50.8435  -29.5580   11.2476 H         1 UNK         0.0798 
    104 H104      -50.4768  -31.2714   11.1071 H         1 UNK         0.0798 
    105 H105      -49.3035  -30.1918   11.8426 H         1 UNK         0.0798 
    106 H106      -50.5777  -28.5875   13.4822 H         1 UNK         0.3198 
    107 H107      -51.4757  -28.1073   16.8876 H         1 UNK         0.0843 
    108 H108      -49.3605  -26.8797   17.0387 H         1 UNK         0.0831 
    109 H109      -48.7618  -27.6099   15.5509 H         1 UNK         0.0831 
    110 H110      -48.9980  -28.5950   16.9917 H         1 UNK         0.0831 
    111 H111      -50.7184  -26.1704   15.0141 H         1 UNK         0.3133 
    112 H112      -52.1108  -25.6699   13.0105 H         1 UNK         0.0566 
    113 H113      -54.3741  -24.9643   12.3001 H         1 UNK         0.0814 
    114 H114      -54.2939  -26.7134   12.4381 H         1 UNK         0.0814 
    115 H115      -55.0938  -25.7806   13.6883 H         1 UNK         0.0814 
    116 H116      -52.0795  -23.7714   14.1120 H         1 UNK         0.3091 
    117 H117      -53.3844  -21.8894   15.2614 H         1 UNK         0.0702 
    118 H118      -53.8029  -21.1663   17.6132 H         1 UNK         0.0785 
    119 H119      -53.9260  -22.8498   18.1221 H         1 UNK         0.0785 
    120 H120      -55.1065  -22.1763   17.0099 H         1 UNK         0.0785 
    121 H121      -51.2495  -21.7752   15.8254 H         1 UNK         0.2998 
    122 H122      -49.4562  -21.8611   17.7975 H         1 UNK         0.0697 
    123 H123      -47.6764  -23.5202   18.2688 H         1 UNK         0.0825 
    124 H124      -49.1181  -23.8850   19.2012 H         1 UNK         0.0825 
    125 H125      -48.7361  -24.8347   17.7733 H         1 UNK         0.0825 
    126 H126      -48.4681  -21.8159   15.8184 H         1 UNK         0.3029 
    127 H127      -48.3830  -22.0879   13.5730 H         1 UNK         0.0897 
    128 H128      -46.2007  -23.1152   12.8872 H         1 UNK         0.0792 
    129 H129      -46.2686  -22.9083   14.6297 H         1 UNK         0.0792 
    130 H130      -46.5169  -24.5015   13.9311 H         1 UNK         0.0792 
    131 H131      -48.0997  -24.3554   11.9611 H         1 UNK         0.3086 
    132 H132      -51.3001  -25.1462   11.0475 H         1 UNK         0.0583 
    133 H133      -51.4486  -22.8681    9.9558 H         1 UNK         0.1020 
    134 H134      -49.8297  -23.0800    9.3457 H         1 UNK         0.1020 
    135 H135      -53.2580  -24.5216    9.7460 H         1 UNK         0.0694 
    136 H136      -53.7162  -23.9050    8.1784 H         1 UNK         0.0694 
    137 H137      -48.8663  -25.3867    9.5911 H         1 UNK         0.2989 
    138 H138      -47.4541  -28.0459   11.4777 H         1 UNK         0.1055 
    139 H139      -48.5924  -27.9613    8.6291 H         1 UNK         0.0806 
    140 H140      -48.9509  -29.1806    9.8258 H         1 UNK         0.0806 
    141 H141      -47.3236  -29.0411    9.1969 H         1 UNK         0.0806 
    142 H142      -46.9265  -26.2632    9.1651 H         1 UNK         0.3061 
    143 H143      -44.6185  -24.2739   10.8593 H         1 UNK         0.0734 
    144 H144      -42.8689  -25.0806    9.2862 H         1 UNK         0.0832 
    145 H145      -43.1035  -26.2379   10.5845 H         1 UNK         0.0832 
    146 H146      -43.7806  -26.5637    8.9956 H         1 UNK         0.0832 
    147 H147      -45.1529  -24.7233    8.0584 H         1 UNK         0.3156 
    148 H148      -47.9930  -22.5913    7.8608 H         1 UNK         0.0589 
    149 H149      -45.1320  -22.1576    6.8555 H         1 UNK         0.0808 
    150 H150      -46.5892  -21.3785    6.2372 H         1 UNK         0.0808 
    151 H151      -46.0321  -21.0342    7.8646 H         1 UNK         0.0808 
    152 H152      -46.7437  -23.8001    5.7261 H         1 UNK         0.3098 
    153 H153      -47.9793  -25.4293    4.6516 H         1 UNK         0.0720 
    154 H154      -45.7982  -26.4641    5.4040 H         1 UNK         0.0791 
    155 H155      -46.7888  -27.6459    4.5688 H         1 UNK         0.0791 
    156 H156      -46.6830  -27.6722    6.3276 H         1 UNK         0.0791 
    157 H157      -49.5927  -26.8543    6.5694 H         1 UNK         0.3028 
@<TRIPOS>BOND
     1    1    2 1    
     2    1   82 1    
     3    1   83 1    
     4    1   84 1    
     5    2    3 2    
     6    2    4 am   BACKBONE|DICT|INTERRES
     7    4    5 1    
     8    4   85 1    
     9    5    6 1    
    10    5   80 1    
    11    5   86 1    
    12    6    7 1    
    13    6   87 1    
    14    6   88 1    
    15    7    8 1    
    16    8    9 1    
    17    8   89 1    
    18    8   90 1    
    19    9   10 ar   
    20    9   14 ar   
    21   10   11 ar   
    22   10   91 1    
    23   11   12 ar   
    24   11   58 1    
    25   12   13 ar   
    26   12   92 1    
    27   13   14 ar   
    28   13   15 1    
    29   14   93 1    
    30   15   16 1    
    31   15   94 1    
    32   15   95 1    
    33   16   17 1    
    34   17   18 1    
    35   17   96 1    
    36   17   97 1    
    37   18   19 1    
    38   18   22 1    
    39   18   98 1    
    40   19   20 am   BACKBONE|DICT|INTERRES
    41   19   21 2    
    42   20   99 1    
    43   20  100 1    
    44   22   23 am   BACKBONE|DICT|INTERRES
    45   22  101 1    
    46   23   24 2    
    47   23   25 1    
    48   25   26 1    
    49   25   27 1    
    50   25  102 1    
    51   26  103 1    
    52   26  104 1    
    53   26  105 1    
    54   27   28 am   BACKBONE|DICT|INTERRES
    55   27  106 1    
    56   28   29 2    
    57   28   30 1    
    58   30   31 1    
    59   30   32 1    
    60   30  107 1    
    61   31  108 1    
    62   31  109 1    
    63   31  110 1    
    64   32   33 am   BACKBONE|DICT|INTERRES
    65   32  111 1    
    66   33   34 2    
    67   33   35 1    
    68   35   36 1    
    69   35   37 1    
    70   35  112 1    
    71   36  113 1    
    72   36  114 1    
    73   36  115 1    
    74   37   38 am   BACKBONE|DICT|INTERRES
    75   37  116 1    
    76   38   39 2    
    77   38   40 1    
    78   40   41 1    
    79   40   42 1    
    80   40  117 1    
    81   41  118 1    
    82   41  119 1    
    83   41  120 1    
    84   42   43 am   BACKBONE|DICT|INTERRES
    85   42  121 1    
    86   43   44 2    
    87   43   45 1    
    88   45   46 1    
    89   45   47 1    
    90   45  122 1    
    91   46  123 1    
    92   46  124 1    
    93   46  125 1    
    94   47   48 am   BACKBONE|DICT|INTERRES
    95   47  126 1    
    96   48   49 2    
    97   48   50 1    
    98   50   51 1    
    99   50   52 1    
   100   50  127 1    
   101   51  128 1    
   102   51  129 1    
   103   51  130 1    
   104   52   53 am   BACKBONE|DICT|INTERRES
   105   52  131 1    
   106   53   54 2    
   107   53   55 1    
   108   55   56 1    
   109   55   59 1    
   110   55  132 1    
   111   56   57 1    
   112   56  133 1    
   113   56  134 1    
   114   57   58 1    
   115   58  135 1    
   116   58  136 1    
   117   59   60 am   BACKBONE|DICT|INTERRES
   118   59  137 1    
   119   60   61 2    
   120   60   62 1    
   121   62   63 1    
   122   62   64 1    
   123   62  138 1    
   124   63  139 1    
   125   63  140 1    
   126   63  141 1    
   127   64   65 am   BACKBONE|DICT|INTERRES
   128   64  142 1    
   129   65   66 2    
   130   65   67 1    
   131   67   68 1    
   132   67   69 1    
   133   67  143 1    
   134   68  144 1    
   135   68  145 1    
   136   68  146 1    
   137   69   70 am   BACKBONE|DICT|INTERRES
   138   69  147 1    
   139   70   71 2    
   140   70   72 1    
   141   72   73 1    
   142   72   74 1    
   143   72  148 1    
   144   73  149 1    
   145   73  150 1    
   146   73  151 1    
   147   74   75 am   BACKBONE|DICT|INTERRES
   148   74  152 1    
   149   75   76 2    
   150   75   77 1    
   151   77   78 1    
   152   77   79 1    
   153   77  153 1    
   154   78  154 1    
   155   78  155 1    
   156   78  156 1    
   157   79   80 am   BACKBONE|DICT|INTERRES
   158   79  157 1    
   159   80   81 2    
@<TRIPOS>SUBSTRUCTURE
     1 UNK         1 GROUP             0       ****    0 ROOT    
