@<TRIPOS>MOLECULE
3R207
157   159    1
SMALL
USER_CHARGES


@<TRIPOS>ATOM
      1 CA        -46.8126  -31.9247    3.3396 C.3       0 UNK        -0.1975 
      2 C         -47.4040  -30.5809    3.7399 C.2       0 UNK         0.4852 
      3 O         -46.6571  -29.6309    3.9775 O.2       0 UNK        -0.5216 
      4 N         -48.7385  -30.4924    3.8061 N.am      1 UNK        -0.4461 
      5 CA        -49.4747  -29.3065    4.2519 C.3       1 UNK         0.0864 
      6 C6        -50.9378  -29.3443    3.7409 C.3       14 UNK        -0.0898 
      7 S7        -51.7176  -27.6943    3.6722 S.3       14 UNK        -0.2598 
      8 C8        -53.3049  -27.9785    4.5232 C.3       14 UNK         0.0286 
      9 C9        -53.1839  -27.7948    6.0290 C.ar      14 UNK        -0.0844 
     10 C10       -53.4668  -26.5542    6.6103 C.ar      14 UNK        -0.0881 
     11 C11       -53.3534  -26.3754    7.9921 C.ar      14 UNK        -0.0643 
     12 C12       -52.9306  -27.4425    8.7897 C.ar      14 UNK        -0.0930 
     13 C13       -52.6680  -28.6956    8.2249 C.ar      14 UNK        -0.0827 
     14 C14       -52.8058  -28.8654    6.8444 C.ar      14 UNK        -0.1249 
     15 C15       -52.1953  -29.8587    9.0899 C.3       14 UNK         0.0141 
     16 S16       -53.5725  -30.6717    9.9598 S.3       14 UNK        -0.2313 
     17 C17       -53.8469  -29.5065   11.3341 C.3       14 UNK        -0.0915 
     18 CA        -54.1560  -30.1792   12.6949 C.3       13 UNK         0.0968 
     19 C         -52.9002  -30.8348   13.3455 C.2       13 UNK         0.5732 
     20 N         -52.2960  -30.2408   14.3702 N.am      13 UNK        -0.7310 
     21 O         -52.4817  -31.9132   12.9326 O.2       13 UNK        -0.5035 
     22 N         -54.8276  -29.2147   13.5716 N.am      13 UNK        -0.4233 
     23 C         -55.5939  -29.5267   14.6222 C.2       13 UNK         0.4989 
     24 O         -55.9123  -30.6794   14.9181 O.2       13 UNK        -0.4996 
     25 CA        -56.0802  -28.3605   15.4989 C.3       12 UNK         0.0216 
     26 CB        -55.6913  -28.5888   16.9707 C.3       12 UNK        -0.1964 
     27 N         -55.5116  -27.0795   15.0708 N.am      12 UNK        -0.4276 
     28 C         -56.1807  -26.0709   14.4942 C.2       12 UNK         0.5020 
     29 O         -57.3686  -26.1403   14.1745 O.2       12 UNK        -0.5489 
     30 CA        -55.3929  -24.7661   14.2216 C.3       11 UNK         0.0294 
     31 CB        -56.2639  -23.5047   14.3956 C.3       11 UNK        -0.2019 
     32 N         -54.1496  -24.6497   14.9977 N.am      11 UNK        -0.4493 
     33 C         -54.0178  -24.6894   16.3339 C.2       11 UNK         0.4932 
     34 O         -54.9698  -24.6529   17.1147 O.2       11 UNK        -0.5029 
     35 CA        -52.5931  -24.8554   16.8962 C.3       10 UNK         0.0280 
     36 CB        -52.5744  -25.7205   18.1742 C.3       10 UNK        -0.1976 
     37 N         -51.6085  -25.3653   15.9320 N.am      10 UNK        -0.4242 
     38 C         -51.6059  -26.5335   15.2651 C.2       10 UNK         0.5072 
     39 O         -52.5319  -27.3498   15.3140 O.2       10 UNK        -0.5224 
     40 CA        -50.3930  -26.8350   14.3525 C.3       9 UNK         0.0343 
     41 CB        -50.8537  -27.1423   12.9173 C.3       9 UNK        -0.2003 
     42 N         -49.4076  -25.7506   14.3015 N.am      9 UNK        -0.4272 
     43 C         -48.5267  -25.4415   15.2636 C.2       9 UNK         0.4988 
     44 O         -48.3524  -26.1169   16.2777 O.2       9 UNK        -0.5108 
     45 CA        -47.7810  -24.1034   15.1071 C.3       8 UNK         0.0248 
     46 CB        -46.4643  -24.2788   14.3342 C.3       8 UNK        -0.2001 
     47 N         -48.6117  -23.0806   14.4589 N.am      8 UNK        -0.4140 
     48 C         -49.6751  -22.4960   15.0321 C.2       8 UNK         0.5028 
     49 O         -50.0246  -22.7118   16.1916 O.2       8 UNK        -0.5428 
     50 CA        -50.5191  -21.5504   14.1593 C.3       7 UNK         0.0264 
     51 CB        -49.9186  -20.1355   14.1572 C.3       7 UNK        -0.1988 
     52 N         -50.6580  -22.0265   12.7811 N.am      7 UNK        -0.4454 
     53 C         -51.3656  -23.1065   12.4133 C.2       7 UNK         0.5027 
     54 O         -52.0559  -23.7685   13.1897 O.2       7 UNK        -0.5083 
     55 CA        -51.2350  -23.5627   10.9433 C.3       6 UNK         0.0844 
     56 C56       -52.3885  -23.0122   10.0738 C.3       14 UNK        -0.0967 
     57 S57       -52.3993  -23.8055    8.4289 S.3       14 UNK        -0.2604 
     58 C58       -53.7191  -25.0431    8.6306 C.3       14 UNK         0.0134 
     59 N         -49.9142  -23.2547   10.3762 N.am      6 UNK        -0.4116 
     60 C         -48.7709  -23.8004   10.8065 C.2       5 UNK         0.5034 
     61 O         -48.7150  -24.6226   11.7226 O.2       5 UNK        -0.5045 
     62 CA        -47.4772  -23.3102   10.1536 C.3       5 UNK         0.0224 
     63 CB        -46.9860  -22.0148   10.8273 C.3       5 UNK        -0.1978 
     64 N         -46.4685  -24.3564   10.2846 N.am      5 UNK        -0.4737 
     65 C         -45.3730  -24.4891    9.5321 C.2       4 UNK         0.5027 
     66 O         -45.0517  -23.6909    8.6516 O.2       4 UNK        -0.5211 
     67 CA        -44.4999  -25.7343    9.7675 C.3       4 UNK         0.0297 
     68 CB        -43.5374  -25.5352   10.9555 C.3       4 UNK        -0.1993 
     69 N         -45.2803  -26.9756    9.8734 N.am      4 UNK        -0.4486 
     70 C         -46.0676  -27.3980   10.8710 C.2       3 UNK         0.4961 
     71 O         -46.2098  -26.8024   11.9380 O.2       3 UNK        -0.5105 
     72 CA        -46.8978  -28.6601   10.5784 C.3       3 UNK         0.0299 
     73 CB        -47.4365  -29.3175   11.8631 C.3       3 UNK        -0.1972 
     74 N         -48.0241  -28.3326    9.7021 N.am      3 UNK        -0.4305 
     75 C         -47.9388  -28.0814    8.3888 C.2       2 UNK         0.5006 
     76 O         -46.8899  -28.1459    7.7420 O.2       2 UNK        -0.5106 
     77 CA        -49.2394  -27.6261    7.7106 C.3       2 UNK         0.0296 
     78 CB        -49.4441  -26.1149    7.8886 C.3       2 UNK        -0.2002 
     79 N         -49.2835  -27.9482    6.2847 N.am      2 UNK        -0.4032 
     80 C         -49.4036  -29.1859    5.7885 C.2       1 UNK         0.5000 
     81 O         -49.4948  -30.2026    6.4843 O.2       1 UNK        -0.5238 
     82 H82       -46.1701  -32.3028    4.1344 H         1 UNK         0.0889 
     83 H83       -46.2114  -31.8164    2.4373 H         1 UNK         0.0889 
     84 H84       -47.5847  -32.6689    3.1450 H         1 UNK         0.0889 
     85 H85       -49.2978  -31.3162    3.6370 H         1 UNK         0.3028 
     86 H86       -48.9817  -28.4358    3.8127 H         1 UNK         0.0864 
     87 H87       -51.5424  -30.0388    4.3261 H         1 UNK         0.0720 
     88 H88       -50.9609  -29.7289    2.7199 H         1 UNK         0.0720 
     89 H89       -53.6875  -28.9728    4.2879 H         1 UNK         0.0814 
     90 H90       -54.0398  -27.2767    4.1260 H         1 UNK         0.0814 
     91 H91       -53.7775  -25.7252    5.9891 H         1 UNK         0.1469 
     92 H92       -52.8177  -27.2931    9.8528 H         1 UNK         0.1381 
     93 H93       -52.5965  -29.8295    6.4027 H         1 UNK         0.1206 
     94 H94       -51.4478  -29.5192    9.8079 H         1 UNK         0.0813 
     95 H95       -51.6920  -30.6024    8.4696 H         1 UNK         0.0813 
     96 H96       -54.6820  -28.8728   11.0302 H         1 UNK         0.0638 
     97 H97       -52.9913  -28.8419   11.4408 H         1 UNK         0.0638 
     98 H98       -54.8650  -30.9885   12.5090 H         1 UNK         0.0568 
     99 H99       -51.4985  -30.6900   14.7895 H         1 UNK         0.3450 
    100 H100      -52.6081  -29.3428   14.7183 H         1 UNK         0.3450 
    101 H101      -54.6117  -28.2427   13.4159 H         1 UNK         0.2987 
    102 H102      -57.1694  -28.3361   15.4294 H         1 UNK         0.0766 
    103 H103      -56.1376  -29.5049   17.3598 H         1 UNK         0.0798 
    104 H104      -56.0348  -27.7687   17.6018 H         1 UNK         0.0798 
    105 H105      -54.6103  -28.6731   17.0925 H         1 UNK         0.0798 
    106 H106      -54.5241  -26.9477   15.2743 H         1 UNK         0.3198 
    107 H107      -55.0876  -24.8140   13.1751 H         1 UNK         0.0843 
    108 H108      -56.6619  -23.4241   15.4075 H         1 UNK         0.0831 
    109 H109      -57.1145  -23.5180   13.7131 H         1 UNK         0.0831 
    110 H110      -55.6956  -22.5988   14.1846 H         1 UNK         0.0831 
    111 H111      -53.2980  -24.5918   14.4430 H         1 UNK         0.3133 
    112 H112      -52.2615  -23.8534   17.1696 H         1 UNK         0.0566 
    113 H113      -51.5643  -25.8170   18.5723 H         1 UNK         0.0814 
    114 H114      -52.9589  -26.7239   17.9877 H         1 UNK         0.0814 
    115 H115      -53.1878  -25.2780   18.9600 H         1 UNK         0.0814 
    116 H116      -50.8236  -24.7445   15.7799 H         1 UNK         0.3091 
    117 H117      -49.8978  -27.7230   14.7500 H         1 UNK         0.0702 
    118 H118      -50.0138  -27.1930   12.2248 H         1 UNK         0.0785 
    119 H119      -51.5486  -26.3900   12.5454 H         1 UNK         0.0785 
    120 H120      -51.3616  -28.1035   12.8779 H         1 UNK         0.0785 
    121 H121      -49.3991  -25.1884   13.4556 H         1 UNK         0.2998 
    122 H122      -47.5333  -23.7496   16.1103 H         1 UNK         0.0697 
    123 H123      -46.6349  -24.5862   13.3038 H         1 UNK         0.0825 
    124 H124      -45.8384  -25.0425   14.7977 H         1 UNK         0.0825 
    125 H125      -45.8877  -23.3541   14.3159 H         1 UNK         0.0825 
    126 H126      -48.4147  -22.8868   13.4890 H         1 UNK         0.3029 
    127 H127      -51.5170  -21.4976   14.6012 H         1 UNK         0.0897 
    128 H128      -48.9250  -20.1149   13.7077 H         1 UNK         0.0792 
    129 H129      -49.8238  -19.7519   15.1742 H         1 UNK         0.0792 
    130 H130      -50.5507  -19.4373   13.6082 H         1 UNK         0.0792 
    131 H131      -50.1423  -21.5269   12.0718 H         1 UNK         0.3086 
    132 H132      -51.3280  -24.6507   10.9551 H         1 UNK         0.0583 
    133 H133      -53.3554  -23.1617   10.5589 H         1 UNK         0.1020 
    134 H134      -52.2892  -21.9334    9.9396 H         1 UNK         0.1020 
    135 H135      -53.9378  -25.1958    9.6885 H         1 UNK         0.0694 
    136 H136      -54.6377  -24.6587    8.1848 H         1 UNK         0.0694 
    137 H137      -49.8979  -22.5983    9.6089 H         1 UNK         0.2989 
    138 H138      -47.6679  -23.1297    9.0932 H         1 UNK         0.1055 
    139 H139      -46.0854  -21.6346   10.3448 H         1 UNK         0.0806 
    140 H140      -46.7544  -22.1704   11.8816 H         1 UNK         0.0806 
    141 H141      -47.7364  -21.2257   10.7666 H         1 UNK         0.0806 
    142 H142      -46.6729  -25.0699   10.9821 H         1 UNK         0.3061 
    143 H143      -43.8862  -25.8577    8.8736 H         1 UNK         0.0734 
    144 H144      -44.0673  -25.3337   11.8868 H         1 UNK         0.0832 
    145 H145      -42.9083  -26.4118   11.1089 H         1 UNK         0.0832 
    146 H146      -42.8752  -24.6874   10.7758 H         1 UNK         0.0832 
    147 H147      -45.3578  -27.4995    9.0067 H         1 UNK         0.3156 
    148 H148      -46.2536  -29.3843   10.0750 H         1 UNK         0.0589 
    149 H149      -47.9946  -30.2273   11.6413 H         1 UNK         0.0808 
    150 H150      -48.0922  -28.6488   12.4218 H         1 UNK         0.0808 
    151 H151      -46.6175  -29.5945   12.5281 H         1 UNK         0.0808 
    152 H152      -48.9150  -28.2089   10.1590 H         1 UNK         0.3098 
    153 H153      -50.0662  -28.1445    8.1917 H         1 UNK         0.0720 
    154 H154      -49.5633  -25.8656    8.9424 H         1 UNK         0.0791 
    155 H155      -50.3458  -25.7761    7.3780 H         1 UNK         0.0791 
    156 H156      -48.6006  -25.5402    7.5038 H         1 UNK         0.0791 
    157 H157      -49.2083  -27.1717    5.6445 H         1 UNK         0.3028 
@<TRIPOS>BOND
     1    1    2 1    
     2    1   82 1    
     3    1   83 1    
     4    1   84 1    
     5    2    3 2    
     6    2    4 am   BACKBONE|DICT|INTERRES
     7    4    5 1    
     8    4   85 1    
     9    5    6 1    
    10    5   80 1    
    11    5   86 1    
    12    6    7 1    
    13    6   87 1    
    14    6   88 1    
    15    7    8 1    
    16    8    9 1    
    17    8   89 1    
    18    8   90 1    
    19    9   10 ar   
    20    9   14 ar   
    21   10   11 ar   
    22   10   91 1    
    23   11   12 ar   
    24   11   58 1    
    25   12   13 ar   
    26   12   92 1    
    27   13   14 ar   
    28   13   15 1    
    29   14   93 1    
    30   15   16 1    
    31   15   94 1    
    32   15   95 1    
    33   16   17 1    
    34   17   18 1    
    35   17   96 1    
    36   17   97 1    
    37   18   19 1    
    38   18   22 1    
    39   18   98 1    
    40   19   20 am   BACKBONE|DICT|INTERRES
    41   19   21 2    
    42   20   99 1    
    43   20  100 1    
    44   22   23 am   BACKBONE|DICT|INTERRES
    45   22  101 1    
    46   23   24 2    
    47   23   25 1    
    48   25   26 1    
    49   25   27 1    
    50   25  102 1    
    51   26  103 1    
    52   26  104 1    
    53   26  105 1    
    54   27   28 am   BACKBONE|DICT|INTERRES
    55   27  106 1    
    56   28   29 2    
    57   28   30 1    
    58   30   31 1    
    59   30   32 1    
    60   30  107 1    
    61   31  108 1    
    62   31  109 1    
    63   31  110 1    
    64   32   33 am   BACKBONE|DICT|INTERRES
    65   32  111 1    
    66   33   34 2    
    67   33   35 1    
    68   35   36 1    
    69   35   37 1    
    70   35  112 1    
    71   36  113 1    
    72   36  114 1    
    73   36  115 1    
    74   37   38 am   BACKBONE|DICT|INTERRES
    75   37  116 1    
    76   38   39 2    
    77   38   40 1    
    78   40   41 1    
    79   40   42 1    
    80   40  117 1    
    81   41  118 1    
    82   41  119 1    
    83   41  120 1    
    84   42   43 am   BACKBONE|DICT|INTERRES
    85   42  121 1    
    86   43   44 2    
    87   43   45 1    
    88   45   46 1    
    89   45   47 1    
    90   45  122 1    
    91   46  123 1    
    92   46  124 1    
    93   46  125 1    
    94   47   48 am   BACKBONE|DICT|INTERRES
    95   47  126 1    
    96   48   49 2    
    97   48   50 1    
    98   50   51 1    
    99   50   52 1    
   100   50  127 1    
   101   51  128 1    
   102   51  129 1    
   103   51  130 1    
   104   52   53 am   BACKBONE|DICT|INTERRES
   105   52  131 1    
   106   53   54 2    
   107   53   55 1    
   108   55   56 1    
   109   55   59 1    
   110   55  132 1    
   111   56   57 1    
   112   56  133 1    
   113   56  134 1    
   114   57   58 1    
   115   58  135 1    
   116   58  136 1    
   117   59   60 am   BACKBONE|DICT|INTERRES
   118   59  137 1    
   119   60   61 2    
   120   60   62 1    
   121   62   63 1    
   122   62   64 1    
   123   62  138 1    
   124   63  139 1    
   125   63  140 1    
   126   63  141 1    
   127   64   65 am   BACKBONE|DICT|INTERRES
   128   64  142 1    
   129   65   66 2    
   130   65   67 1    
   131   67   68 1    
   132   67   69 1    
   133   67  143 1    
   134   68  144 1    
   135   68  145 1    
   136   68  146 1    
   137   69   70 am   BACKBONE|DICT|INTERRES
   138   69  147 1    
   139   70   71 2    
   140   70   72 1    
   141   72   73 1    
   142   72   74 1    
   143   72  148 1    
   144   73  149 1    
   145   73  150 1    
   146   73  151 1    
   147   74   75 am   BACKBONE|DICT|INTERRES
   148   74  152 1    
   149   75   76 2    
   150   75   77 1    
   151   77   78 1    
   152   77   79 1    
   153   77  153 1    
   154   78  154 1    
   155   78  155 1    
   156   78  156 1    
   157   79   80 am   BACKBONE|DICT|INTERRES
   158   79  157 1    
   159   80   81 2    
@<TRIPOS>SUBSTRUCTURE
     1 UNK         1 GROUP             0       ****    0 ROOT    
