@<TRIPOS>MOLECULE
3R207
157   159    1
SMALL
USER_CHARGES


@<TRIPOS>ATOM
      1 CA        -47.2782  -27.5748    3.0386 C.3       0 UNK        -0.1975 
      2 C         -48.0827  -27.4221    4.3209 C.2       0 UNK         0.4852 
      3 O         -49.1297  -26.7742    4.3133 O.2       0 UNK        -0.5216 
      4 N         -47.5980  -28.0084    5.4199 N.am      1 UNK        -0.4461 
      5 CA        -48.1806  -27.9194    6.7567 C.3       1 UNK         0.0864 
      6 C6        -49.4021  -28.8631    6.9425 C.3       14 UNK        -0.0898 
      7 S7        -50.6783  -28.1083    8.0038 S.3       14 UNK        -0.2598 
      8 C8        -52.0429  -27.9066    6.8200 C.3       14 UNK         0.0286 
      9 C9        -53.1713  -27.0841    7.4212 C.ar      14 UNK        -0.0844 
     10 C10       -53.1992  -25.7002    7.2307 C.ar      14 UNK        -0.0881 
     11 C11       -54.2166  -24.9215    7.7913 C.ar      14 UNK        -0.0643 
     12 C12       -55.2376  -25.5524    8.5109 C.ar      14 UNK        -0.0930 
     13 C13       -55.2441  -26.9419    8.6763 C.ar      14 UNK        -0.0827 
     14 C14       -54.1965  -27.7013    8.1453 C.ar      14 UNK        -0.1249 
     15 C15       -56.4188  -27.6211    9.3703 C.3       14 UNK         0.0141 
     16 S16       -56.2220  -27.6935   11.1772 S.3       14 UNK        -0.2313 
     17 C17       -55.1222  -29.1329   11.3832 C.3       14 UNK        -0.0915 
     18 CA        -55.3982  -29.9121   12.6984 C.3       13 UNK         0.0968 
     19 C         -54.6193  -31.2601   12.7528 C.2       13 UNK         0.5732 
     20 N         -53.9636  -31.6218   13.8501 N.am      13 UNK        -0.7310 
     21 O         -54.6234  -32.0122   11.7811 O.2       13 UNK        -0.5035 
     22 N         -55.1865  -29.0707   13.8882 N.am      13 UNK        -0.4233 
     23 C         -55.9538  -29.0890   14.9837 C.2       13 UNK         0.4989 
     24 O         -56.9784  -29.7665   15.0899 O.2       13 UNK        -0.4996 
     25 CA        -55.4872  -28.2093   16.1633 C.3       12 UNK         0.0216 
     26 CB        -56.2590  -28.4996   17.4679 C.3       12 UNK        -0.1964 
     27 N         -54.0401  -28.2701   16.4120 N.am      12 UNK        -0.4276 
     28 C         -53.2928  -29.3623   16.6346 C.2       12 UNK         0.5020 
     29 O         -53.7344  -30.5120   16.6066 O.2       12 UNK        -0.5489 
     30 CA        -51.7969  -29.1542   16.9358 C.3       11 UNK         0.0294 
     31 CB        -50.9181  -29.6053   15.7566 C.3       11 UNK        -0.2019 
     32 N         -51.4518  -27.7766   17.3000 N.am      11 UNK        -0.4493 
     33 C         -51.6555  -27.2294   18.5041 C.2       11 UNK         0.4932 
     34 O         -52.1928  -27.8240   19.4386 O.2       11 UNK        -0.5029 
     35 CA        -51.1729  -25.7820   18.7193 C.3       10 UNK         0.0280 
     36 CB        -49.6400  -25.7283   18.8755 C.3       10 UNK        -0.1976 
     37 N         -51.6463  -24.8072   17.7248 N.am      10 UNK        -0.4242 
     38 C         -51.3729  -24.7419   16.4149 C.2       10 UNK         0.5072 
     39 O         -50.6701  -25.5544   15.8085 O.2       10 UNK        -0.5224 
     40 CA        -51.9864  -23.5596   15.6498 C.3       9 UNK         0.0343 
     41 CB        -50.8921  -22.5930   15.1689 C.3       9 UNK        -0.2003 
     42 N         -52.7339  -24.0516   14.4972 N.am      9 UNK        -0.4272 
     43 C         -53.9424  -24.6297   14.5719 C.2       9 UNK         0.4988 
     44 O         -54.6063  -24.6972   15.6064 O.2       9 UNK        -0.5108 
     45 CA        -54.4891  -25.2715   13.2836 C.3       8 UNK         0.0248 
     46 CB        -55.2960  -24.2458   12.4710 C.3       8 UNK        -0.2001 
     47 N         -53.4228  -25.8225   12.4466 N.am      8 UNK        -0.4140 
     48 C         -52.5990  -26.8147   12.8105 C.2       8 UNK         0.5028 
     49 O         -52.8084  -27.5247   13.7917 O.2       8 UNK        -0.5428 
     50 CA        -51.3314  -27.0511   11.9648 C.3       7 UNK         0.0264 
     51 CB        -51.2239  -28.5121   11.4944 C.3       7 UNK        -0.1988 
     52 N         -51.2084  -26.1574   10.8080 N.am      7 UNK        -0.4454 
     53 C         -50.9518  -24.8432   10.8670 C.2       7 UNK         0.5027 
     54 O         -50.7642  -24.2232   11.9158 O.2       7 UNK        -0.5083 
     55 CA        -51.0157  -24.0802    9.5331 C.3       6 UNK         0.0844 
     56 C56       -52.2080  -23.0910    9.5281 C.3       14 UNK        -0.0967 
     57 S57       -52.6354  -22.5803    7.8321 S.3       14 UNK        -0.2604 
     58 C58       -54.2496  -23.4063    7.5919 C.3       14 UNK         0.0134 
     59 N         -49.7425  -23.4217    9.2365 N.am      6 UNK        -0.4116 
     60 C         -48.6109  -24.0821    8.9666 C.2       5 UNK         0.5034 
     61 O         -48.5395  -25.3118    8.9258 O.2       5 UNK        -0.5045 
     62 CA        -47.3588  -23.2305    8.7086 C.3       5 UNK         0.0224 
     63 CB        -46.8048  -22.6681   10.0287 C.3       5 UNK        -0.1978 
     64 N         -46.3268  -24.0536    8.0746 N.am      5 UNK        -0.4737 
     65 C         -46.0587  -24.0689    6.7620 C.2       4 UNK         0.5027 
     66 O         -46.5873  -23.2971    5.9609 O.2       4 UNK        -0.5211 
     67 CA        -45.0745  -25.1322    6.2250 C.3       4 UNK         0.0297 
     68 CB        -44.0704  -24.5419    5.2127 C.3       4 UNK        -0.1993 
     69 N         -44.3939  -25.9235    7.2588 N.am      4 UNK        -0.4486 
     70 C         -43.4773  -25.5131    8.1506 C.2       3 UNK         0.4961 
     71 O         -42.9997  -24.3782    8.1784 O.2       3 UNK        -0.5105 
     72 CA        -43.0588  -26.5548    9.2129 C.3       3 UNK         0.0299 
     73 CB        -42.3966  -25.9165   10.4528 C.3       3 UNK        -0.1972 
     74 N         -44.1710  -27.4342    9.6055 N.am      3 UNK        -0.4305 
     75 C         -45.3487  -27.0480   10.1195 C.2       2 UNK         0.5006 
     76 O         -45.6161  -25.8889   10.4355 O.2       2 UNK        -0.5106 
     77 CA        -46.4433  -28.1234   10.2006 C.3       2 UNK         0.0296 
     78 CB        -47.2358  -28.0237   11.5161 C.3       2 UNK        -0.2002 
     79 N         -47.3689  -27.9950    9.0726 N.am      2 UNK        -0.4032 
     80 C         -47.0625  -28.1838    7.7828 C.2       1 UNK         0.5000 
     81 O         -45.9449  -28.5401    7.3902 O.2       1 UNK        -0.5238 
     82 H82       -47.8845  -28.0539    2.2703 H         1 UNK         0.0889 
     83 H83       -46.3824  -28.1773    3.1884 H         1 UNK         0.0889 
     84 H84       -46.9710  -26.5963    2.6705 H         1 UNK         0.0889 
     85 H85       -46.7122  -28.5008    5.4020 H         1 UNK         0.3028 
     86 H86       -48.4927  -26.8816    6.8894 H         1 UNK         0.0864 
     87 H87       -49.8545  -29.0992    5.9782 H         1 UNK         0.0720 
     88 H88       -49.1128  -29.8284    7.3628 H         1 UNK         0.0720 
     89 H89       -52.4108  -28.8885    6.5184 H         1 UNK         0.0814 
     90 H90       -51.6695  -27.4238    5.9148 H         1 UNK         0.0814 
     91 H91       -52.4171  -25.2249    6.6541 H         1 UNK         0.1469 
     92 H92       -56.0468  -24.9648    8.9228 H         1 UNK         0.1381 
     93 H93       -54.1903  -28.7749    8.2756 H         1 UNK         0.1206 
     94 H94       -57.3345  -27.0710    9.1485 H         1 UNK         0.0813 
     95 H95       -56.5746  -28.6238    8.9698 H         1 UNK         0.0813 
     96 H96       -54.0932  -28.7857   11.3500 H         1 UNK         0.0638 
     97 H97       -55.2504  -29.7878   10.5201 H         1 UNK         0.0638 
     98 H98       -56.4485  -30.2065   12.6656 H         1 UNK         0.0568 
     99 H99       -53.4776  -32.5037   13.8555 H         1 UNK         0.3450 
    100 H100      -53.9872  -31.0592   14.6936 H         1 UNK         0.3450 
    101 H101      -54.3320  -28.5153   13.8948 H         1 UNK         0.2987 
    102 H102      -55.7065  -27.1810   15.8746 H         1 UNK         0.0766 
    103 H103      -57.3306  -28.3470   17.3334 H         1 UNK         0.0798 
    104 H104      -55.9379  -27.8388   18.2732 H         1 UNK         0.0798 
    105 H105      -56.1143  -29.5281   17.8007 H         1 UNK         0.0798 
    106 H106      -53.5517  -27.3863   16.3753 H         1 UNK         0.3198 
    107 H107      -51.5616  -29.8001   17.7847 H         1 UNK         0.0843 
    108 H108      -51.0170  -28.9449   14.8967 H         1 UNK         0.0831 
    109 H109      -51.1845  -30.6109   15.4279 H         1 UNK         0.0831 
    110 H110      -49.8651  -29.6263   16.0371 H         1 UNK         0.0831 
    111 H111      -51.0362  -27.1856   16.5807 H         1 UNK         0.3133 
    112 H112      -51.6012  -25.4533   19.6677 H         1 UNK         0.0566 
    113 H113      -49.3026  -24.7231   19.1279 H         1 UNK         0.0814 
    114 H114      -49.1229  -26.0359   17.9661 H         1 UNK         0.0814 
    115 H115      -49.3074  -26.3913   19.6754 H         1 UNK         0.0814 
    116 H116      -52.2690  -24.1029   18.0974 H         1 UNK         0.3091 
    117 H117      -52.6666  -23.0102   16.3045 H         1 UNK         0.0702 
    118 H118      -51.3197  -21.7421   14.6384 H         1 UNK         0.0785 
    119 H119      -50.1861  -23.0846   14.4976 H         1 UNK         0.0785 
    120 H120      -50.3219  -22.1986   16.0110 H         1 UNK         0.0785 
    121 H121      -52.2225  -24.0966   13.6241 H         1 UNK         0.2998 
    122 H122      -55.1532  -26.0888   13.5701 H         1 UNK         0.0697 
    123 H123      -56.1253  -23.8513   13.0598 H         1 UNK         0.0825 
    124 H124      -55.7236  -24.6948   11.5747 H         1 UNK         0.0825 
    125 H125      -54.6832  -23.3978   12.1628 H         1 UNK         0.0825 
    126 H126      -53.2137  -25.3298   11.5935 H         1 UNK         0.3029 
    127 H127      -50.4889  -26.8536   12.6316 H         1 UNK         0.0897 
    128 H128      -51.9569  -28.7469   10.7237 H         1 UNK         0.0792 
    129 H129      -51.3740  -29.2120   12.3177 H         1 UNK         0.0792 
    130 H130      -50.2393  -28.7171   11.0765 H         1 UNK         0.0792 
    131 H131      -51.3475  -26.5841    9.9001 H         1 UNK         0.3086 
    132 H132      -51.1767  -24.8171    8.7455 H         1 UNK         0.0583 
    133 H133      -53.0938  -23.5328    9.9884 H         1 UNK         0.1020 
    134 H134      -51.9803  -22.2041   10.1226 H         1 UNK         0.1020 
    135 H135      -54.9722  -22.9476    8.2689 H         1 UNK         0.0694 
    136 H136      -54.6008  -23.1971    6.5807 H         1 UNK         0.0694 
    137 H137      -49.7365  -22.4135    9.2734 H         1 UNK         0.2989 
    138 H138      -47.6338  -22.3967    8.0588 H         1 UNK         0.1055 
    139 H139      -46.5902  -23.4585   10.7486 H         1 UNK         0.0806 
    140 H140      -47.5173  -21.9885   10.4977 H         1 UNK         0.0806 
    141 H141      -45.8841  -22.1078    9.8646 H         1 UNK         0.0806 
    142 H142      -45.9057  -24.7530    8.6767 H         1 UNK         0.3061 
    143 H143      -45.6926  -25.8455    5.6795 H         1 UNK         0.0734 
    144 H144      -43.4637  -23.7514    5.6548 H         1 UNK         0.0832 
    145 H145      -43.3975  -25.3075    4.8267 H         1 UNK         0.0832 
    146 H146      -44.5884  -24.1078    4.3566 H         1 UNK         0.0832 
    147 H147      -44.7220  -26.8811    7.3447 H         1 UNK         0.3156 
    148 H148      -42.3158  -27.1942    8.7342 H         1 UNK         0.0589 
    149 H149      -42.1083  -26.6728   11.1826 H         1 UNK         0.0808 
    150 H150      -41.4922  -25.3731   10.1766 H         1 UNK         0.0808 
    151 H151      -43.0611  -25.2079   10.9484 H         1 UNK         0.0808 
    152 H152      -44.0741  -28.4038    9.3329 H         1 UNK         0.3098 
    153 H153      -45.9766  -29.1097   10.1575 H         1 UNK         0.0720 
    154 H154      -46.5671  -28.0406   12.3776 H         1 UNK         0.0791 
    155 H155      -47.9236  -28.8615   11.6268 H         1 UNK         0.0791 
    156 H156      -47.8157  -27.1006   11.5708 H         1 UNK         0.0791 
    157 H157      -48.2701  -27.5825    9.2788 H         1 UNK         0.3028 
@<TRIPOS>BOND
     1    1    2 1    
     2    1   82 1    
     3    1   83 1    
     4    1   84 1    
     5    2    3 2    
     6    2    4 am   BACKBONE|DICT|INTERRES
     7    4    5 1    
     8    4   85 1    
     9    5    6 1    
    10    5   80 1    
    11    5   86 1    
    12    6    7 1    
    13    6   87 1    
    14    6   88 1    
    15    7    8 1    
    16    8    9 1    
    17    8   89 1    
    18    8   90 1    
    19    9   10 ar   
    20    9   14 ar   
    21   10   11 ar   
    22   10   91 1    
    23   11   12 ar   
    24   11   58 1    
    25   12   13 ar   
    26   12   92 1    
    27   13   14 ar   
    28   13   15 1    
    29   14   93 1    
    30   15   16 1    
    31   15   94 1    
    32   15   95 1    
    33   16   17 1    
    34   17   18 1    
    35   17   96 1    
    36   17   97 1    
    37   18   19 1    
    38   18   22 1    
    39   18   98 1    
    40   19   20 am   BACKBONE|DICT|INTERRES
    41   19   21 2    
    42   20   99 1    
    43   20  100 1    
    44   22   23 am   BACKBONE|DICT|INTERRES
    45   22  101 1    
    46   23   24 2    
    47   23   25 1    
    48   25   26 1    
    49   25   27 1    
    50   25  102 1    
    51   26  103 1    
    52   26  104 1    
    53   26  105 1    
    54   27   28 am   BACKBONE|DICT|INTERRES
    55   27  106 1    
    56   28   29 2    
    57   28   30 1    
    58   30   31 1    
    59   30   32 1    
    60   30  107 1    
    61   31  108 1    
    62   31  109 1    
    63   31  110 1    
    64   32   33 am   BACKBONE|DICT|INTERRES
    65   32  111 1    
    66   33   34 2    
    67   33   35 1    
    68   35   36 1    
    69   35   37 1    
    70   35  112 1    
    71   36  113 1    
    72   36  114 1    
    73   36  115 1    
    74   37   38 am   BACKBONE|DICT|INTERRES
    75   37  116 1    
    76   38   39 2    
    77   38   40 1    
    78   40   41 1    
    79   40   42 1    
    80   40  117 1    
    81   41  118 1    
    82   41  119 1    
    83   41  120 1    
    84   42   43 am   BACKBONE|DICT|INTERRES
    85   42  121 1    
    86   43   44 2    
    87   43   45 1    
    88   45   46 1    
    89   45   47 1    
    90   45  122 1    
    91   46  123 1    
    92   46  124 1    
    93   46  125 1    
    94   47   48 am   BACKBONE|DICT|INTERRES
    95   47  126 1    
    96   48   49 2    
    97   48   50 1    
    98   50   51 1    
    99   50   52 1    
   100   50  127 1    
   101   51  128 1    
   102   51  129 1    
   103   51  130 1    
   104   52   53 am   BACKBONE|DICT|INTERRES
   105   52  131 1    
   106   53   54 2    
   107   53   55 1    
   108   55   56 1    
   109   55   59 1    
   110   55  132 1    
   111   56   57 1    
   112   56  133 1    
   113   56  134 1    
   114   57   58 1    
   115   58  135 1    
   116   58  136 1    
   117   59   60 am   BACKBONE|DICT|INTERRES
   118   59  137 1    
   119   60   61 2    
   120   60   62 1    
   121   62   63 1    
   122   62   64 1    
   123   62  138 1    
   124   63  139 1    
   125   63  140 1    
   126   63  141 1    
   127   64   65 am   BACKBONE|DICT|INTERRES
   128   64  142 1    
   129   65   66 2    
   130   65   67 1    
   131   67   68 1    
   132   67   69 1    
   133   67  143 1    
   134   68  144 1    
   135   68  145 1    
   136   68  146 1    
   137   69   70 am   BACKBONE|DICT|INTERRES
   138   69  147 1    
   139   70   71 2    
   140   70   72 1    
   141   72   73 1    
   142   72   74 1    
   143   72  148 1    
   144   73  149 1    
   145   73  150 1    
   146   73  151 1    
   147   74   75 am   BACKBONE|DICT|INTERRES
   148   74  152 1    
   149   75   76 2    
   150   75   77 1    
   151   77   78 1    
   152   77   79 1    
   153   77  153 1    
   154   78  154 1    
   155   78  155 1    
   156   78  156 1    
   157   79   80 am   BACKBONE|DICT|INTERRES
   158   79  157 1    
   159   80   81 2    
@<TRIPOS>SUBSTRUCTURE
     1 UNK         1 GROUP             0       ****    0 ROOT    
