@<TRIPOS>MOLECULE
3R207
157   159    1
SMALL
USER_CHARGES


@<TRIPOS>ATOM
      1 CA        -49.7562  -24.5772    5.8949 C.3       0 UNK        -0.1975 
      2 C         -49.7602  -25.9912    6.4538 C.2       0 UNK         0.4852 
      3 O         -48.9556  -26.8190    6.0237 O.2       0 UNK        -0.5216 
      4 N         -50.6749  -26.2571    7.3964 N.am      1 UNK        -0.4461 
      5 CA        -51.0617  -27.5830    7.8973 C.3       1 UNK         0.0864 
      6 C6        -51.9051  -28.3539    6.8398 C.3       14 UNK        -0.0898 
      7 S7        -53.2547  -29.3168    7.5986 S.3       14 UNK        -0.2598 
      8 C8        -54.7128  -28.3069    7.1833 C.3       14 UNK         0.0286 
      9 C9        -54.8037  -27.0402    8.0251 C.ar      14 UNK        -0.0844 
     10 C10       -54.3191  -25.8227    7.5365 C.ar      14 UNK        -0.0881 
     11 C11       -54.4613  -24.6490    8.2839 C.ar      14 UNK        -0.0643 
     12 C12       -55.0749  -24.7041    9.5398 C.ar      14 UNK        -0.0930 
     13 C13       -55.5734  -25.9132   10.0380 C.ar      14 UNK        -0.0827 
     14 C14       -55.4339  -27.0762    9.2720 C.ar      14 UNK        -0.1249 
     15 C15       -56.3380  -25.9324   11.3605 C.3       14 UNK         0.0141 
     16 S16       -55.9007  -27.3246   12.4558 S.3       14 UNK        -0.2313 
     17 C17       -54.1993  -26.8866   12.9320 C.3       14 UNK        -0.0915 
     18 CA        -53.1414  -27.7220   12.1714 C.3       13 UNK         0.0968 
     19 C         -51.7217  -27.1966   12.4882 C.2       13 UNK         0.5732 
     20 N         -51.1668  -26.3807   11.6084 N.am      13 UNK        -0.7310 
     21 O         -51.1518  -27.4763   13.5397 O.2       13 UNK        -0.5035 
     22 N         -53.2706  -29.1640   12.4265 N.am      13 UNK        -0.4233 
     23 C         -52.6435  -30.1103   11.7127 C.2       13 UNK         0.4989 
     24 O         -51.8926  -29.8557   10.7717 O.2       13 UNK        -0.4996 
     25 CA        -52.8879  -31.5819   12.1019 C.3       12 UNK         0.0216 
     26 CB        -51.7365  -32.5033   11.6539 C.3       12 UNK        -0.1964 
     27 N         -53.0713  -31.7237   13.5456 N.am      12 UNK        -0.4276 
     28 C         -54.2057  -32.0714   14.1667 C.2       12 UNK         0.5020 
     29 O         -55.2392  -32.3975   13.5820 O.2       12 UNK        -0.5489 
     30 CA        -54.1934  -32.0287   15.7100 C.3       11 UNK         0.0294 
     31 CB        -54.0205  -33.4444   16.2844 C.3       11 UNK        -0.2019 
     32 N         -53.1612  -31.1477   16.2763 N.am      11 UNK        -0.4493 
     33 C         -53.0944  -29.8254   16.0680 C.2       11 UNK         0.4932 
     34 O         -53.9372  -29.2070   15.4147 O.2       11 UNK        -0.5029 
     35 CA        -51.8552  -29.1053   16.6289 C.3       10 UNK         0.0280 
     36 CB        -50.5530  -29.7202   16.0804 C.3       10 UNK        -0.1976 
     37 N         -51.8731  -27.6897   16.2674 N.am      10 UNK        -0.4242 
     38 C         -52.5011  -26.7234   16.9470 C.2       10 UNK         0.5072 
     39 O         -53.0827  -26.9106   18.0185 O.2       10 UNK        -0.5224 
     40 CA        -52.4704  -25.3117   16.3199 C.3       9 UNK         0.0343 
     41 CB        -52.8470  -24.2035   17.3259 C.3       9 UNK        -0.2003 
     42 N         -51.2050  -24.9761   15.6514 N.am      9 UNK        -0.4272 
     43 C         -49.9729  -24.9898   16.1880 C.2       9 UNK         0.4988 
     44 O         -49.7181  -25.3503   17.3379 O.2       9 UNK        -0.5108 
     45 CA        -48.8206  -24.4918   15.2949 C.3       8 UNK         0.0248 
     46 CB        -48.2018  -25.6570   14.5064 C.3       8 UNK        -0.2001 
     47 N         -49.2114  -23.4273   14.3650 N.am      8 UNK        -0.4140 
     48 C         -49.6597  -22.2150   14.7252 C.2       8 UNK         0.5028 
     49 O         -49.7599  -21.8453   15.8958 O.2       8 UNK        -0.5428 
     50 CA        -50.0533  -21.2342   13.6041 C.3       7 UNK         0.0264 
     51 CB        -49.0741  -20.0481   13.5599 C.3       7 UNK        -0.1988 
     52 N         -50.1329  -21.8254   12.2637 N.am      7 UNK        -0.4454 
     53 C         -51.0862  -22.6686   11.8362 C.2       7 UNK         0.5027 
     54 O         -51.9704  -23.1161   12.5668 O.2       7 UNK        -0.5083 
     55 CA        -51.0412  -23.0933   10.3520 C.3       6 UNK         0.0844 
     56 C56       -52.1107  -22.3335    9.5354 C.3       14 UNK        -0.0967 
     57 S57       -52.2509  -23.0010    7.8446 S.3       14 UNK        -0.2604 
     58 C58       -54.0363  -23.3126    7.6884 C.3       14 UNK         0.0134 
     59 N         -49.6885  -22.9383    9.7932 N.am      6 UNK        -0.4116 
     60 C         -48.7685  -23.9104    9.7724 C.2       5 UNK         0.5034 
     61 O         -48.9966  -25.0765   10.0958 O.2       5 UNK        -0.5045 
     62 CA        -47.3503  -23.5256    9.3418 C.3       5 UNK         0.0224 
     63 CB        -46.3513  -23.7630   10.4879 C.3       5 UNK        -0.1978 
     64 N         -46.9676  -24.3267    8.1815 N.am      5 UNK        -0.4737 
     65 C         -46.2336  -23.8782    7.1545 C.2       4 UNK         0.5027 
     66 O         -45.7403  -22.7499    7.1181 O.2       4 UNK        -0.5211 
     67 CA        -46.0609  -24.8202    5.9468 C.3       4 UNK         0.0297 
     68 CB        -44.8176  -24.4942    5.0891 C.3       4 UNK        -0.1993 
     69 N         -46.1401  -26.2443    6.2965 N.am      4 UNK        -0.4486 
     70 C         -45.2111  -26.9792    6.9234 C.2       3 UNK         0.4961 
     71 O         -44.1216  -26.5471    7.3043 O.2       3 UNK        -0.5105 
     72 CA        -45.5873  -28.4535    7.1617 C.3       3 UNK         0.0299 
     73 CB        -44.3838  -29.3205    7.5898 C.3       3 UNK        -0.1972 
     74 N         -46.6934  -28.5936    8.1145 N.am      3 UNK        -0.4305 
     75 C         -46.7346  -28.1746    9.3880 C.2       2 UNK         0.5006 
     76 O         -45.8118  -27.5891    9.9562 O.2       2 UNK        -0.5106 
     77 CA        -48.0428  -28.4597   10.1446 C.3       2 UNK         0.0296 
     78 CB        -47.9970  -27.9880   11.6098 C.3       2 UNK        -0.2002 
     79 N         -49.1836  -27.8386    9.4683 N.am      2 UNK        -0.4032 
     80 C         -49.8752  -28.4002    8.4676 C.2       1 UNK         0.5000 
     81 O         -49.5643  -29.4892    7.9758 O.2       1 UNK        -0.5238 
     82 H82       -50.7706  -24.2574    5.6599 H         1 UNK         0.0889 
     83 H83       -49.1856  -24.5283    4.9687 H         1 UNK         0.0889 
     84 H84       -49.3287  -23.8741    6.6079 H         1 UNK         0.0889 
     85 H85       -51.2558  -25.4951    7.7201 H         1 UNK         0.3028 
     86 H86       -51.7077  -27.3759    8.7521 H         1 UNK         0.0864 
     87 H87       -51.2933  -29.0136    6.2224 H         1 UNK         0.0720 
     88 H88       -52.3519  -27.6584    6.1286 H         1 UNK         0.0720 
     89 H89       -55.6072  -28.9112    7.3423 H         1 UNK         0.0814 
     90 H90       -54.7054  -28.0640    6.1197 H         1 UNK         0.0814 
     91 H91       -53.8612  -25.7792    6.5579 H         1 UNK         0.1469 
     92 H92       -55.2060  -23.7946   10.1098 H         1 UNK         0.1381 
     93 H93       -55.8337  -28.0117    9.6389 H         1 UNK         0.1206 
     94 H94       -56.1955  -24.9984   11.9064 H         1 UNK         0.0813 
     95 H95       -57.4036  -25.9938   11.1365 H         1 UNK         0.0813 
     96 H96       -54.1010  -27.0275   14.0084 H         1 UNK         0.0638 
     97 H97       -54.0468  -25.8200   12.7542 H         1 UNK         0.0638 
     98 H98       -53.3155  -27.5784   11.1033 H         1 UNK         0.0568 
     99 H99       -50.2398  -26.0215   11.7694 H         1 UNK         0.3450 
    100 H100      -51.6720  -26.1131   10.7820 H         1 UNK         0.3450 
    101 H101      -53.8261  -29.4212   13.2325 H         1 UNK         0.2987 
    102 H102      -53.7911  -31.8931   11.5734 H         1 UNK         0.0766 
    103 H103      -51.6136  -32.4804   10.5701 H         1 UNK         0.0798 
    104 H104      -51.9270  -33.5397   11.9330 H         1 UNK         0.0798 
    105 H105      -50.7855  -32.2049   12.0969 H         1 UNK         0.0798 
    106 H106      -52.2850  -31.4610   14.1220 H         1 UNK         0.3198 
    107 H107      -55.1655  -31.6457   16.0282 H         1 UNK         0.0843 
    108 H108      -53.0546  -33.8746   16.0168 H         1 UNK         0.0831 
    109 H109      -54.7917  -34.1160   15.9040 H         1 UNK         0.0831 
    110 H110      -54.1018  -33.4460   17.3715 H         1 UNK         0.0831 
    111 H111      -52.4447  -31.5900   16.8347 H         1 UNK         0.3133 
    112 H112      -51.8616  -29.2051   17.7161 H         1 UNK         0.0566 
    113 H113      -50.5320  -29.7186   14.9896 H         1 UNK         0.0814 
    114 H114      -50.4219  -30.7507   16.4113 H         1 UNK         0.0814 
    115 H115      -49.6809  -29.1645   16.4262 H         1 UNK         0.0814 
    116 H116      -51.4888  -27.4660   15.3515 H         1 UNK         0.3091 
    117 H117      -53.2314  -25.3146   15.5388 H         1 UNK         0.0702 
    118 H118      -52.8475  -23.2219   16.8519 H         1 UNK         0.0785 
    119 H119      -52.1514  -24.1693   18.1652 H         1 UNK         0.0785 
    120 H120      -53.8451  -24.3655   17.7348 H         1 UNK         0.0785 
    121 H121      -51.2892  -24.6724   14.6906 H         1 UNK         0.2998 
    122 H122      -48.0522  -24.0832   15.9545 H         1 UNK         0.0697 
    123 H123      -48.9113  -26.0858   13.7999 H         1 UNK         0.0825 
    124 H124      -47.8884  -26.4592   15.1761 H         1 UNK         0.0825 
    125 H125      -47.3210  -25.3395   13.9480 H         1 UNK         0.0825 
    126 H126      -49.1486  -23.6340   13.3801 H         1 UNK         0.3029 
    127 H127      -51.0433  -20.8489   13.8586 H         1 UNK         0.0897 
    128 H128      -48.0638  -20.3675   13.3006 H         1 UNK         0.0792 
    129 H129      -49.0182  -19.5493   14.5287 H         1 UNK         0.0792 
    130 H130      -49.3885  -19.2987   12.8332 H         1 UNK         0.0792 
    131 H131      -49.4346  -21.5172   11.6045 H         1 UNK         0.3086 
    132 H132      -51.3241  -24.1440   10.3196 H         1 UNK         0.0583 
    133 H133      -53.0834  -22.4000   10.0268 H         1 UNK         0.1020 
    134 H134      -51.8750  -21.2694    9.4739 H         1 UNK         0.1020 
    135 H135      -54.5961  -22.4907    8.1375 H         1 UNK         0.0694 
    136 H136      -54.2934  -23.2990    6.6282 H         1 UNK         0.0694 
    137 H137      -49.4504  -22.0226    9.4401 H         1 UNK         0.2989 
    138 H138      -47.3392  -22.4643    9.0831 H         1 UNK         0.1055 
    139 H139      -46.3069  -24.8158   10.7720 H         1 UNK         0.0806 
    140 H140      -46.6276  -23.1946   11.3768 H         1 UNK         0.0806 
    141 H141      -45.3452  -23.4540   10.2042 H         1 UNK         0.0806 
    142 H142      -47.3363  -25.2676    8.1558 H         1 UNK         0.3061 
    143 H143      -46.9230  -24.6343    5.3086 H         1 UNK         0.0734 
    144 H144      -43.8971  -24.5323    5.6718 H         1 UNK         0.0832 
    145 H145      -44.7172  -25.1856    4.2527 H         1 UNK         0.0832 
    146 H146      -44.8878  -23.4897    4.6699 H         1 UNK         0.0832 
    147 H147      -47.0314  -26.6864    6.0764 H         1 UNK         0.3156 
    148 H148      -45.9482  -28.8448    6.2091 H         1 UNK         0.0589 
    149 H149      -44.6670  -30.3678    7.6945 H         1 UNK         0.0808 
    150 H150      -43.5871  -29.2726    6.8466 H         1 UNK         0.0808 
    151 H151      -43.9601  -28.9918    8.5395 H         1 UNK         0.0808 
    152 H152      -47.5373  -29.0304    7.7553 H         1 UNK         0.3098 
    153 H153      -48.1784  -29.5433   10.1596 H         1 UNK         0.0720 
    154 H154      -47.8682  -26.9081   11.6826 H         1 UNK         0.0791 
    155 H155      -47.1667  -28.4509   12.1444 H         1 UNK         0.0791 
    156 H156      -48.9085  -28.2604   12.1404 H         1 UNK         0.0791 
    157 H157      -49.3930  -26.8834    9.7459 H         1 UNK         0.3028 
@<TRIPOS>BOND
     1    1    2 1    
     2    1   82 1    
     3    1   83 1    
     4    1   84 1    
     5    2    3 2    
     6    2    4 am   BACKBONE|DICT|INTERRES
     7    4    5 1    
     8    4   85 1    
     9    5    6 1    
    10    5   80 1    
    11    5   86 1    
    12    6    7 1    
    13    6   87 1    
    14    6   88 1    
    15    7    8 1    
    16    8    9 1    
    17    8   89 1    
    18    8   90 1    
    19    9   10 ar   
    20    9   14 ar   
    21   10   11 ar   
    22   10   91 1    
    23   11   12 ar   
    24   11   58 1    
    25   12   13 ar   
    26   12   92 1    
    27   13   14 ar   
    28   13   15 1    
    29   14   93 1    
    30   15   16 1    
    31   15   94 1    
    32   15   95 1    
    33   16   17 1    
    34   17   18 1    
    35   17   96 1    
    36   17   97 1    
    37   18   19 1    
    38   18   22 1    
    39   18   98 1    
    40   19   20 am   BACKBONE|DICT|INTERRES
    41   19   21 2    
    42   20   99 1    
    43   20  100 1    
    44   22   23 am   BACKBONE|DICT|INTERRES
    45   22  101 1    
    46   23   24 2    
    47   23   25 1    
    48   25   26 1    
    49   25   27 1    
    50   25  102 1    
    51   26  103 1    
    52   26  104 1    
    53   26  105 1    
    54   27   28 am   BACKBONE|DICT|INTERRES
    55   27  106 1    
    56   28   29 2    
    57   28   30 1    
    58   30   31 1    
    59   30   32 1    
    60   30  107 1    
    61   31  108 1    
    62   31  109 1    
    63   31  110 1    
    64   32   33 am   BACKBONE|DICT|INTERRES
    65   32  111 1    
    66   33   34 2    
    67   33   35 1    
    68   35   36 1    
    69   35   37 1    
    70   35  112 1    
    71   36  113 1    
    72   36  114 1    
    73   36  115 1    
    74   37   38 am   BACKBONE|DICT|INTERRES
    75   37  116 1    
    76   38   39 2    
    77   38   40 1    
    78   40   41 1    
    79   40   42 1    
    80   40  117 1    
    81   41  118 1    
    82   41  119 1    
    83   41  120 1    
    84   42   43 am   BACKBONE|DICT|INTERRES
    85   42  121 1    
    86   43   44 2    
    87   43   45 1    
    88   45   46 1    
    89   45   47 1    
    90   45  122 1    
    91   46  123 1    
    92   46  124 1    
    93   46  125 1    
    94   47   48 am   BACKBONE|DICT|INTERRES
    95   47  126 1    
    96   48   49 2    
    97   48   50 1    
    98   50   51 1    
    99   50   52 1    
   100   50  127 1    
   101   51  128 1    
   102   51  129 1    
   103   51  130 1    
   104   52   53 am   BACKBONE|DICT|INTERRES
   105   52  131 1    
   106   53   54 2    
   107   53   55 1    
   108   55   56 1    
   109   55   59 1    
   110   55  132 1    
   111   56   57 1    
   112   56  133 1    
   113   56  134 1    
   114   57   58 1    
   115   58  135 1    
   116   58  136 1    
   117   59   60 am   BACKBONE|DICT|INTERRES
   118   59  137 1    
   119   60   61 2    
   120   60   62 1    
   121   62   63 1    
   122   62   64 1    
   123   62  138 1    
   124   63  139 1    
   125   63  140 1    
   126   63  141 1    
   127   64   65 am   BACKBONE|DICT|INTERRES
   128   64  142 1    
   129   65   66 2    
   130   65   67 1    
   131   67   68 1    
   132   67   69 1    
   133   67  143 1    
   134   68  144 1    
   135   68  145 1    
   136   68  146 1    
   137   69   70 am   BACKBONE|DICT|INTERRES
   138   69  147 1    
   139   70   71 2    
   140   70   72 1    
   141   72   73 1    
   142   72   74 1    
   143   72  148 1    
   144   73  149 1    
   145   73  150 1    
   146   73  151 1    
   147   74   75 am   BACKBONE|DICT|INTERRES
   148   74  152 1    
   149   75   76 2    
   150   75   77 1    
   151   77   78 1    
   152   77   79 1    
   153   77  153 1    
   154   78  154 1    
   155   78  155 1    
   156   78  156 1    
   157   79   80 am   BACKBONE|DICT|INTERRES
   158   79  157 1    
   159   80   81 2    
@<TRIPOS>SUBSTRUCTURE
     1 UNK         1 GROUP             0       ****    0 ROOT    
