@<TRIPOS>MOLECULE
3R207
157   159    1
SMALL
USER_CHARGES


@<TRIPOS>ATOM
      1 CA        -45.9622  -31.3575    5.3859 C.3       0 UNK        -0.1975 
      2 C         -46.8172  -30.1474    5.7304 C.2       0 UNK         0.4852 
      3 O         -46.4818  -29.4117    6.6581 O.2       0 UNK        -0.5216 
      4 N         -47.9071  -29.9326    4.9797 N.am      1 UNK        -0.4461 
      5 CA        -48.9216  -28.8709    5.1076 C.3       1 UNK         0.0864 
      6 C6        -49.6519  -28.8228    6.4752 C.3       14 UNK        -0.0898 
      7 S7        -50.3267  -30.4118    7.0551 S.3       14 UNK        -0.2598 
      8 C8        -50.8271  -29.9451    8.7461 C.3       14 UNK         0.0286 
      9 C9        -52.1380  -29.1705    8.7488 C.ar      14 UNK        -0.0844 
     10 C10       -52.1486  -27.7868    8.5431 C.ar      14 UNK        -0.0881 
     11 C11       -53.3549  -27.0806    8.5055 C.ar      14 UNK        -0.0643 
     12 C12       -54.5558  -27.7663    8.7104 C.ar      14 UNK        -0.0930 
     13 C13       -54.5576  -29.1466    8.9304 C.ar      14 UNK        -0.0827 
     14 C14       -53.3467  -29.8441    8.9446 C.ar      14 UNK        -0.1249 
     15 C15       -55.8717  -29.8853    9.1301 C.3       14 UNK         0.0141 
     16 S16       -56.5144  -29.6670   10.8162 S.3       14 UNK        -0.2313 
     17 C17       -55.2983  -30.6207   11.7848 C.3       14 UNK        -0.0915 
     18 CA        -55.7374  -30.7779   13.2611 C.3       13 UNK         0.0968 
     19 C         -54.7854  -31.7328   14.0293 C.2       13 UNK         0.5732 
     20 N         -55.0381  -33.0334   13.9750 N.am      13 UNK        -0.7310 
     21 O         -53.8034  -31.3135   14.6392 O.2       13 UNK        -0.5035 
     22 N         -55.8536  -29.4704   13.9166 N.am      13 UNK        -0.4233 
     23 C         -56.5582  -29.2249   15.0257 C.2       13 UNK         0.4989 
     24 O         -57.2383  -30.0762   15.6015 O.2       13 UNK        -0.4996 
     25 CA        -56.5107  -27.7949   15.5949 C.3       12 UNK         0.0216 
     26 CB        -56.0842  -27.8059   17.0736 C.3       12 UNK        -0.1964 
     27 N         -55.6140  -26.9036   14.8495 N.am      12 UNK        -0.4276 
     28 C         -55.9825  -26.1272   13.8176 C.2       12 UNK         0.5020 
     29 O         -57.1177  -26.1446   13.3387 O.2       12 UNK        -0.5489 
     30 CA        -54.9196  -25.1768   13.2130 C.3       11 UNK         0.0294 
     31 CB        -55.5384  -23.8859   12.6391 C.3       11 UNK        -0.2019 
     32 N         -53.8133  -24.8527   14.1227 N.am      11 UNK        -0.4493 
     33 C         -53.8877  -24.3270   15.3564 C.2       11 UNK         0.4932 
     34 O         -54.9257  -23.8866   15.8528 O.2       11 UNK        -0.5029 
     35 CA        -52.5909  -24.3478   16.1946 C.3       10 UNK         0.0280 
     36 CB        -52.8727  -24.4176   17.7099 C.3       10 UNK        -0.1976 
     37 N         -51.6498  -25.4093   15.8060 N.am      10 UNK        -0.4242 
     38 C         -51.8791  -26.7323   15.7417 C.2       10 UNK         0.5072 
     39 O         -52.9565  -27.2452   16.0459 O.2       10 UNK        -0.5224 
     40 CA        -50.7626  -27.6416   15.1883 C.3       9 UNK         0.0343 
     41 CB        -51.2393  -28.3532   13.9089 C.3       9 UNK        -0.2003 
     42 N         -49.5164  -26.9304   14.8930 N.am      9 UNK        -0.4272 
     43 C         -48.6141  -26.5450   15.8056 C.2       9 UNK         0.4988 
     44 O         -48.6838  -26.8295   17.0015 O.2       9 UNK        -0.5108 
     45 CA        -47.4659  -25.6480   15.3075 C.3       8 UNK         0.0248 
     46 CB        -46.3128  -26.5000   14.7545 C.3       8 UNK        -0.2001 
     47 N         -47.8943  -24.6690   14.2998 N.am      8 UNK        -0.4140 
     48 C         -48.8000  -23.7030   14.5186 C.2       8 UNK         0.5028 
     49 O         -49.3336  -23.5057   15.6096 O.2       8 UNK        -0.5428 
     50 CA        -49.2316  -22.8459   13.3181 C.3       7 UNK         0.0264 
     51 CB        -48.2019  -21.7419   13.0318 C.3       7 UNK        -0.1988 
     52 N         -49.4675  -23.6343   12.1074 N.am      7 UNK        -0.4454 
     53 C         -50.4148  -24.5759   11.9742 C.2       7 UNK         0.5027 
     54 O         -51.2256  -24.8641   12.8552 O.2       7 UNK        -0.5083 
     55 CA        -50.4243  -25.3656   10.6481 C.3       6 UNK         0.0844 
     56 C56       -51.0886  -24.5566    9.5078 C.3       14 UNK        -0.0967 
     57 S57       -52.9108  -24.5675    9.6223 S.3       14 UNK        -0.2604 
     58 C58       -53.3741  -25.5906    8.1908 C.3       14 UNK         0.0134 
     59 N         -49.0819  -25.8283   10.2833 N.am      6 UNK        -0.4116 
     60 C         -48.3224  -26.6372   11.0373 C.2       5 UNK         0.5034 
     61 O         -48.7035  -27.1651   12.0812 O.2       5 UNK        -0.5045 
     62 CA        -46.8693  -26.8399   10.5850 C.3       5 UNK         0.0224 
     63 CB        -46.7683  -27.9518    9.5329 C.3       5 UNK        -0.1978 
     64 N         -46.2814  -25.6028   10.0655 N.am      5 UNK        -0.4737 
     65 C         -45.9655  -24.5477   10.8297 C.2       4 UNK         0.5027 
     66 O         -46.0891  -24.5324   12.0533 O.2       4 UNK        -0.5211 
     67 CA        -45.4713  -23.2846   10.1049 C.3       4 UNK         0.0297 
     68 CB        -43.9645  -23.3815    9.8193 C.3       4 UNK        -0.1993 
     69 N         -46.1937  -23.0263    8.8566 N.am      4 UNK        -0.4486 
     70 C         -47.5006  -22.7353    8.7797 C.2       3 UNK         0.4961 
     71 O         -48.2318  -22.6066    9.7603 O.2       3 UNK        -0.5105 
     72 CA        -48.1075  -22.6242    7.3696 C.3       3 UNK         0.0299 
     73 CB        -47.9821  -21.1872    6.8405 C.3       3 UNK        -0.1972 
     74 N         -47.5149  -23.5607    6.4073 N.am      3 UNK        -0.4305 
     75 C         -47.5595  -24.8947    6.5246 C.2       2 UNK         0.5006 
     76 O         -48.1187  -25.4785    7.4586 O.2       2 UNK        -0.5106 
     77 CA        -46.7859  -25.6961    5.4638 C.3       2 UNK         0.0296 
     78 CB        -45.2897  -25.7382    5.8176 C.3       2 UNK        -0.2002 
     79 N         -47.2832  -27.0668    5.3924 N.am      2 UNK        -0.4032 
     80 C         -48.4033  -27.4551    4.7745 C.2       1 UNK         0.5000 
     81 O         -49.0430  -26.7384    4.0020 O.2       1 UNK        -0.5238 
     82 H82       -46.3676  -31.9189    4.5444 H         1 UNK         0.0889 
     83 H83       -45.9018  -32.0274    6.2431 H         1 UNK         0.0889 
     84 H84       -44.9517  -31.0411    5.1285 H         1 UNK         0.0889 
     85 H85       -48.0884  -30.5773    4.2228 H         1 UNK         0.3028 
     86 H86       -49.6725  -29.1071    4.3517 H         1 UNK         0.0864 
     87 H87       -48.9910  -28.4362    7.2516 H         1 UNK         0.0720 
     88 H88       -50.4826  -28.1201    6.4021 H         1 UNK         0.0720 
     89 H89       -50.9310  -30.8529    9.3423 H         1 UNK         0.0814 
     90 H90       -50.0394  -29.3608    9.2250 H         1 UNK         0.0814 
     91 H91       -51.2168  -27.2627    8.3898 H         1 UNK         0.1469 
     92 H92       -55.4941  -27.2290    8.6872 H         1 UNK         0.1381 
     93 H93       -53.3453  -30.9140    9.1026 H         1 UNK         0.1206 
     94 H94       -55.7574  -30.9493    8.9167 H         1 UNK         0.0813 
     95 H95       -56.6105  -29.5111    8.4200 H         1 UNK         0.0813 
     96 H96       -54.3275  -30.1253   11.7226 H         1 UNK         0.0638 
     97 H97       -55.1812  -31.5983   11.3132 H         1 UNK         0.0638 
     98 H98       -56.7289  -31.2358   13.2655 H         1 UNK         0.0568 
     99 H99       -55.8336  -33.3907   13.4692 H         1 UNK         0.3450 
    100 H100      -54.4229  -33.6707   14.4559 H         1 UNK         0.3450 
    101 H101      -55.3130  -28.7208   13.5155 H         1 UNK         0.2987 
    102 H102      -57.5275  -27.3995   15.5470 H         1 UNK         0.0766 
    103 H103      -56.0260  -26.7951   17.4784 H         1 UNK         0.0798 
    104 H104      -55.1107  -28.2782   17.2095 H         1 UNK         0.0798 
    105 H105      -56.8000  -28.3580   17.6839 H         1 UNK         0.0798 
    106 H106      -54.6549  -26.8582   15.1887 H         1 UNK         0.3198 
    107 H107      -54.4709  -25.7223   12.3810 H         1 UNK         0.0843 
    108 H108      -54.7762  -23.2484   12.1910 H         1 UNK         0.0831 
    109 H109      -56.0529  -23.3085   13.4077 H         1 UNK         0.0831 
    110 H110      -56.2657  -24.1124   11.8586 H         1 UNK         0.0831 
    111 H111      -52.8842  -25.0928   13.7806 H         1 UNK         0.3133 
    112 H112      -52.0849  -23.4033   15.9915 H         1 UNK         0.0566 
    113 H113      -51.9467  -24.4180   18.2848 H         1 UNK         0.0814 
    114 H114      -53.4573  -23.5587   18.0419 H         1 UNK         0.0814 
    115 H115      -53.4331  -25.3151   17.9745 H         1 UNK         0.0814 
    116 H116      -50.7391  -25.0731   15.5142 H         1 UNK         0.3091 
    117 H117      -50.5600  -28.4018   15.9453 H         1 UNK         0.0702 
    118 H118      -50.4774  -29.0321   13.5257 H         1 UNK         0.0785 
    119 H119      -51.4794  -27.6421   13.1174 H         1 UNK         0.0785 
    120 H120      -52.1346  -28.9477   14.0979 H         1 UNK         0.0785 
    121 H121      -49.3431  -26.7134   13.9156 H         1 UNK         0.2998 
    122 H122      -47.0904  -25.0876   16.1661 H         1 UNK         0.0697 
    123 H123      -46.6229  -27.0857   13.8893 H         1 UNK         0.0825 
    124 H124      -45.9492  -27.1999   15.5080 H         1 UNK         0.0825 
    125 H125      -45.4683  -25.8793   14.4543 H         1 UNK         0.0825 
    126 H126      -47.4424  -24.7204   13.3896 H         1 UNK         0.3029 
    127 H127      -50.1766  -22.3662   13.5820 H         1 UNK         0.0897 
    128 H128      -48.5381  -21.0855   12.2288 H         1 UNK         0.0792 
    129 H129      -48.0411  -21.1203   13.9136 H         1 UNK         0.0792 
    130 H130      -47.2352  -22.1540   12.7423 H         1 UNK         0.0792 
    131 H131      -48.8830  -23.4147   11.3029 H         1 UNK         0.3086 
    132 H132      -51.0151  -26.2687   10.8165 H         1 UNK         0.0583 
    133 H133      -50.7476  -23.5197    9.5026 H         1 UNK         0.1020 
    134 H134      -50.7890  -24.9549    8.5377 H         1 UNK         0.1020 
    135 H135      -54.3743  -25.2919    7.8732 H         1 UNK         0.0694 
    136 H136      -52.7215  -25.3777    7.3430 H         1 UNK         0.0694 
    137 H137      -48.6907  -25.4759    9.4159 H         1 UNK         0.2989 
    138 H138      -46.2931  -27.1508   11.4591 H         1 UNK         0.1055 
    139 H139      -47.2114  -28.8800    9.8964 H         1 UNK         0.0806 
    140 H140      -45.7303  -28.1671    9.2794 H         1 UNK         0.0806 
    141 H141      -47.2845  -27.6843    8.6127 H         1 UNK         0.0806 
    142 H142      -46.2015  -25.5195    9.0627 H         1 UNK         0.3061 
    143 H143      -45.6389  -22.4348   10.7700 H         1 UNK         0.0734 
    144 H144      -43.5827  -22.4586    9.3825 H         1 UNK         0.0832 
    145 H145      -43.4054  -23.5568   10.7397 H         1 UNK         0.0832 
    146 H146      -43.7313  -24.1994    9.1364 H         1 UNK         0.0832 
    147 H147      -45.6692  -23.1026    7.9978 H         1 UNK         0.3156 
    148 H148      -49.1697  -22.8643    7.4509 H         1 UNK         0.0589 
    149 H149      -46.9404  -20.8924    6.7076 H         1 UNK         0.0808 
    150 H150      -48.4899  -21.0707    5.8828 H         1 UNK         0.0808 
    151 H151      -48.4357  -20.4766    7.5331 H         1 UNK         0.0808 
    152 H152      -47.0332  -23.1562    5.6165 H         1 UNK         0.3098 
    153 H153      -46.9129  -25.2169    4.4908 H         1 UNK         0.0720 
    154 H154      -44.7252  -26.3004    5.0734 H         1 UNK         0.0791 
    155 H155      -45.1166  -26.2063    6.7879 H         1 UNK         0.0791 
    156 H156      -44.8615  -24.7358    5.8548 H         1 UNK         0.0791 
    157 H157      -46.8541  -27.7471    6.0172 H         1 UNK         0.3028 
@<TRIPOS>BOND
     1    1    2 1    
     2    1   82 1    
     3    1   83 1    
     4    1   84 1    
     5    2    3 2    
     6    2    4 am   BACKBONE|DICT|INTERRES
     7    4    5 1    
     8    4   85 1    
     9    5    6 1    
    10    5   80 1    
    11    5   86 1    
    12    6    7 1    
    13    6   87 1    
    14    6   88 1    
    15    7    8 1    
    16    8    9 1    
    17    8   89 1    
    18    8   90 1    
    19    9   10 ar   
    20    9   14 ar   
    21   10   11 ar   
    22   10   91 1    
    23   11   12 ar   
    24   11   58 1    
    25   12   13 ar   
    26   12   92 1    
    27   13   14 ar   
    28   13   15 1    
    29   14   93 1    
    30   15   16 1    
    31   15   94 1    
    32   15   95 1    
    33   16   17 1    
    34   17   18 1    
    35   17   96 1    
    36   17   97 1    
    37   18   19 1    
    38   18   22 1    
    39   18   98 1    
    40   19   20 am   BACKBONE|DICT|INTERRES
    41   19   21 2    
    42   20   99 1    
    43   20  100 1    
    44   22   23 am   BACKBONE|DICT|INTERRES
    45   22  101 1    
    46   23   24 2    
    47   23   25 1    
    48   25   26 1    
    49   25   27 1    
    50   25  102 1    
    51   26  103 1    
    52   26  104 1    
    53   26  105 1    
    54   27   28 am   BACKBONE|DICT|INTERRES
    55   27  106 1    
    56   28   29 2    
    57   28   30 1    
    58   30   31 1    
    59   30   32 1    
    60   30  107 1    
    61   31  108 1    
    62   31  109 1    
    63   31  110 1    
    64   32   33 am   BACKBONE|DICT|INTERRES
    65   32  111 1    
    66   33   34 2    
    67   33   35 1    
    68   35   36 1    
    69   35   37 1    
    70   35  112 1    
    71   36  113 1    
    72   36  114 1    
    73   36  115 1    
    74   37   38 am   BACKBONE|DICT|INTERRES
    75   37  116 1    
    76   38   39 2    
    77   38   40 1    
    78   40   41 1    
    79   40   42 1    
    80   40  117 1    
    81   41  118 1    
    82   41  119 1    
    83   41  120 1    
    84   42   43 am   BACKBONE|DICT|INTERRES
    85   42  121 1    
    86   43   44 2    
    87   43   45 1    
    88   45   46 1    
    89   45   47 1    
    90   45  122 1    
    91   46  123 1    
    92   46  124 1    
    93   46  125 1    
    94   47   48 am   BACKBONE|DICT|INTERRES
    95   47  126 1    
    96   48   49 2    
    97   48   50 1    
    98   50   51 1    
    99   50   52 1    
   100   50  127 1    
   101   51  128 1    
   102   51  129 1    
   103   51  130 1    
   104   52   53 am   BACKBONE|DICT|INTERRES
   105   52  131 1    
   106   53   54 2    
   107   53   55 1    
   108   55   56 1    
   109   55   59 1    
   110   55  132 1    
   111   56   57 1    
   112   56  133 1    
   113   56  134 1    
   114   57   58 1    
   115   58  135 1    
   116   58  136 1    
   117   59   60 am   BACKBONE|DICT|INTERRES
   118   59  137 1    
   119   60   61 2    
   120   60   62 1    
   121   62   63 1    
   122   62   64 1    
   123   62  138 1    
   124   63  139 1    
   125   63  140 1    
   126   63  141 1    
   127   64   65 am   BACKBONE|DICT|INTERRES
   128   64  142 1    
   129   65   66 2    
   130   65   67 1    
   131   67   68 1    
   132   67   69 1    
   133   67  143 1    
   134   68  144 1    
   135   68  145 1    
   136   68  146 1    
   137   69   70 am   BACKBONE|DICT|INTERRES
   138   69  147 1    
   139   70   71 2    
   140   70   72 1    
   141   72   73 1    
   142   72   74 1    
   143   72  148 1    
   144   73  149 1    
   145   73  150 1    
   146   73  151 1    
   147   74   75 am   BACKBONE|DICT|INTERRES
   148   74  152 1    
   149   75   76 2    
   150   75   77 1    
   151   77   78 1    
   152   77   79 1    
   153   77  153 1    
   154   78  154 1    
   155   78  155 1    
   156   78  156 1    
   157   79   80 am   BACKBONE|DICT|INTERRES
   158   79  157 1    
   159   80   81 2    
@<TRIPOS>SUBSTRUCTURE
     1 UNK         1 GROUP             0       ****    0 ROOT    
