@<TRIPOS>MOLECULE
3R207
157   159    1
SMALL
USER_CHARGES


@<TRIPOS>ATOM
      1 CA        -48.0597  -32.4276    4.6658 C.3       0 UNK        -0.1975 
      2 C         -48.2938  -30.9839    4.2464 C.2       0 UNK         0.4852 
      3 O         -47.5646  -30.4674    3.3989 O.2       0 UNK        -0.5216 
      4 N         -49.3059  -30.3306    4.8332 N.am      1 UNK        -0.4461 
      5 CA        -49.6909  -28.9403    4.5510 C.3       1 UNK         0.0864 
      6 C6        -51.0734  -28.5940    5.1538 C.3       14 UNK        -0.0898 
      7 S7        -52.4077  -29.6693    4.5326 S.3       14 UNK        -0.2598 
      8 C8        -53.8345  -29.0215    5.4602 C.3       14 UNK         0.0286 
      9 C9        -53.7638  -29.3826    6.9374 C.ar      14 UNK        -0.0844 
     10 C10       -53.2738  -28.4627    7.8695 C.ar      14 UNK        -0.0881 
     11 C11       -53.2072  -28.7923    9.2265 C.ar      14 UNK        -0.0643 
     12 C12       -53.6378  -30.0526    9.6502 C.ar      14 UNK        -0.0930 
     13 C13       -54.1710  -30.9637    8.7339 C.ar      14 UNK        -0.0827 
     14 C14       -54.2154  -30.6300    7.3769 C.ar      14 UNK        -0.1249 
     15 C15       -54.7325  -32.2954    9.2080 C.3       14 UNK         0.0141 
     16 S16       -56.5564  -32.2920    9.1859 S.3       14 UNK        -0.2313 
     17 C17       -56.9765  -31.3295   10.6817 C.3       14 UNK        -0.0915 
     18 CA        -57.1134  -29.7927   10.4573 C.3       13 UNK         0.0968 
     19 C         -58.3079  -29.4158    9.5443 C.2       13 UNK         0.5732 
     20 N         -58.1054  -29.3748    8.2350 N.am      13 UNK        -0.7310 
     21 O         -59.4170  -29.1634   10.0143 O.2       13 UNK        -0.5035 
     22 N         -57.2218  -29.0548   11.7214 N.am      13 UNK        -0.4233 
     23 C         -56.2645  -28.9300   12.6448 C.2       13 UNK         0.4989 
     24 O         -55.1530  -29.4562   12.5550 O.2       13 UNK        -0.4996 
     25 CA        -56.6221  -28.1008   13.8931 C.3       12 UNK         0.0216 
     26 CB        -57.7233  -28.7925   14.7175 C.3       12 UNK        -0.1964 
     27 N         -55.4412  -27.9334   14.7415 N.am      12 UNK        -0.4276 
     28 C         -54.5250  -26.9695   14.6014 C.2       12 UNK         0.5020 
     29 O         -54.6505  -25.9896   13.8619 O.2       12 UNK        -0.5489 
     30 CA        -53.2154  -27.1961   15.3702 C.3       11 UNK         0.0294 
     31 CB        -52.2427  -28.0215   14.5115 C.3       11 UNK        -0.2019 
     32 N         -52.5662  -25.9426   15.7464 N.am      11 UNK        -0.4493 
     33 C         -52.9071  -25.1842   16.7957 C.2       11 UNK         0.4932 
     34 O         -53.8614  -25.4260   17.5376 O.2       11 UNK        -0.5029 
     35 CA        -51.9766  -23.9867   17.0797 C.3       10 UNK         0.0280 
     36 CB        -52.2801  -23.2712   18.4130 C.3       10 UNK        -0.1976 
     37 N         -50.5639  -24.3803   16.9891 N.am      10 UNK        -0.4242 
     38 C         -49.9207  -25.2966   17.7305 C.2       10 UNK         0.5072 
     39 O         -50.3912  -25.8266   18.7380 O.2       10 UNK        -0.5224 
     40 CA        -48.5282  -25.7419   17.2461 C.3       9 UNK         0.0343 
     41 CB        -48.6315  -27.0979   16.5288 C.3       9 UNK        -0.2003 
     42 N         -47.8802  -24.7830   16.3482 N.am      9 UNK        -0.4272 
     43 C         -47.3095  -23.6385   16.7486 C.2       9 UNK         0.4988 
     44 O         -47.2354  -23.2838   17.9257 O.2       9 UNK        -0.5108 
     45 CA        -46.7356  -22.7280   15.6495 C.3       8 UNK         0.0248 
     46 CB        -45.3454  -23.2170   15.2126 C.3       8 UNK        -0.2001 
     47 N         -47.6129  -22.6132   14.4803 N.am      8 UNK        -0.4140 
     48 C         -48.8385  -22.0675   14.5030 C.2       8 UNK         0.5028 
     49 O         -49.3521  -21.5734   15.5069 O.2       8 UNK        -0.5428 
     50 CA        -49.6465  -22.1031   13.1963 C.3       7 UNK         0.0264 
     51 CB        -49.1971  -20.9822   12.2456 C.3       7 UNK        -0.1988 
     52 N         -49.5742  -23.3945   12.5101 N.am      7 UNK        -0.4454 
     53 C         -50.0322  -24.5523   13.0104 C.2       7 UNK         0.5027 
     54 O         -50.5887  -24.6573   14.1028 O.2       7 UNK        -0.5083 
     55 CA        -49.8127  -25.8185   12.1600 C.3       6 UNK         0.0844 
     56 C56       -50.8544  -25.8585   11.0168 C.3       14 UNK        -0.0967 
     57 S57       -50.9440  -27.4605   10.1511 S.3       14 UNK        -0.2604 
     58 C58       -52.7395  -27.7571   10.2368 C.3       14 UNK         0.0134 
     59 N         -48.4256  -25.9220   11.6933 N.am      6 UNK        -0.4116 
     60 C         -47.3498  -25.9365   12.4980 C.2       5 UNK         0.5034 
     61 O         -47.4058  -25.9524   13.7276 O.2       5 UNK        -0.5045 
     62 CA        -45.9751  -25.8423   11.8232 C.3       5 UNK         0.0224 
     63 CB        -45.5010  -27.2188   11.3310 C.3       5 UNK        -0.1978 
     64 N         -45.9845  -24.8783   10.7208 N.am      5 UNK        -0.4737 
     65 C         -46.0659  -23.5503   10.8892 C.2       4 UNK         0.5027 
     66 O         -46.0943  -23.0034   11.9912 O.2       4 UNK        -0.5211 
     67 CA        -46.1740  -22.6903    9.6184 C.3       4 UNK         0.0297 
     68 CB        -44.7804  -22.4157    9.0323 C.3       4 UNK        -0.1993 
     69 N         -47.0291  -23.2956    8.5945 N.am      4 UNK        -0.4486 
     70 C         -48.3476  -23.4945    8.7324 C.2       3 UNK         0.4961 
     71 O         -48.9932  -23.1361    9.7165 O.2       3 UNK        -0.5105 
     72 CA        -49.0599  -24.2663    7.6073 C.3       3 UNK         0.0299 
     73 CB        -49.5444  -23.3011    6.5148 C.3       3 UNK        -0.1972 
     74 N         -48.2537  -25.3304    6.9983 N.am      3 UNK        -0.4305 
     75 C         -47.6835  -26.3501    7.6544 C.2       2 UNK         0.5006 
     76 O         -47.7333  -26.4876    8.8773 O.2       2 UNK        -0.5106 
     77 CA        -46.9505  -27.3918    6.7907 C.3       2 UNK         0.0296 
     78 CB        -45.9846  -28.2628    7.6152 C.3       2 UNK        -0.2002 
     79 N         -47.9090  -28.2605    6.1090 N.am      2 UNK        -0.4032 
     80 C         -48.6473  -27.9159    5.0439 C.2       1 UNK         0.5000 
     81 O         -48.5452  -26.8290    4.4696 O.2       1 UNK        -0.5238 
     82 H82       -48.7788  -32.7565    5.4160 H         1 UNK         0.0889 
     83 H83       -47.0592  -32.5397    5.0827 H         1 UNK         0.0889 
     84 H84       -48.1454  -33.0872    3.8027 H         1 UNK         0.0889 
     85 H85       -49.8945  -30.8169    5.4952 H         1 UNK         0.3028 
     86 H86       -49.7553  -28.8290    3.4662 H         1 UNK         0.0864 
     87 H87       -51.0362  -28.6734    6.2416 H         1 UNK         0.0720 
     88 H88       -51.3442  -27.5605    4.9269 H         1 UNK         0.0720 
     89 H89       -54.7492  -29.4309    5.0286 H         1 UNK         0.0814 
     90 H90       -53.8967  -27.9401    5.3290 H         1 UNK         0.0814 
     91 H91       -52.9441  -27.4860    7.5422 H         1 UNK         0.1469 
     92 H92       -53.6042  -30.3059   10.7007 H         1 UNK         0.1381 
     93 H93       -54.6187  -31.3366    6.6641 H         1 UNK         0.1206 
     94 H94       -54.3745  -33.0890    8.5507 H         1 UNK         0.0813 
     95 H95       -54.3726  -32.5425   10.2080 H         1 UNK         0.0813 
     96 H96       -56.2145  -31.5447   11.4305 H         1 UNK         0.0638 
     97 H97       -57.9056  -31.7297   11.0911 H         1 UNK         0.0638 
     98 H98       -56.2148  -29.4223    9.9662 H         1 UNK         0.0568 
     99 H99       -58.8712  -29.1349    7.6257 H         1 UNK         0.3450 
    100 H100      -57.2051  -29.6098    7.8468 H         1 UNK         0.3450 
    101 H101      -58.1162  -28.6011   11.8548 H         1 UNK         0.2987 
    102 H102      -56.9827  -27.1226   13.5675 H         1 UNK         0.0766 
    103 H103      -57.9547  -28.2272   15.6207 H         1 UNK         0.0798 
    104 H104      -57.4313  -29.7994   15.0192 H         1 UNK         0.0798 
    105 H105      -58.6507  -28.8790   14.1501 H         1 UNK         0.0798 
    106 H106      -55.2105  -28.7240   15.3261 H         1 UNK         0.3198 
    107 H107      -53.4322  -27.7558   16.2831 H         1 UNK         0.0843 
    108 H108      -52.6700  -28.9935   14.2604 H         1 UNK         0.0831 
    109 H109      -51.3038  -28.2063   15.0328 H         1 UNK         0.0831 
    110 H110      -52.0178  -27.5193   13.5709 H         1 UNK         0.0831 
    111 H111      -51.8163  -25.6092   15.1447 H         1 UNK         0.3133 
    112 H112      -52.1432  -23.2694   16.2746 H         1 UNK         0.0566 
    113 H113      -51.6040  -22.4314   18.5733 H         1 UNK         0.0814 
    114 H114      -53.2964  -22.8757   18.4183 H         1 UNK         0.0814 
    115 H115      -52.1904  -23.9429   19.2671 H         1 UNK         0.0814 
    116 H116      -50.0908  -24.0558   16.1543 H         1 UNK         0.3091 
    117 H117      -47.8987  -25.8704   18.1291 H         1 UNK         0.0702 
    118 H118      -47.6470  -27.4757   16.2523 H         1 UNK         0.0785 
    119 H119      -49.2271  -27.0232   15.6181 H         1 UNK         0.0785 
    120 H120      -49.1002  -27.8478   17.1674 H         1 UNK         0.0785 
    121 H121      -47.8424  -25.0356   15.3634 H         1 UNK         0.2998 
    122 H122      -46.6235  -21.7286   16.0749 H         1 UNK         0.0697 
    123 H123      -45.3920  -24.2015   14.7463 H         1 UNK         0.0825 
    124 H124      -44.6705  -23.2909   16.0663 H         1 UNK         0.0825 
    125 H125      -44.8903  -22.5306   14.4983 H         1 UNK         0.0825 
    126 H126      -47.2386  -22.9430   13.5944 H         1 UNK         0.3029 
    127 H127      -50.6934  -21.9286   13.4542 H         1 UNK         0.0897 
    128 H128      -49.8263  -20.9418   11.3562 H         1 UNK         0.0792 
    129 H129      -49.2602  -20.0079   12.7321 H         1 UNK         0.0792 
    130 H130      -48.1660  -21.1186   11.9181 H         1 UNK         0.0792 
    131 H131      -49.1833  -23.3858   11.5699 H         1 UNK         0.3086 
    132 H132      -49.9851  -26.6763   12.8120 H         1 UNK         0.0583 
    133 H133      -51.8442  -25.6254   11.4160 H         1 UNK         0.1020 
    134 H134      -50.6506  -25.0832   10.2790 H         1 UNK         0.1020 
    135 H135      -53.0052  -28.0565   11.2522 H         1 UNK         0.0694 
    136 H136      -53.2758  -26.8272   10.0417 H         1 UNK         0.0694 
    137 H137      -48.2798  -25.9694   10.6886 H         1 UNK         0.2989 
    138 H138      -45.2620  -25.4905   12.5722 H         1 UNK         0.1055 
    139 H139      -45.4016  -27.9127   12.1668 H         1 UNK         0.0806 
    140 H140      -44.5271  -27.1551   10.8458 H         1 UNK         0.0806 
    141 H141      -46.2010  -27.6656   10.6255 H         1 UNK         0.0806 
    142 H142      -46.0642  -25.2578    9.7871 H         1 UNK         0.3061 
    143 H143      -46.6183  -21.7342    9.9035 H         1 UNK         0.0734 
    144 H144      -44.1328  -21.9465    9.7744 H         1 UNK         0.0832 
    145 H145      -44.2887  -23.3327    8.7052 H         1 UNK         0.0832 
    146 H146      -44.8343  -21.7393    8.1791 H         1 UNK         0.0832 
    147 H147      -46.5815  -23.6201    7.7497 H         1 UNK         0.3156 
    148 H148      -49.9370  -24.7458    8.0449 H         1 UNK         0.0589 
    149 H149      -48.7112  -22.8171    6.0037 H         1 UNK         0.0808 
    150 H150      -50.1436  -23.8185    5.7652 H         1 UNK         0.0808 
    151 H151      -50.1691  -22.5135    6.9390 H         1 UNK         0.0808 
    152 H152      -48.2164  -25.3537    5.9851 H         1 UNK         0.3098 
    153 H153      -46.3614  -26.8560    6.0432 H         1 UNK         0.0720 
    154 H154      -45.4307  -28.9519    6.9774 H         1 UNK         0.0791 
    155 H155      -46.5102  -28.8523    8.3676 H         1 UNK         0.0791 
    156 H156      -45.2516  -27.6459    8.1366 H         1 UNK         0.0791 
    157 H157      -48.0780  -29.1628    6.5288 H         1 UNK         0.3028 
@<TRIPOS>BOND
     1    1    2 1    
     2    1   82 1    
     3    1   83 1    
     4    1   84 1    
     5    2    3 2    
     6    2    4 am   BACKBONE|DICT|INTERRES
     7    4    5 1    
     8    4   85 1    
     9    5    6 1    
    10    5   80 1    
    11    5   86 1    
    12    6    7 1    
    13    6   87 1    
    14    6   88 1    
    15    7    8 1    
    16    8    9 1    
    17    8   89 1    
    18    8   90 1    
    19    9   10 ar   
    20    9   14 ar   
    21   10   11 ar   
    22   10   91 1    
    23   11   12 ar   
    24   11   58 1    
    25   12   13 ar   
    26   12   92 1    
    27   13   14 ar   
    28   13   15 1    
    29   14   93 1    
    30   15   16 1    
    31   15   94 1    
    32   15   95 1    
    33   16   17 1    
    34   17   18 1    
    35   17   96 1    
    36   17   97 1    
    37   18   19 1    
    38   18   22 1    
    39   18   98 1    
    40   19   20 am   BACKBONE|DICT|INTERRES
    41   19   21 2    
    42   20   99 1    
    43   20  100 1    
    44   22   23 am   BACKBONE|DICT|INTERRES
    45   22  101 1    
    46   23   24 2    
    47   23   25 1    
    48   25   26 1    
    49   25   27 1    
    50   25  102 1    
    51   26  103 1    
    52   26  104 1    
    53   26  105 1    
    54   27   28 am   BACKBONE|DICT|INTERRES
    55   27  106 1    
    56   28   29 2    
    57   28   30 1    
    58   30   31 1    
    59   30   32 1    
    60   30  107 1    
    61   31  108 1    
    62   31  109 1    
    63   31  110 1    
    64   32   33 am   BACKBONE|DICT|INTERRES
    65   32  111 1    
    66   33   34 2    
    67   33   35 1    
    68   35   36 1    
    69   35   37 1    
    70   35  112 1    
    71   36  113 1    
    72   36  114 1    
    73   36  115 1    
    74   37   38 am   BACKBONE|DICT|INTERRES
    75   37  116 1    
    76   38   39 2    
    77   38   40 1    
    78   40   41 1    
    79   40   42 1    
    80   40  117 1    
    81   41  118 1    
    82   41  119 1    
    83   41  120 1    
    84   42   43 am   BACKBONE|DICT|INTERRES
    85   42  121 1    
    86   43   44 2    
    87   43   45 1    
    88   45   46 1    
    89   45   47 1    
    90   45  122 1    
    91   46  123 1    
    92   46  124 1    
    93   46  125 1    
    94   47   48 am   BACKBONE|DICT|INTERRES
    95   47  126 1    
    96   48   49 2    
    97   48   50 1    
    98   50   51 1    
    99   50   52 1    
   100   50  127 1    
   101   51  128 1    
   102   51  129 1    
   103   51  130 1    
   104   52   53 am   BACKBONE|DICT|INTERRES
   105   52  131 1    
   106   53   54 2    
   107   53   55 1    
   108   55   56 1    
   109   55   59 1    
   110   55  132 1    
   111   56   57 1    
   112   56  133 1    
   113   56  134 1    
   114   57   58 1    
   115   58  135 1    
   116   58  136 1    
   117   59   60 am   BACKBONE|DICT|INTERRES
   118   59  137 1    
   119   60   61 2    
   120   60   62 1    
   121   62   63 1    
   122   62   64 1    
   123   62  138 1    
   124   63  139 1    
   125   63  140 1    
   126   63  141 1    
   127   64   65 am   BACKBONE|DICT|INTERRES
   128   64  142 1    
   129   65   66 2    
   130   65   67 1    
   131   67   68 1    
   132   67   69 1    
   133   67  143 1    
   134   68  144 1    
   135   68  145 1    
   136   68  146 1    
   137   69   70 am   BACKBONE|DICT|INTERRES
   138   69  147 1    
   139   70   71 2    
   140   70   72 1    
   141   72   73 1    
   142   72   74 1    
   143   72  148 1    
   144   73  149 1    
   145   73  150 1    
   146   73  151 1    
   147   74   75 am   BACKBONE|DICT|INTERRES
   148   74  152 1    
   149   75   76 2    
   150   75   77 1    
   151   77   78 1    
   152   77   79 1    
   153   77  153 1    
   154   78  154 1    
   155   78  155 1    
   156   78  156 1    
   157   79   80 am   BACKBONE|DICT|INTERRES
   158   79  157 1    
   159   80   81 2    
@<TRIPOS>SUBSTRUCTURE
     1 UNK         1 GROUP             0       ****    0 ROOT    
