@<TRIPOS>MOLECULE
3R207
157   159    1
SMALL
USER_CHARGES


@<TRIPOS>ATOM
      1 CA        -48.8865  -31.4326    5.9879 C.3       0 UNK        -0.1975 
      2 C         -49.6570  -30.7617    7.1222 C.2       0 UNK         0.4852 
      3 O         -49.5701  -31.2195    8.2591 O.2       0 UNK        -0.5216 
      4 N         -50.4158  -29.6838    6.8718 N.am      1 UNK        -0.4461 
      5 CA        -50.6058  -29.0110    5.5753 C.3       1 UNK         0.0864 
      6 C6        -51.9239  -28.1995    5.5342 C.3       14 UNK        -0.0898 
      7 S7        -53.3850  -29.2617    5.7762 S.3       14 UNK        -0.2598 
      8 C8        -54.1600  -28.5112    7.2414 C.3       14 UNK         0.0286 
      9 C9        -53.3164  -28.6697    8.5006 C.ar      14 UNK        -0.0844 
     10 C10       -52.7153  -27.5575    9.1001 C.ar      14 UNK        -0.0881 
     11 C11       -51.9665  -27.6951   10.2794 C.ar      14 UNK        -0.0643 
     12 C12       -51.8292  -28.9662   10.8453 C.ar      14 UNK        -0.0930 
     13 C13       -52.4139  -30.0868   10.2509 C.ar      14 UNK        -0.0827 
     14 C14       -53.1589  -29.9306    9.0797 C.ar      14 UNK        -0.1249 
     15 C15       -52.1958  -31.4716   10.8451 C.3       14 UNK         0.0141 
     16 S16       -53.7487  -32.3001   11.3128 S.3       14 UNK        -0.2313 
     17 C17       -54.2273  -31.4273   12.8417 C.3       14 UNK        -0.0915 
     18 CA        -55.6360  -30.7879   12.7162 C.3       13 UNK         0.0968 
     19 C         -56.2771  -30.4904   14.1050 C.2       13 UNK         0.5732 
     20 N         -56.7553  -29.2856   14.3947 N.am      13 UNK        -0.7310 
     21 O         -56.3689  -31.3881   14.9391 O.2       13 UNK        -0.5035 
     22 N         -55.6202  -29.6370   11.8037 N.am      13 UNK        -0.4233 
     23 C         -56.6688  -29.2209   11.0825 C.2       13 UNK         0.4989 
     24 O         -57.7365  -29.8330   11.0149 O.2       13 UNK        -0.4996 
     25 CA        -56.5006  -27.8871   10.3230 C.3       12 UNK         0.0216 
     26 CB        -57.8493  -27.2308    9.9577 C.3       12 UNK        -0.1964 
     27 N         -55.6278  -26.9263   11.0128 N.am      12 UNK        -0.4276 
     28 C         -55.7974  -26.4408   12.2505 C.2       12 UNK         0.5020 
     29 O         -56.7527  -26.7151   12.9809 O.2       12 UNK        -0.5489 
     30 CA        -54.6931  -25.5118   12.7755 C.3       11 UNK         0.0294 
     31 CB        -55.1809  -24.0556   12.8269 C.3       11 UNK        -0.2019 
     32 N         -54.2336  -25.9216   14.1045 N.am      11 UNK        -0.4493 
     33 C         -53.6521  -27.0954   14.3841 C.2       11 UNK         0.4932 
     34 O         -53.4260  -27.9725   13.5478 O.2       11 UNK        -0.5029 
     35 CA        -53.2405  -27.3284   15.8471 C.3       10 UNK         0.0280 
     36 CB        -54.0925  -28.4322   16.4924 C.3       10 UNK        -0.1976 
     37 N         -51.8279  -27.6994   15.9236 N.am      10 UNK        -0.4242 
     38 C         -50.8213  -26.8574   15.6617 C.2       10 UNK         0.5072 
     39 O         -50.9783  -25.6582   15.4244 O.2       10 UNK        -0.5224 
     40 CA        -49.4148  -27.4745   15.6155 C.3       9 UNK         0.0343 
     41 CB        -49.1991  -28.2020   14.2761 C.3       9 UNK        -0.2003 
     42 N         -48.3795  -26.4519   15.7673 N.am      9 UNK        -0.4272 
     43 C         -48.0425  -25.8615   16.9218 C.2       9 UNK         0.4988 
     44 O         -48.5174  -26.1748   18.0145 O.2       9 UNK        -0.5108 
     45 CA        -46.9986  -24.7368   16.8527 C.3       8 UNK         0.0248 
     46 CB        -45.5880  -25.3184   16.6562 C.3       8 UNK        -0.2001 
     47 N         -47.2917  -23.7986   15.7663 N.am      8 UNK        -0.4140 
     48 C         -47.5440  -22.4895   15.9194 C.2       8 UNK         0.5028 
     49 O         -47.5489  -21.9153   17.0094 O.2       8 UNK        -0.5428 
     50 CA        -47.8273  -21.6620   14.6477 C.3       7 UNK         0.0264 
     51 CB        -46.5594  -20.9178   14.1987 C.3       7 UNK        -0.1988 
     52 N         -48.3186  -22.4770   13.5360 N.am      7 UNK        -0.4454 
     53 C         -49.5450  -23.0186   13.4789 C.2       7 UNK         0.5027 
     54 O         -50.4505  -22.6999   14.2498 O.2       7 UNK        -0.5083 
     55 CA        -49.8108  -24.1066   12.4095 C.3       6 UNK         0.0844 
     56 C56       -50.9833  -23.6978   11.4800 C.3       14 UNK        -0.0967 
     57 S57       -51.4408  -24.8972   10.1744 S.3       14 UNK        -0.2604 
     58 C58       -51.2893  -26.5227   10.9949 C.3       14 UNK         0.0134 
     59 N         -48.6127  -24.5022   11.6570 N.am      6 UNK        -0.4116 
     60 C         -47.5576  -25.1569   12.1660 C.2       5 UNK         0.5034 
     61 O         -47.4548  -25.4593   13.3539 O.2       5 UNK        -0.5045 
     62 CA        -46.4001  -25.4995   11.2166 C.3       5 UNK         0.0224 
     63 CB        -46.5371  -26.9491   10.7274 C.3       5 UNK        -0.1978 
     64 N         -46.2951  -24.5967   10.0676 N.am      5 UNK        -0.4737 
     65 C         -46.0189  -23.2860   10.1435 C.2       4 UNK         0.5027 
     66 O         -45.7842  -22.6977   11.1989 O.2       4 UNK        -0.5211 
     67 CA        -46.0598  -22.4963    8.8235 C.3       4 UNK         0.0297 
     68 CB        -44.6657  -22.4525    8.1792 C.3       4 UNK        -0.1993 
     69 N         -47.0227  -23.0440    7.8623 N.am      4 UNK        -0.4486 
     70 C         -48.3494  -23.0857    8.0367 C.2       3 UNK         0.4961 
     71 O         -48.9168  -22.6173    9.0223 O.2       3 UNK        -0.5105 
     72 CA        -49.1798  -23.8142    6.9651 C.3       3 UNK         0.0299 
     73 CB        -49.3507  -22.9498    5.7009 C.3       3 UNK        -0.1972 
     74 N         -48.6929  -25.1658    6.6447 N.am      3 UNK        -0.4305 
     75 C         -47.5507  -25.5341    6.0412 C.2       2 UNK         0.5006 
     76 O         -46.6959  -24.7381    5.6501 O.2       2 UNK        -0.5106 
     77 CA        -47.2862  -27.0422    5.8784 C.3       2 UNK         0.0296 
     78 CB        -46.1730  -27.5008    6.8337 C.3       2 UNK        -0.2002 
     79 N         -48.4746  -27.8720    6.0998 N.am      2 UNK        -0.4032 
     80 C         -49.4166  -28.1092    5.1751 C.2       1 UNK         0.5000 
     81 O         -49.3735  -27.6474    4.0338 O.2       1 UNK        -0.5238 
     82 H82       -48.3327  -32.2932    6.3627 H         1 UNK         0.0889 
     83 H83       -48.1665  -30.7503    5.5382 H         1 UNK         0.0889 
     84 H84       -49.5657  -31.7917    5.2154 H         1 UNK         0.0889 
     85 H85       -50.9667  -29.3080    7.6328 H         1 UNK         0.3028 
     86 H86       -50.6798  -29.7754    4.7999 H         1 UNK         0.0864 
     87 H87       -51.9105  -27.4001    6.2768 H         1 UNK         0.0720 
     88 H88       -52.0456  -27.7087    4.5663 H         1 UNK         0.0720 
     89 H89       -55.1259  -28.9933    7.3955 H         1 UNK         0.0814 
     90 H90       -54.3730  -27.4602    7.0396 H         1 UNK         0.0814 
     91 H91       -52.8426  -26.5887    8.6395 H         1 UNK         0.1469 
     92 H92       -51.2561  -29.0826   11.7551 H         1 UNK         0.1381 
     93 H93       -53.6126  -30.7951    8.6143 H         1 UNK         0.1206 
     94 H94       -51.5344  -31.4311   11.7118 H         1 UNK         0.0813 
     95 H95       -51.6843  -32.0860   10.1027 H         1 UNK         0.0813 
     96 H96       -53.4822  -30.6734   13.1009 H         1 UNK         0.0638 
     97 H97       -54.2002  -32.1678   13.6429 H         1 UNK         0.0638 
     98 H98       -56.2896  -31.5459   12.2806 H         1 UNK         0.0568 
     99 H99       -56.7050  -28.5158   13.7346 H         1 UNK         0.3450 
    100 H100      -57.1844  -29.1393   15.2933 H         1 UNK         0.3450 
    101 H101      -54.7842  -29.0687   11.8356 H         1 UNK         0.2987 
    102 H102      -56.0005  -28.1392    9.3904 H         1 UNK         0.0766 
    103 H103      -58.4488  -27.8895    9.3281 H         1 UNK         0.0798 
    104 H104      -57.7025  -26.3033    9.4044 H         1 UNK         0.0798 
    105 H105      -58.4410  -27.0022   10.8448 H         1 UNK         0.0798 
    106 H106      -54.7899  -26.6662   10.5110 H         1 UNK         0.3198 
    107 H107      -53.8393  -25.5586   12.0990 H         1 UNK         0.0843 
    108 H108      -56.0285  -23.9379   13.5035 H         1 UNK         0.0831 
    109 H109      -55.5025  -23.7179   11.8407 H         1 UNK         0.0831 
    110 H110      -54.3897  -23.3818   13.1565 H         1 UNK         0.0831 
    111 H111      -54.3958  -25.2702   14.8584 H         1 UNK         0.3133 
    112 H112      -53.3861  -26.4077   16.4163 H         1 UNK         0.0566 
    113 H113      -53.9989  -29.3797   15.9599 H         1 UNK         0.0814 
    114 H114      -55.1478  -28.1579   16.4881 H         1 UNK         0.0814 
    115 H115      -53.8076  -28.6001   17.5311 H         1 UNK         0.0814 
    116 H116      -51.6241  -28.6780   16.0642 H         1 UNK         0.3091 
    117 H117      -49.3184  -28.1948   16.4308 H         1 UNK         0.0702 
    118 H118      -48.1982  -28.6293   14.2125 H         1 UNK         0.0785 
    119 H119      -49.3297  -27.5298   13.4273 H         1 UNK         0.0785 
    120 H120      -49.9091  -29.0208   14.1525 H         1 UNK         0.0785 
    121 H121      -47.9652  -26.1151   14.9009 H         1 UNK         0.2998 
    122 H122      -47.0170  -24.2213   17.8152 H         1 UNK         0.0697 
    123 H123      -44.8311  -24.5346   16.6879 H         1 UNK         0.0825 
    124 H124      -45.4915  -25.8369   15.7012 H         1 UNK         0.0825 
    125 H125      -45.3468  -26.0338   17.4436 H         1 UNK         0.0825 
    126 H126      -47.3373  -24.1961   14.8338 H         1 UNK         0.3029 
    127 H127      -48.5896  -20.9210   14.8990 H         1 UNK         0.0897 
    128 H128      -45.7598  -21.6090   13.9283 H         1 UNK         0.0792 
    129 H129      -46.1808  -20.2752   14.9948 H         1 UNK         0.0792 
    130 H130      -46.7570  -20.2818   13.3355 H         1 UNK         0.0792 
    131 H131      -47.6381  -22.7439   12.8363 H         1 UNK         0.3086 
    132 H132      -50.1269  -24.9837   12.9751 H         1 UNK         0.0583 
    133 H133      -51.8807  -23.5162   12.0751 H         1 UNK         0.1020 
    134 H134      -50.7593  -22.7490   10.9890 H         1 UNK         0.1020 
    135 H135      -50.2293  -26.7539   11.1047 H         1 UNK         0.0694 
    136 H136      -51.6980  -26.4533   12.0030 H         1 UNK         0.0694 
    137 H137      -48.6022  -24.2360   10.6812 H         1 UNK         0.2989 
    138 H138      -45.4762  -25.4157   11.7935 H         1 UNK         0.1055 
    139 H139      -45.6700  -27.2526   10.1408 H         1 UNK         0.0806 
    140 H140      -47.4313  -27.0898   10.1188 H         1 UNK         0.0806 
    141 H141      -46.6080  -27.6393   11.5698 H         1 UNK         0.0806 
    142 H142      -46.4687  -24.9899    9.1548 H         1 UNK         0.3061 
    143 H143      -46.3644  -21.4745    9.0596 H         1 UNK         0.0734 
    144 H144      -44.3188  -23.4474    7.8967 H         1 UNK         0.0832 
    145 H145      -44.6615  -21.8293    7.2847 H         1 UNK         0.0832 
    146 H146      -43.9306  -22.0334    8.8680 H         1 UNK         0.0832 
    147 H147      -46.6541  -23.4822    7.0202 H         1 UNK         0.3156 
    148 H148      -50.1745  -23.9587    7.3903 H         1 UNK         0.0589 
    149 H149      -49.9976  -23.4388    4.9725 H         1 UNK         0.0808 
    150 H150      -48.3988  -22.7375    5.2136 H         1 UNK         0.0808 
    151 H151      -49.8075  -21.9903    5.9471 H         1 UNK         0.0808 
    152 H152      -49.3014  -25.9110    6.9505 H         1 UNK         0.3098 
    153 H153      -46.9329  -27.1957    4.8562 H         1 UNK         0.0720 
    154 H154      -45.2658  -26.9104    6.6955 H         1 UNK         0.0791 
    155 H155      -45.9068  -28.5435    6.6590 H         1 UNK         0.0791 
    156 H156      -46.4721  -27.4026    7.8756 H         1 UNK         0.0791 
    157 H157      -48.5806  -28.2952    7.0112 H         1 UNK         0.3028 
@<TRIPOS>BOND
     1    1    2 1    
     2    1   82 1    
     3    1   83 1    
     4    1   84 1    
     5    2    3 2    
     6    2    4 am   BACKBONE|DICT|INTERRES
     7    4    5 1    
     8    4   85 1    
     9    5    6 1    
    10    5   80 1    
    11    5   86 1    
    12    6    7 1    
    13    6   87 1    
    14    6   88 1    
    15    7    8 1    
    16    8    9 1    
    17    8   89 1    
    18    8   90 1    
    19    9   10 ar   
    20    9   14 ar   
    21   10   11 ar   
    22   10   91 1    
    23   11   12 ar   
    24   11   58 1    
    25   12   13 ar   
    26   12   92 1    
    27   13   14 ar   
    28   13   15 1    
    29   14   93 1    
    30   15   16 1    
    31   15   94 1    
    32   15   95 1    
    33   16   17 1    
    34   17   18 1    
    35   17   96 1    
    36   17   97 1    
    37   18   19 1    
    38   18   22 1    
    39   18   98 1    
    40   19   20 am   BACKBONE|DICT|INTERRES
    41   19   21 2    
    42   20   99 1    
    43   20  100 1    
    44   22   23 am   BACKBONE|DICT|INTERRES
    45   22  101 1    
    46   23   24 2    
    47   23   25 1    
    48   25   26 1    
    49   25   27 1    
    50   25  102 1    
    51   26  103 1    
    52   26  104 1    
    53   26  105 1    
    54   27   28 am   BACKBONE|DICT|INTERRES
    55   27  106 1    
    56   28   29 2    
    57   28   30 1    
    58   30   31 1    
    59   30   32 1    
    60   30  107 1    
    61   31  108 1    
    62   31  109 1    
    63   31  110 1    
    64   32   33 am   BACKBONE|DICT|INTERRES
    65   32  111 1    
    66   33   34 2    
    67   33   35 1    
    68   35   36 1    
    69   35   37 1    
    70   35  112 1    
    71   36  113 1    
    72   36  114 1    
    73   36  115 1    
    74   37   38 am   BACKBONE|DICT|INTERRES
    75   37  116 1    
    76   38   39 2    
    77   38   40 1    
    78   40   41 1    
    79   40   42 1    
    80   40  117 1    
    81   41  118 1    
    82   41  119 1    
    83   41  120 1    
    84   42   43 am   BACKBONE|DICT|INTERRES
    85   42  121 1    
    86   43   44 2    
    87   43   45 1    
    88   45   46 1    
    89   45   47 1    
    90   45  122 1    
    91   46  123 1    
    92   46  124 1    
    93   46  125 1    
    94   47   48 am   BACKBONE|DICT|INTERRES
    95   47  126 1    
    96   48   49 2    
    97   48   50 1    
    98   50   51 1    
    99   50   52 1    
   100   50  127 1    
   101   51  128 1    
   102   51  129 1    
   103   51  130 1    
   104   52   53 am   BACKBONE|DICT|INTERRES
   105   52  131 1    
   106   53   54 2    
   107   53   55 1    
   108   55   56 1    
   109   55   59 1    
   110   55  132 1    
   111   56   57 1    
   112   56  133 1    
   113   56  134 1    
   114   57   58 1    
   115   58  135 1    
   116   58  136 1    
   117   59   60 am   BACKBONE|DICT|INTERRES
   118   59  137 1    
   119   60   61 2    
   120   60   62 1    
   121   62   63 1    
   122   62   64 1    
   123   62  138 1    
   124   63  139 1    
   125   63  140 1    
   126   63  141 1    
   127   64   65 am   BACKBONE|DICT|INTERRES
   128   64  142 1    
   129   65   66 2    
   130   65   67 1    
   131   67   68 1    
   132   67   69 1    
   133   67  143 1    
   134   68  144 1    
   135   68  145 1    
   136   68  146 1    
   137   69   70 am   BACKBONE|DICT|INTERRES
   138   69  147 1    
   139   70   71 2    
   140   70   72 1    
   141   72   73 1    
   142   72   74 1    
   143   72  148 1    
   144   73  149 1    
   145   73  150 1    
   146   73  151 1    
   147   74   75 am   BACKBONE|DICT|INTERRES
   148   74  152 1    
   149   75   76 2    
   150   75   77 1    
   151   77   78 1    
   152   77   79 1    
   153   77  153 1    
   154   78  154 1    
   155   78  155 1    
   156   78  156 1    
   157   79   80 am   BACKBONE|DICT|INTERRES
   158   79  157 1    
   159   80   81 2    
@<TRIPOS>SUBSTRUCTURE
     1 UNK         1 GROUP             0       ****    0 ROOT    
