@<TRIPOS>MOLECULE
3R207
157   159    1
SMALL
USER_CHARGES


@<TRIPOS>ATOM
      1 CA        -49.5426  -23.8440    2.0613 C.3       0 UNK        -0.1975 
      2 C         -49.2382  -24.4256    3.4332 C.2       0 UNK         0.4852 
      3 O         -48.1840  -25.0344    3.6171 O.2       0 UNK        -0.5216 
      4 N         -50.1401  -24.2206    4.4062 N.am      1 UNK        -0.4461 
      5 CA        -50.0756  -24.7455    5.7809 C.3       1 UNK         0.0864 
      6 C6        -50.3370  -26.2776    5.8241 C.3       14 UNK        -0.0898 
      7 S7        -51.1457  -26.8016    7.3695 S.3       14 UNK        -0.2598 
      8 C8        -51.1780  -28.6038    7.1345 C.3       14 UNK         0.0286 
      9 C9        -51.5345  -29.3237    8.4265 C.ar      14 UNK        -0.0844 
     10 C10       -50.5884  -29.4228    9.4492 C.ar      14 UNK        -0.0881 
     11 C11       -50.8783  -30.1049   10.6388 C.ar      14 UNK        -0.0643 
     12 C12       -52.1430  -30.6832   10.7910 C.ar      14 UNK        -0.0930 
     13 C13       -53.1039  -30.5841    9.7795 C.ar      14 UNK        -0.0827 
     14 C14       -52.7940  -29.9022    8.5989 C.ar      14 UNK        -0.1249 
     15 C15       -54.4743  -31.2225    9.9513 C.3       14 UNK         0.0141 
     16 S16       -55.6360  -30.1002   10.7895 S.3       14 UNK        -0.2313 
     17 C17       -55.2011  -30.3531   12.5441 C.3       14 UNK        -0.0915 
     18 CA        -56.4246  -30.1331   13.4723 C.3       13 UNK         0.0968 
     19 C         -56.1375  -30.6109   14.9212 C.2       13 UNK         0.5732 
     20 N         -56.1659  -31.9163   15.1534 N.am      13 UNK        -0.7310 
     21 O         -55.8623  -29.8285   15.8283 O.2       13 UNK        -0.5035 
     22 N         -56.8753  -28.7365   13.4276 N.am      13 UNK        -0.4233 
     23 C         -58.1356  -28.3316   13.6276 C.2       13 UNK         0.4989 
     24 O         -59.0712  -29.1015   13.8553 O.2       13 UNK        -0.4996 
     25 CA        -58.4007  -26.8143   13.5161 C.3       12 UNK         0.0216 
     26 CB        -59.7413  -26.3815   14.1502 C.3       12 UNK        -0.1964 
     27 N         -57.2844  -25.9971   14.0094 N.am      12 UNK        -0.4276 
     28 C         -56.8173  -25.9458   15.2645 C.2       12 UNK         0.5020 
     29 O         -57.3367  -26.5087   16.2309 O.2       12 UNK        -0.5489 
     30 CA        -55.5192  -25.1486   15.4667 C.3       11 UNK         0.0294 
     31 CB        -55.7129  -24.0020   16.4727 C.3       11 UNK        -0.2019 
     32 N         -54.4467  -26.0257   15.9311 N.am      11 UNK        -0.4493 
     33 C         -53.9190  -27.0388   15.2326 C.2       11 UNK         0.4932 
     34 O         -54.2533  -27.3212   14.0795 O.2       11 UNK        -0.5029 
     35 CA        -52.8138  -27.8425   15.9437 C.3       10 UNK         0.0280 
     36 CB        -52.3164  -29.0402   15.1121 C.3       10 UNK        -0.1976 
     37 N         -51.6717  -26.9880   16.2722 N.am      10 UNK        -0.4242 
     38 C         -51.5933  -26.1453   17.3117 C.2       10 UNK         0.5072 
     39 O         -52.4874  -26.0077   18.1482 O.2       10 UNK        -0.5224 
     40 CA        -50.3242  -25.2871   17.4090 C.3       9 UNK         0.0343 
     41 CB        -49.1143  -26.1369   17.8330 C.3       9 UNK        -0.2003 
     42 N         -50.0482  -24.6436   16.1249 N.am      9 UNK        -0.4272 
     43 C         -50.4594  -23.4141   15.7812 C.2       9 UNK         0.4988 
     44 O         -51.0288  -22.6395   16.5508 O.2       9 UNK        -0.5108 
     45 CA        -50.2011  -22.9697   14.3282 C.3       8 UNK         0.0248 
     46 CB        -48.8478  -22.2497   14.2181 C.3       8 UNK        -0.2001 
     47 N         -50.2422  -24.0878   13.3813 N.am      8 UNK        -0.4140 
     48 C         -51.3595  -24.7687   13.0781 C.2       8 UNK         0.5028 
     49 O         -52.4813  -24.4136   13.4390 O.2       8 UNK        -0.5428 
     50 CA        -51.2193  -26.0731   12.2668 C.3       7 UNK         0.0264 
     51 CB        -51.7354  -25.8831   10.8336 C.3       7 UNK        -0.1988 
     52 N         -49.8615  -26.6256   12.2187 N.am      7 UNK        -0.4454 
     53 C         -49.1484  -27.0421   13.2760 C.2       7 UNK         0.5027 
     54 O         -49.5809  -27.0364   14.4284 O.2       7 UNK        -0.5083 
     55 CA        -47.6920  -27.4880   13.0258 C.3       6 UNK         0.0844 
     56 C56       -47.5750  -29.0332   12.9574 C.3       14 UNK        -0.0967 
     57 S57       -48.1581  -29.7535   11.3827 S.3       14 UNK        -0.2604 
     58 C58       -49.8795  -30.2172   11.7932 C.3       14 UNK         0.0134 
     59 N         -47.0470  -26.8244   11.8845 N.am      6 UNK        -0.4116 
     60 C         -46.9326  -25.5045   11.6855 C.2       5 UNK         0.5034 
     61 O         -47.3919  -24.6619   12.4577 O.2       5 UNK        -0.5045 
     62 CA        -46.2325  -25.0228   10.4017 C.3       5 UNK         0.0224 
     63 CB        -44.7702  -24.6310   10.6863 C.3       5 UNK        -0.1978 
     64 N         -46.3257  -25.9261    9.2438 N.am      5 UNK        -0.4737 
     65 C         -45.7795  -27.1380    9.0606 C.2       4 UNK         0.5027 
     66 O         -45.1544  -27.7488    9.9264 O.2       4 UNK        -0.5211 
     67 CA        -45.9712  -27.7755    7.6768 C.3       4 UNK         0.0297 
     68 CB        -47.3372  -28.4712    7.5859 C.3       4 UNK        -0.1993 
     69 N         -45.8611  -26.7704    6.6184 N.am      4 UNK        -0.4486 
     70 C         -44.7069  -26.3977    6.0466 C.2       3 UNK         0.4961 
     71 O         -43.6228  -26.9347    6.2767 O.2       3 UNK        -0.5105 
     72 CA        -44.7615  -25.2236    5.0519 C.3       3 UNK         0.0299 
     73 CB        -44.9412  -25.7428    3.6167 C.3       3 UNK        -0.1972 
     74 N         -45.8245  -24.2658    5.3702 N.am      3 UNK        -0.4305 
     75 C         -45.7677  -23.4054    6.4008 C.2       2 UNK         0.5006 
     76 O         -44.7734  -23.2670    7.1136 O.2       2 UNK        -0.5106 
     77 CA        -47.0205  -22.5629    6.7180 C.3       2 UNK         0.0296 
     78 CB        -46.8530  -21.1325    6.1801 C.3       2 UNK        -0.2002 
     79 N         -48.2800  -23.1185    6.2140 N.am      2 UNK        -0.4032 
     80 C         -48.7902  -24.3171    6.5350 C.2       1 UNK         0.5000 
     81 O         -48.2481  -25.0792    7.3388 O.2       1 UNK        -0.5238 
     82 H82       -49.5769  -24.6400    1.3180 H         1 UNK         0.0889 
     83 H83       -48.7629  -23.1404    1.7712 H         1 UNK         0.0889 
     84 H84       -50.4981  -23.3203    2.0421 H         1 UNK         0.0889 
     85 H85       -50.9754  -23.6932    4.1899 H         1 UNK         0.3028 
     86 H86       -50.8941  -24.2498    6.3055 H         1 UNK         0.0864 
     87 H87       -51.0036  -26.5672    5.0102 H         1 UNK         0.0720 
     88 H88       -49.4163  -26.8435    5.6690 H         1 UNK         0.0720 
     89 H89       -50.2029  -28.9492    6.7890 H         1 UNK         0.0814 
     90 H90       -51.8890  -28.8497    6.3443 H         1 UNK         0.0814 
     91 H91       -49.6294  -28.9505    9.3053 H         1 UNK         0.1469 
     92 H92       -52.3841  -31.2074   11.7056 H         1 UNK         0.1381 
     93 H93       -53.5335  -29.8245    7.8134 H         1 UNK         0.1206 
     94 H94       -54.3939  -32.1642   10.4961 H         1 UNK         0.0813 
     95 H95       -54.8862  -31.4787    8.9740 H         1 UNK         0.0813 
     96 H96       -54.3840  -29.6782   12.8017 H         1 UNK         0.0638 
     97 H97       -54.8130  -31.3659   12.6628 H         1 UNK         0.0638 
     98 H98       -57.2367  -30.7592   13.0966 H         1 UNK         0.0568 
     99 H99       -56.3849  -32.5739   14.4217 H         1 UNK         0.3450 
    100 H100      -55.9729  -32.2497   16.0848 H         1 UNK         0.3450 
    101 H101      -56.1367  -28.0480   13.3471 H         1 UNK         0.2987 
    102 H102      -58.4704  -26.6085   12.4469 H         1 UNK         0.0766 
    103 H103      -59.9011  -25.3082   14.0484 H         1 UNK         0.0798 
    104 H104      -59.7887  -26.6292   15.2109 H         1 UNK         0.0798 
    105 H105      -60.5814  -26.8799   13.6650 H         1 UNK         0.0798 
    106 H106      -56.7640  -25.5044   13.2958 H         1 UNK         0.3198 
    107 H107      -55.2045  -24.7162   14.5141 H         1 UNK         0.0843 
    108 H108      -55.9933  -24.3728   17.4595 H         1 UNK         0.0831 
    109 H109      -56.5011  -23.3241   16.1427 H         1 UNK         0.0831 
    110 H110      -54.8020  -23.4126   16.5814 H         1 UNK         0.0831 
    111 H111      -54.0938  -25.8717   16.8694 H         1 UNK         0.3133 
    112 H112      -53.2392  -28.2365   16.8690 H         1 UNK         0.0566 
    113 H113      -51.9199  -28.7276   14.1466 H         1 UNK         0.0814 
    114 H114      -51.5323  -29.5886   15.6341 H         1 UNK         0.0814 
    115 H115      -53.1276  -29.7422   14.9204 H         1 UNK         0.0814 
    116 H116      -50.8923  -27.0187   15.6164 H         1 UNK         0.3091 
    117 H117      -50.4866  -24.5290   18.1784 H         1 UNK         0.0702 
    118 H118      -48.2235  -25.5203   17.9535 H         1 UNK         0.0785 
    119 H119      -48.8838  -26.9162   17.1056 H         1 UNK         0.0785 
    120 H120      -49.2999  -26.6278   18.7893 H         1 UNK         0.0785 
    121 H121      -49.6291  -25.2304   15.4133 H         1 UNK         0.2998 
    122 H122      -50.9862  -22.2627   14.0518 H         1 UNK         0.0697 
    123 H123      -48.0191  -22.9018   14.4971 H         1 UNK         0.0825 
    124 H124      -48.8142  -21.3805   14.8763 H         1 UNK         0.0825 
    125 H125      -48.6671  -21.8956   13.2031 H         1 UNK         0.0825 
    126 H126      -49.3500  -24.4121   13.0217 H         1 UNK         0.3029 
    127 H127      -51.8570  -26.8120   12.7546 H         1 UNK         0.0897 
    128 H128      -52.7405  -25.4589   10.8306 H         1 UNK         0.0792 
    129 H129      -51.7934  -26.8376   10.3106 H         1 UNK         0.0792 
    130 H130      -51.0954  -25.2161   10.2548 H         1 UNK         0.0792 
    131 H131      -49.4250  -26.6702   11.3095 H         1 UNK         0.3086 
    132 H132      -47.1338  -27.1655   13.9071 H         1 UNK         0.0583 
    133 H133      -46.5260  -29.3125   13.0688 H         1 UNK         0.1020 
    134 H134      -48.0850  -29.5071   13.7991 H         1 UNK         0.1020 
    135 H135      -49.8719  -31.2415   12.1688 H         1 UNK         0.0694 
    136 H136      -50.2454  -29.5956   12.6091 H         1 UNK         0.0694 
    137 H137      -46.5896  -27.4317   11.2115 H         1 UNK         0.2989 
    138 H138      -46.7583  -24.1157   10.0987 H         1 UNK         0.1055 
    139 H139      -44.7152  -23.8770   11.4727 H         1 UNK         0.0806 
    140 H140      -44.2949  -24.2098    9.8002 H         1 UNK         0.0806 
    141 H141      -44.1747  -25.4837   11.0136 H         1 UNK         0.0806 
    142 H142      -46.9180  -25.5774    8.4909 H         1 UNK         0.3061 
    143 H143      -45.1970  -28.5340    7.5419 H         1 UNK         0.0734 
    144 H144      -47.4873  -28.9268    6.6072 H         1 UNK         0.0832 
    145 H145      -47.4152  -29.2661    8.3285 H         1 UNK         0.0832 
    146 H146      -48.1572  -27.7746    7.7620 H         1 UNK         0.0832 
    147 H147      -46.6978  -26.2379    6.4138 H         1 UNK         0.3156 
    148 H148      -43.8040  -24.7004    5.1008 H         1 UNK         0.0589 
    149 H149      -45.8564  -26.3261    3.5086 H         1 UNK         0.0808 
    150 H150      -44.9778  -24.9242    2.8978 H         1 UNK         0.0808 
    151 H151      -44.1103  -26.3892    3.3312 H         1 UNK         0.0808 
    152 H152      -46.6761  -24.3371    4.8212 H         1 UNK         0.3098 
    153 H153      -47.1019  -22.5117    7.8057 H         1 UNK         0.0720 
    154 H154      -47.6822  -20.4932    6.4838 H         1 UNK         0.0791 
    155 H155      -46.7947  -21.1153    5.0910 H         1 UNK         0.0791 
    156 H156      -45.9389  -20.6755    6.5624 H         1 UNK         0.0791 
    157 H157      -48.7768  -22.5637    5.5322 H         1 UNK         0.3028 
@<TRIPOS>BOND
     1    1    2 1    
     2    1   82 1    
     3    1   83 1    
     4    1   84 1    
     5    2    3 2    
     6    2    4 am   BACKBONE|DICT|INTERRES
     7    4    5 1    
     8    4   85 1    
     9    5    6 1    
    10    5   80 1    
    11    5   86 1    
    12    6    7 1    
    13    6   87 1    
    14    6   88 1    
    15    7    8 1    
    16    8    9 1    
    17    8   89 1    
    18    8   90 1    
    19    9   10 ar   
    20    9   14 ar   
    21   10   11 ar   
    22   10   91 1    
    23   11   12 ar   
    24   11   58 1    
    25   12   13 ar   
    26   12   92 1    
    27   13   14 ar   
    28   13   15 1    
    29   14   93 1    
    30   15   16 1    
    31   15   94 1    
    32   15   95 1    
    33   16   17 1    
    34   17   18 1    
    35   17   96 1    
    36   17   97 1    
    37   18   19 1    
    38   18   22 1    
    39   18   98 1    
    40   19   20 am   BACKBONE|DICT|INTERRES
    41   19   21 2    
    42   20   99 1    
    43   20  100 1    
    44   22   23 am   BACKBONE|DICT|INTERRES
    45   22  101 1    
    46   23   24 2    
    47   23   25 1    
    48   25   26 1    
    49   25   27 1    
    50   25  102 1    
    51   26  103 1    
    52   26  104 1    
    53   26  105 1    
    54   27   28 am   BACKBONE|DICT|INTERRES
    55   27  106 1    
    56   28   29 2    
    57   28   30 1    
    58   30   31 1    
    59   30   32 1    
    60   30  107 1    
    61   31  108 1    
    62   31  109 1    
    63   31  110 1    
    64   32   33 am   BACKBONE|DICT|INTERRES
    65   32  111 1    
    66   33   34 2    
    67   33   35 1    
    68   35   36 1    
    69   35   37 1    
    70   35  112 1    
    71   36  113 1    
    72   36  114 1    
    73   36  115 1    
    74   37   38 am   BACKBONE|DICT|INTERRES
    75   37  116 1    
    76   38   39 2    
    77   38   40 1    
    78   40   41 1    
    79   40   42 1    
    80   40  117 1    
    81   41  118 1    
    82   41  119 1    
    83   41  120 1    
    84   42   43 am   BACKBONE|DICT|INTERRES
    85   42  121 1    
    86   43   44 2    
    87   43   45 1    
    88   45   46 1    
    89   45   47 1    
    90   45  122 1    
    91   46  123 1    
    92   46  124 1    
    93   46  125 1    
    94   47   48 am   BACKBONE|DICT|INTERRES
    95   47  126 1    
    96   48   49 2    
    97   48   50 1    
    98   50   51 1    
    99   50   52 1    
   100   50  127 1    
   101   51  128 1    
   102   51  129 1    
   103   51  130 1    
   104   52   53 am   BACKBONE|DICT|INTERRES
   105   52  131 1    
   106   53   54 2    
   107   53   55 1    
   108   55   56 1    
   109   55   59 1    
   110   55  132 1    
   111   56   57 1    
   112   56  133 1    
   113   56  134 1    
   114   57   58 1    
   115   58  135 1    
   116   58  136 1    
   117   59   60 am   BACKBONE|DICT|INTERRES
   118   59  137 1    
   119   60   61 2    
   120   60   62 1    
   121   62   63 1    
   122   62   64 1    
   123   62  138 1    
   124   63  139 1    
   125   63  140 1    
   126   63  141 1    
   127   64   65 am   BACKBONE|DICT|INTERRES
   128   64  142 1    
   129   65   66 2    
   130   65   67 1    
   131   67   68 1    
   132   67   69 1    
   133   67  143 1    
   134   68  144 1    
   135   68  145 1    
   136   68  146 1    
   137   69   70 am   BACKBONE|DICT|INTERRES
   138   69  147 1    
   139   70   71 2    
   140   70   72 1    
   141   72   73 1    
   142   72   74 1    
   143   72  148 1    
   144   73  149 1    
   145   73  150 1    
   146   73  151 1    
   147   74   75 am   BACKBONE|DICT|INTERRES
   148   74  152 1    
   149   75   76 2    
   150   75   77 1    
   151   77   78 1    
   152   77   79 1    
   153   77  153 1    
   154   78  154 1    
   155   78  155 1    
   156   78  156 1    
   157   79   80 am   BACKBONE|DICT|INTERRES
   158   79  157 1    
   159   80   81 2    
@<TRIPOS>SUBSTRUCTURE
     1 UNK         1 GROUP             0       ****    0 ROOT    
