@<TRIPOS>MOLECULE
3R207
157   159    1
SMALL
USER_CHARGES


@<TRIPOS>ATOM
      1 CA        -48.4594  -27.4994    3.0634 C.3       0 UNK        -0.1975 
      2 C         -49.7207  -27.3802    3.9049 C.2       0 UNK         0.4852 
      3 O         -50.6687  -26.7068    3.4976 O.2       0 UNK        -0.5216 
      4 N         -49.7417  -28.0252    5.0780 N.am      1 UNK        -0.4461 
      5 CA        -50.8445  -27.9950    6.0442 C.3       1 UNK         0.0864 
      6 C6        -50.7739  -29.1816    7.0364 C.3       14 UNK        -0.0898 
      7 S7        -50.7321  -30.8224    6.2335 S.3       14 UNK        -0.2598 
      8 C8        -51.5181  -31.9053    7.4827 C.3       14 UNK         0.0286 
      9 C9        -51.1181  -31.5758    8.9186 C.ar      14 UNK        -0.0844 
     10 C10       -49.7714  -31.4705    9.2818 C.ar      14 UNK        -0.0881 
     11 C11       -49.4150  -31.0705   10.5723 C.ar      14 UNK        -0.0643 
     12 C12       -50.4163  -30.8314   11.5172 C.ar      14 UNK        -0.0930 
     13 C13       -51.7674  -30.9569   11.1820 C.ar      14 UNK        -0.0827 
     14 C14       -52.1080  -31.3376    9.8778 C.ar      14 UNK        -0.1249 
     15 C15       -52.8200  -30.6944   12.2613 C.3       14 UNK         0.0141 
     16 S16       -54.4483  -30.1268   11.6604 S.3       14 UNK        -0.2313 
     17 C17       -54.0602  -28.4941   10.9357 C.3       14 UNK        -0.0915 
     18 CA        -53.8258  -27.3540   11.9728 C.3       13 UNK         0.0968 
     19 C         -53.5971  -25.9648   11.2987 C.2       13 UNK         0.5732 
     20 N         -53.9457  -24.8544   11.9399 N.am      13 UNK        -0.7310 
     21 O         -53.0898  -25.8816   10.1831 O.2       13 UNK        -0.5035 
     22 N         -54.8067  -27.3287   13.0704 N.am      13 UNK        -0.4233 
     23 C         -56.1155  -27.0699   12.9451 C.2       13 UNK         0.4989 
     24 O         -56.6893  -26.9025   11.8679 O.2       13 UNK        -0.4996 
     25 CA        -56.9314  -26.9473   14.2433 C.3       12 UNK         0.0216 
     26 CB        -57.4788  -28.3221   14.6603 C.3       12 UNK        -0.1964 
     27 N         -56.2040  -26.3594   15.3723 N.am      12 UNK        -0.4276 
     28 C         -55.5888  -25.1699   15.4097 C.2       12 UNK         0.5020 
     29 O         -55.5123  -24.4080   14.4458 O.2       12 UNK        -0.5489 
     30 CA        -54.9232  -24.7646   16.7397 C.3       11 UNK         0.0294 
     31 CB        -55.9567  -24.2114   17.7399 C.3       11 UNK        -0.2019 
     32 N         -54.0928  -25.8219   17.3340 N.am      11 UNK        -0.4493 
     33 C         -54.4658  -27.0211   17.8121 C.2       11 UNK         0.4932 
     34 O         -55.6418  -27.3659   17.9420 O.2       11 UNK        -0.5029 
     35 CA        -53.3383  -28.0253   18.1352 C.3       10 UNK         0.0280 
     36 CB        -53.8089  -29.4915   18.0267 C.3       10 UNK        -0.1976 
     37 N         -52.1278  -27.8153   17.3287 N.am      10 UNK        -0.4242 
     38 C         -52.0376  -27.8060   15.9896 C.2       10 UNK         0.5072 
     39 O         -52.9722  -28.0416   15.2200 O.2       10 UNK        -0.5224 
     40 CA        -50.6749  -27.3881   15.4190 C.3       9 UNK         0.0343 
     41 CB        -50.0969  -28.4752   14.5046 C.3       9 UNK        -0.2003 
     42 N         -50.7630  -26.1179   14.6924 N.am      9 UNK        -0.4272 
     43 C         -51.0844  -24.9426   15.2588 C.2       9 UNK         0.4988 
     44 O         -51.3749  -24.8295   16.4521 O.2       9 UNK        -0.5108 
     45 CA        -51.0780  -23.6820   14.3759 C.3       8 UNK         0.0248 
     46 CB        -50.4917  -22.4618   15.1104 C.3       8 UNK        -0.2001 
     47 N         -50.3487  -23.8905   13.1243 N.am      8 UNK        -0.4140 
     48 C         -50.7573  -23.4629   11.9235 C.2       8 UNK         0.5028 
     49 O         -51.7413  -22.7397   11.7571 O.2       8 UNK        -0.5428 
     50 CA        -49.9450  -23.8891   10.6845 C.3       7 UNK         0.0264 
     51 CB        -49.1630  -22.6807   10.1429 C.3       7 UNK        -0.1988 
     52 N         -49.0189  -25.0182   10.8485 N.am      7 UNK        -0.4454 
     53 C         -49.3153  -26.2475   11.3026 C.2       7 UNK         0.5027 
     54 O         -50.4014  -26.5595   11.7884 O.2       7 UNK        -0.5083 
     55 CA        -48.1928  -27.3046   11.2675 C.3       6 UNK         0.0844 
     56 C56       -48.3152  -28.1714    9.9948 C.3       14 UNK        -0.0967 
     57 S57       -47.1352  -29.5655    9.9357 S.3       14 UNK        -0.2604 
     58 C58       -47.9530  -30.8536   10.9425 C.3       14 UNK         0.0134 
     59 N         -46.8609  -26.7167   11.4291 N.am      6 UNK        -0.4116 
     60 C         -46.4253  -26.0955   12.5356 C.2       5 UNK         0.5034 
     61 O         -47.1034  -25.9586   13.5549 O.2       5 UNK        -0.5045 
     62 CA        -44.9978  -25.5194   12.5023 C.3       5 UNK         0.0224 
     63 CB        -44.0198  -26.4707   13.2109 C.3       5 UNK        -0.1978 
     64 N         -44.5112  -25.2520   11.1445 N.am      5 UNK        -0.4737 
     65 C         -44.9661  -24.2700   10.3545 C.2       4 UNK         0.5027 
     66 O         -45.7989  -23.4395   10.7225 O.2       4 UNK        -0.5211 
     67 CA        -44.4092  -24.2044    8.9154 C.3       4 UNK         0.0297 
     68 CB        -43.7123  -25.5064    8.4548 C.3       4 UNK        -0.1993 
     69 N         -45.4283  -23.8090    7.9334 N.am      4 UNK        -0.4486 
     70 C         -46.6053  -24.4105    7.7104 C.2       3 UNK         0.4961 
     71 O         -47.0143  -25.3942    8.3323 O.2       3 UNK        -0.5105 
     72 CA        -47.4577  -23.8195    6.5817 C.3       3 UNK         0.0299 
     73 CB        -46.9690  -24.3200    5.2092 C.3       3 UNK        -0.1972 
     74 N         -48.8496  -24.2101    6.7794 N.am      3 UNK        -0.4305 
     75 C         -49.9223  -23.5703    6.3010 C.2       2 UNK         0.5006 
     76 O         -49.8539  -22.5404    5.6270 O.2       2 UNK        -0.5106 
     77 CA        -51.2959  -24.2062    6.6022 C.3       2 UNK         0.0296 
     78 CB        -52.4665  -23.4240    5.9769 C.3       2 UNK        -0.2002 
     79 N         -51.3477  -25.5928    6.1332 N.am      2 UNK        -0.4032 
     80 C         -50.8354  -26.6424    6.7871 C.2       1 UNK         0.5000 
     81 O         -50.2964  -26.5463    7.8908 O.2       1 UNK        -0.5238 
     82 H82       -47.6910  -28.0896    3.5617 H         1 UNK         0.0889 
     83 H83       -48.0490  -26.5103    2.8610 H         1 UNK         0.0889 
     84 H84       -48.6888  -27.9749    2.1107 H         1 UNK         0.0889 
     85 H85       -48.9379  -28.5660    5.3626 H         1 UNK         0.3028 
     86 H86       -51.7886  -28.0740    5.5011 H         1 UNK         0.0864 
     87 H87       -51.6258  -29.1402    7.7178 H         1 UNK         0.0720 
     88 H88       -49.8793  -29.1079    7.6555 H         1 UNK         0.0720 
     89 H89       -52.6001  -31.8310    7.3615 H         1 UNK         0.0814 
     90 H90       -51.2567  -32.9425    7.2685 H         1 UNK         0.0814 
     91 H91       -49.0000  -31.6438    8.5438 H         1 UNK         0.1469 
     92 H92       -50.1398  -30.5399   12.5198 H         1 UNK         0.1381 
     93 H93       -53.1476  -31.4355    9.5992 H         1 UNK         0.1206 
     94 H94       -52.9687  -31.6185   12.8208 H         1 UNK         0.0813 
     95 H95       -52.4528  -29.9611   12.9799 H         1 UNK         0.0813 
     96 H96       -54.8863  -28.2312   10.2732 H         1 UNK         0.0638 
     97 H97       -53.1852  -28.5998   10.2918 H         1 UNK         0.0638 
     98 H98       -52.8758  -27.5705   12.4607 H         1 UNK         0.0568 
     99 H99       -54.4250  -24.8824   12.8329 H         1 UNK         0.3450 
    100 H100      -53.7209  -23.9639   11.5226 H         1 UNK         0.3450 
    101 H101      -54.4112  -27.4788   13.9940 H         1 UNK         0.2987 
    102 H102      -57.7776  -26.2904   14.0327 H         1 UNK         0.0766 
    103 H103      -58.0465  -28.7800   13.8489 H         1 UNK         0.0798 
    104 H104      -58.1478  -28.2412   15.5174 H         1 UNK         0.0798 
    105 H105      -56.6748  -29.0106   14.9253 H         1 UNK         0.0798 
    106 H106      -56.1817  -26.9000   16.2347 H         1 UNK         0.3198 
    107 H107      -54.2321  -23.9530   16.5049 H         1 UNK         0.0843 
    108 H108      -56.4872  -23.3585   17.3145 H         1 UNK         0.0831 
    109 H109      -56.7077  -24.9536   18.0115 H         1 UNK         0.0831 
    110 H110      -55.4765  -23.8695   18.6567 H         1 UNK         0.0831 
    111 H111      -53.0945  -25.6567   17.2399 H         1 UNK         0.3133 
    112 H112      -53.0548  -27.8412   19.1723 H         1 UNK         0.0566 
    113 H113      -54.1707  -29.7263   17.0249 H         1 UNK         0.0814 
    114 H114      -54.6238  -29.6954   18.7224 H         1 UNK         0.0814 
    115 H115      -53.0029  -30.1860   18.2631 H         1 UNK         0.0814 
    116 H116      -51.2997  -27.5697   17.8545 H         1 UNK         0.3091 
    117 H117      -49.9756  -27.2489   16.2462 H         1 UNK         0.0702 
    118 H118      -49.0532  -28.2691   14.2704 H         1 UNK         0.0785 
    119 H119      -50.6515  -28.5412   13.5694 H         1 UNK         0.0785 
    120 H120      -50.1329  -29.4554   14.9821 H         1 UNK         0.0785 
    121 H121      -50.6355  -26.1674   13.6858 H         1 UNK         0.2998 
    122 H122      -52.1283  -23.4776   14.1574 H         1 UNK         0.0697 
    123 H123      -50.5342  -21.5680   14.4879 H         1 UNK         0.0825 
    124 H124      -49.4511  -22.6256   15.3921 H         1 UNK         0.0825 
    125 H125      -51.0485  -22.2435   16.0226 H         1 UNK         0.0825 
    126 H126      -49.5143  -24.4597   13.1748 H         1 UNK         0.3029 
    127 H127      -50.6735  -24.1981    9.9330 H         1 UNK         0.0897 
    128 H128      -48.4110  -22.3397   10.8557 H         1 UNK         0.0792 
    129 H129      -49.8276  -21.8393    9.9416 H         1 UNK         0.0792 
    130 H130      -48.6532  -22.9138    9.2112 H         1 UNK         0.0792 
    131 H131      -48.0880  -24.8799   10.4753 H         1 UNK         0.3086 
    132 H132      -48.3533  -27.9636   12.1209 H         1 UNK         0.0583 
    133 H133      -49.3342  -28.5464    9.8887 H         1 UNK         0.1020 
    134 H134      -48.1453  -27.5629    9.1061 H         1 UNK         0.1020 
    135 H135      -47.4115  -31.7926   10.8213 H         1 UNK         0.0694 
    136 H136      -47.8576  -30.5793   11.9943 H         1 UNK         0.0694 
    137 H137      -46.2500  -26.7699   10.6268 H         1 UNK         0.2989 
    138 H138      -45.0182  -24.5749   13.0514 H         1 UNK         0.1055 
    139 H139      -44.3399  -26.6664   14.2357 H         1 UNK         0.0806 
    140 H140      -43.0177  -26.0442   13.2635 H         1 UNK         0.0806 
    141 H141      -43.9505  -27.4333   12.7024 H         1 UNK         0.0806 
    142 H142      -43.8184  -25.8869   10.7736 H         1 UNK         0.3061 
    143 H143      -43.6616  -23.4098    8.9180 H         1 UNK         0.0734 
    144 H144      -44.3817  -26.3666    8.5021 H         1 UNK         0.0832 
    145 H145      -43.3646  -25.4199    7.4251 H         1 UNK         0.0832 
    146 H146      -42.8339  -25.7292    9.0617 H         1 UNK         0.0832 
    147 H147      -45.2083  -22.9844    7.3918 H         1 UNK         0.3156 
    148 H148      -47.3820  -22.7310    6.6265 H         1 UNK         0.0589 
    149 H149      -47.5581  -23.8947    4.3961 H         1 UNK         0.0808 
    150 H150      -47.0322  -25.4064    5.1351 H         1 UNK         0.0808 
    151 H151      -45.9293  -24.0406    5.0340 H         1 UNK         0.0808 
    152 H152      -48.9839  -25.0372    7.3582 H         1 UNK         0.3098 
    153 H153      -51.4323  -24.1913    7.6852 H         1 UNK         0.0720 
    154 H154      -52.4817  -22.3926    6.3319 H         1 UNK         0.0791 
    155 H155      -53.4257  -23.8694    6.2416 H         1 UNK         0.0791 
    156 H156      -52.3979  -23.3952    4.8886 H         1 UNK         0.0791 
    157 H157      -51.6368  -25.7383    5.1726 H         1 UNK         0.3028 
@<TRIPOS>BOND
     1    1    2 1    
     2    1   82 1    
     3    1   83 1    
     4    1   84 1    
     5    2    3 2    
     6    2    4 am   BACKBONE|DICT|INTERRES
     7    4    5 1    
     8    4   85 1    
     9    5    6 1    
    10    5   80 1    
    11    5   86 1    
    12    6    7 1    
    13    6   87 1    
    14    6   88 1    
    15    7    8 1    
    16    8    9 1    
    17    8   89 1    
    18    8   90 1    
    19    9   10 ar   
    20    9   14 ar   
    21   10   11 ar   
    22   10   91 1    
    23   11   12 ar   
    24   11   58 1    
    25   12   13 ar   
    26   12   92 1    
    27   13   14 ar   
    28   13   15 1    
    29   14   93 1    
    30   15   16 1    
    31   15   94 1    
    32   15   95 1    
    33   16   17 1    
    34   17   18 1    
    35   17   96 1    
    36   17   97 1    
    37   18   19 1    
    38   18   22 1    
    39   18   98 1    
    40   19   20 am   BACKBONE|DICT|INTERRES
    41   19   21 2    
    42   20   99 1    
    43   20  100 1    
    44   22   23 am   BACKBONE|DICT|INTERRES
    45   22  101 1    
    46   23   24 2    
    47   23   25 1    
    48   25   26 1    
    49   25   27 1    
    50   25  102 1    
    51   26  103 1    
    52   26  104 1    
    53   26  105 1    
    54   27   28 am   BACKBONE|DICT|INTERRES
    55   27  106 1    
    56   28   29 2    
    57   28   30 1    
    58   30   31 1    
    59   30   32 1    
    60   30  107 1    
    61   31  108 1    
    62   31  109 1    
    63   31  110 1    
    64   32   33 am   BACKBONE|DICT|INTERRES
    65   32  111 1    
    66   33   34 2    
    67   33   35 1    
    68   35   36 1    
    69   35   37 1    
    70   35  112 1    
    71   36  113 1    
    72   36  114 1    
    73   36  115 1    
    74   37   38 am   BACKBONE|DICT|INTERRES
    75   37  116 1    
    76   38   39 2    
    77   38   40 1    
    78   40   41 1    
    79   40   42 1    
    80   40  117 1    
    81   41  118 1    
    82   41  119 1    
    83   41  120 1    
    84   42   43 am   BACKBONE|DICT|INTERRES
    85   42  121 1    
    86   43   44 2    
    87   43   45 1    
    88   45   46 1    
    89   45   47 1    
    90   45  122 1    
    91   46  123 1    
    92   46  124 1    
    93   46  125 1    
    94   47   48 am   BACKBONE|DICT|INTERRES
    95   47  126 1    
    96   48   49 2    
    97   48   50 1    
    98   50   51 1    
    99   50   52 1    
   100   50  127 1    
   101   51  128 1    
   102   51  129 1    
   103   51  130 1    
   104   52   53 am   BACKBONE|DICT|INTERRES
   105   52  131 1    
   106   53   54 2    
   107   53   55 1    
   108   55   56 1    
   109   55   59 1    
   110   55  132 1    
   111   56   57 1    
   112   56  133 1    
   113   56  134 1    
   114   57   58 1    
   115   58  135 1    
   116   58  136 1    
   117   59   60 am   BACKBONE|DICT|INTERRES
   118   59  137 1    
   119   60   61 2    
   120   60   62 1    
   121   62   63 1    
   122   62   64 1    
   123   62  138 1    
   124   63  139 1    
   125   63  140 1    
   126   63  141 1    
   127   64   65 am   BACKBONE|DICT|INTERRES
   128   64  142 1    
   129   65   66 2    
   130   65   67 1    
   131   67   68 1    
   132   67   69 1    
   133   67  143 1    
   134   68  144 1    
   135   68  145 1    
   136   68  146 1    
   137   69   70 am   BACKBONE|DICT|INTERRES
   138   69  147 1    
   139   70   71 2    
   140   70   72 1    
   141   72   73 1    
   142   72   74 1    
   143   72  148 1    
   144   73  149 1    
   145   73  150 1    
   146   73  151 1    
   147   74   75 am   BACKBONE|DICT|INTERRES
   148   74  152 1    
   149   75   76 2    
   150   75   77 1    
   151   77   78 1    
   152   77   79 1    
   153   77  153 1    
   154   78  154 1    
   155   78  155 1    
   156   78  156 1    
   157   79   80 am   BACKBONE|DICT|INTERRES
   158   79  157 1    
   159   80   81 2    
@<TRIPOS>SUBSTRUCTURE
     1 UNK         1 GROUP             0       ****    0 ROOT    
