@<TRIPOS>MOLECULE
3R207
157   159    1
SMALL
USER_CHARGES


@<TRIPOS>ATOM
      1 CA        -49.1779  -31.4273   10.4882 C.3       0 UNK        -0.1975 
      2 C         -49.2233  -30.7993    9.1033 C.2       0 UNK         0.4852 
      3 O         -49.0606  -31.5034    8.1056 O.2       0 UNK        -0.5216 
      4 N         -49.4464  -29.4810    9.0359 N.am      1 UNK        -0.4461 
      5 CA        -49.4211  -28.6924    7.8017 C.3       1 UNK         0.0864 
      6 C6        -50.1473  -27.3424    8.0095 C.3       14 UNK        -0.0898 
      7 S7        -50.5172  -26.4625    6.4529 S.3       14 UNK        -0.2598 
      8 C8        -52.2271  -26.9816    6.1093 C.3       14 UNK         0.0286 
      9 C9        -53.2321  -26.3155    7.0380 C.ar      14 UNK        -0.0844 
     10 C10       -53.5351  -24.9584    6.8900 C.ar      14 UNK        -0.0881 
     11 C11       -54.4790  -24.3431    7.7194 C.ar      14 UNK        -0.0643 
     12 C12       -55.1235  -25.1028    8.7019 C.ar      14 UNK        -0.0930 
     13 C13       -54.8429  -26.4662    8.8470 C.ar      14 UNK        -0.0827 
     14 C14       -53.8922  -27.0648    8.0156 C.ar      14 UNK        -0.1249 
     15 C15       -55.6069  -27.2998    9.8664 C.3       14 UNK         0.0141 
     16 S16       -54.8029  -27.2914   11.4961 S.3       14 UNK        -0.2313 
     17 C17       -53.5897  -28.6473   11.3467 C.3       14 UNK        -0.0915 
     18 CA        -53.9766  -29.8942   12.1822 C.3       13 UNK         0.0968 
     19 C         -52.9556  -31.0399   11.9658 C.2       13 UNK         0.5732 
     20 N         -53.2772  -32.0090   11.1149 N.am      13 UNK        -0.7310 
     21 O         -51.8586  -31.0323   12.5256 O.2       13 UNK        -0.5035 
     22 N         -54.1217  -29.5834   13.6118 N.am      13 UNK        -0.4233 
     23 C         -54.8944  -30.2858   14.4509 C.2       13 UNK         0.4989 
     24 O         -55.5639  -31.2605   14.1012 O.2       13 UNK        -0.4996 
     25 CA        -54.9674  -29.7975   15.9119 C.3       12 UNK         0.0216 
     26 CB        -55.6672  -30.7996   16.8562 C.3       12 UNK        -0.1964 
     27 N         -53.6722  -29.3790   16.4565 N.am      12 UNK        -0.4276 
     28 C         -52.5768  -30.1323   16.6493 C.2       12 UNK         0.5020 
     29 O         -52.5293  -31.3413   16.4180 O.2       12 UNK        -0.5489 
     30 CA        -51.3172  -29.4265   17.1943 C.3       11 UNK         0.0294 
     31 CB        -50.0742  -29.7929   16.3622 C.3       11 UNK        -0.2019 
     32 N         -51.4677  -27.9694   17.1904 N.am      11 UNK        -0.4493 
     33 C         -51.7156  -27.2021   18.2615 C.2       11 UNK         0.4932 
     34 O         -51.7591  -27.6315   19.4142 O.2       11 UNK        -0.5029 
     35 CA        -51.9874  -25.7033   18.0104 C.3       10 UNK         0.0280 
     36 CB        -50.7160  -24.8803   18.2700 C.3       10 UNK        -0.1976 
     37 N         -52.4853  -25.4096   16.6613 N.am      10 UNK        -0.4242 
     38 C         -53.6545  -25.8501   16.1667 C.2       10 UNK         0.5072 
     39 O         -54.4794  -26.4749   16.8330 O.2       10 UNK        -0.5224 
     40 CA        -53.9142  -25.6559   14.6599 C.3       9 UNK         0.0343 
     41 CB        -54.7462  -24.3896   14.4120 C.3       9 UNK        -0.2003 
     42 N         -52.6876  -25.6034   13.8574 N.am      9 UNK        -0.4272 
     43 C         -51.7497  -26.5644   13.8302 C.2       9 UNK         0.4988 
     44 O         -51.9243  -27.6725   14.3359 O.2       9 UNK        -0.5108 
     45 CA        -50.3708  -26.2412   13.2176 C.3       8 UNK         0.0248 
     46 CB        -50.1197  -27.0860   11.9591 C.3       8 UNK        -0.2001 
     47 N         -50.1591  -24.8235   12.9084 N.am      8 UNK        -0.4140 
     48 C         -50.1886  -23.8174   13.7999 C.2       8 UNK         0.5028 
     49 O         -50.2893  -23.9930   15.0155 O.2       8 UNK        -0.5428 
     50 CA        -50.2076  -22.3762   13.2502 C.3       7 UNK         0.0264 
     51 CB        -48.8226  -21.7257   13.3845 C.3       7 UNK        -0.1988 
     52 N         -50.6597  -22.2860   11.8568 N.am      7 UNK        -0.4454 
     53 C         -51.8685  -22.6681   11.4112 C.2       7 UNK         0.5027 
     54 O         -52.7819  -23.0078   12.1638 O.2       7 UNK        -0.5083 
     55 CA        -52.0841  -22.7563    9.8820 C.3       6 UNK         0.0844 
     56 C56       -53.1000  -21.6897    9.4078 C.3       14 UNK        -0.0967 
     57 S57       -53.4154  -21.7542    7.6108 S.3       14 UNK        -0.2604 
     58 C58       -54.8483  -22.8775    7.5130 C.3       14 UNK         0.0134 
     59 N         -50.8414  -22.7441    9.0945 N.am      6 UNK        -0.4116 
     60 C         -49.8820  -23.6765    9.1625 C.2       5 UNK         0.5034 
     61 O         -49.9215  -24.6101    9.9660 O.2       5 UNK        -0.5045 
     62 CA        -48.6911  -23.5390    8.1875 C.3       5 UNK         0.0224 
     63 CB        -48.2779  -22.0707    7.9391 C.3       5 UNK        -0.1978 
     64 N         -47.5246  -24.3355    8.5948 N.am      5 UNK        -0.4737 
     65 C         -46.8405  -24.2383    9.7470 C.2       4 UNK         0.5027 
     66 O         -47.0611  -23.3910   10.6128 O.2       4 UNK        -0.5211 
     67 CA        -45.7156  -25.2617    9.9833 C.3       4 UNK         0.0297 
     68 CB        -46.2305  -26.4320   10.8361 C.3       4 UNK        -0.1993 
     69 N         -45.1320  -25.7767    8.7407 N.am      4 UNK        -0.4486 
     70 C         -44.3205  -25.0610    7.9466 C.2       3 UNK         0.4961 
     71 O         -43.9511  -23.9157    8.2096 O.2       3 UNK        -0.5105 
     72 CA        -43.8192  -25.7138    6.6435 C.3       3 UNK         0.0299 
     73 CB        -42.3528  -26.1516    6.7950 C.3       3 UNK        -0.1972 
     74 N         -44.6106  -26.8573    6.1813 N.am      3 UNK        -0.4305 
     75 C         -45.8856  -26.8088    5.7724 C.2       2 UNK         0.5006 
     76 O         -46.5635  -25.7793    5.7715 O.2       2 UNK        -0.5106 
     77 CA        -46.5266  -28.1296    5.2979 C.3       2 UNK         0.0296 
     78 CB        -45.5958  -29.3628    5.3808 C.3       2 UNK        -0.2002 
     79 N         -47.7889  -28.3936    5.9955 N.am      2 UNK        -0.4032 
     80 C         -47.9663  -28.4918    7.3216 C.2       1 UNK         0.5000 
     81 O         -47.0523  -28.3974    8.1477 O.2       1 UNK        -0.5238 
     82 H82       -49.3307  -30.6903   11.2768 H         1 UNK         0.0889 
     83 H83       -48.2122  -31.9045   10.6530 H         1 UNK         0.0889 
     84 H84       -49.9544  -32.1860   10.5820 H         1 UNK         0.0889 
     85 H85       -49.5292  -28.9509    9.8899 H         1 UNK         0.3028 
     86 H86       -49.9612  -29.2595    7.0399 H         1 UNK         0.0864 
     87 H87       -49.5391  -26.6924    8.6374 H         1 UNK         0.0720 
     88 H88       -51.0805  -27.4905    8.5547 H         1 UNK         0.0720 
     89 H89       -52.2954  -28.0688    6.1718 H         1 UNK         0.0814 
     90 H90       -52.4708  -26.7219    5.0781 H         1 UNK         0.0814 
     91 H91       -53.0388  -24.3802    6.1225 H         1 UNK         0.1469 
     92 H92       -55.8651  -24.6407    9.3392 H         1 UNK         0.1381 
     93 H93       -53.6793  -28.1198    8.1156 H         1 UNK         0.1206 
     94 H94       -56.6167  -26.9023    9.9782 H         1 UNK         0.0813 
     95 H95       -55.7280  -28.3256    9.5150 H         1 UNK         0.0813 
     96 H96       -53.4761  -28.9159   10.2962 H         1 UNK         0.0638 
     97 H97       -52.6203  -28.2696   11.6621 H         1 UNK         0.0638 
     98 H98       -54.9466  -30.2329   11.8118 H         1 UNK         0.0568 
     99 H99       -52.6206  -32.7565   10.9572 H         1 UNK         0.3450 
    100 H100      -54.1726  -32.0225   10.6467 H         1 UNK         0.3450 
    101 H101      -53.5125  -28.8563   13.9711 H         1 UNK         0.2987 
    102 H102      -55.5828  -28.8969   15.8878 H         1 UNK         0.0766 
    103 H103      -56.6879  -30.9995   16.5274 H         1 UNK         0.0798 
    104 H104      -55.1455  -31.7565   16.8919 H         1 UNK         0.0798 
    105 H105      -55.7269  -30.4113   17.8729 H         1 UNK         0.0798 
    106 H106      -53.6154  -28.3962   16.6984 H         1 UNK         0.3198 
    107 H107      -51.1635  -29.7869   18.2134 H         1 UNK         0.0843 
    108 H108      -49.8777  -30.8650   16.4027 H         1 UNK         0.0831 
    109 H109      -49.1830  -29.2876   16.7344 H         1 UNK         0.0831 
    110 H110      -50.1988  -29.5265   15.3117 H         1 UNK         0.0831 
    111 H111      -51.4868  -27.5490   16.2666 H         1 UNK         0.3133 
    112 H112      -52.7518  -25.3849   18.7223 H         1 UNK         0.0566 
    113 H113      -50.9049  -23.8120   18.1625 H         1 UNK         0.0814 
    114 H114      -50.3437  -25.0434   19.2824 H         1 UNK         0.0814 
    115 H115      -49.9147  -25.1487   17.5799 H         1 UNK         0.0814 
    116 H116      -51.8503  -24.9083   16.0461 H         1 UNK         0.3091 
    117 H117      -54.4935  -26.5167   14.3224 H         1 UNK         0.0702 
    118 H118      -55.0233  -24.3011   13.3611 H         1 UNK         0.0785 
    119 H119      -54.2006  -23.4873   14.6915 H         1 UNK         0.0785 
    120 H120      -55.6711  -24.4082   14.9901 H         1 UNK         0.0785 
    121 H121      -52.5098  -24.7314   13.3716 H         1 UNK         0.2998 
    122 H122      -49.6255  -26.5217   13.9645 H         1 UNK         0.0697 
    123 H123      -50.8254  -26.8397   11.1649 H         1 UNK         0.0825 
    124 H124      -50.2188  -28.1508   12.1759 H         1 UNK         0.0825 
    125 H125      -49.1149  -26.9252   11.5713 H         1 UNK         0.0825 
    126 H126      -50.0669  -24.5969   11.9210 H         1 UNK         0.3029 
    127 H127      -50.9128  -21.8094   13.8618 H         1 UNK         0.0897 
    128 H128      -48.8385  -20.6835   13.0651 H         1 UNK         0.0792 
    129 H129      -48.4850  -21.7405   14.4218 H         1 UNK         0.0792 
    130 H130      -48.0719  -22.2488   12.7918 H         1 UNK         0.0792 
    131 H131      -49.9576  -22.0444   11.1721 H         1 UNK         0.3086 
    132 H132      -52.5378  -23.7348    9.7111 H         1 UNK         0.0583 
    133 H133      -54.0475  -21.7996    9.9396 H         1 UNK         0.1020 
    134 H134      -52.7373  -20.6881    9.6468 H         1 UNK         0.1020 
    135 H135      -55.6082  -22.5572    8.2274 H         1 UNK         0.0694 
    136 H136      -55.2990  -22.7742    6.5251 H         1 UNK         0.0694 
    137 H137      -50.7642  -22.0092    8.4070 H         1 UNK         0.2989 
    138 H138      -49.0242  -23.9594    7.2375 H         1 UNK         0.1055 
    139 H139      -47.3904  -22.0154    7.3082 H         1 UNK         0.0806 
    140 H140      -48.0537  -21.5476    8.8697 H         1 UNK         0.0806 
    141 H141      -49.0618  -21.5128    7.4260 H         1 UNK         0.0806 
    142 H142      -47.2478  -25.0609    7.9454 H         1 UNK         0.3061 
    143 H143      -44.9275  -24.7576   10.5472 H         1 UNK         0.0734 
    144 H144      -46.6191  -26.0745   11.7910 H         1 UNK         0.0832 
    145 H145      -47.0391  -26.9667   10.3379 H         1 UNK         0.0832 
    146 H146      -45.4375  -27.1473   11.0549 H         1 UNK         0.0832 
    147 H147      -45.4115  -26.7065    8.4523 H         1 UNK         0.3156 
    148 H148      -43.8659  -24.9488    5.8655 H         1 UNK         0.0589 
    149 H149      -42.2409  -26.9346    7.5463 H         1 UNK         0.0808 
    150 H150      -41.9494  -26.5264    5.8541 H         1 UNK         0.0808 
    151 H151      -41.7243  -25.3143    7.1022 H         1 UNK         0.0808 
    152 H152      -44.1438  -27.7528    6.1676 H         1 UNK         0.3098 
    153 H153      -46.7810  -27.9786    4.2478 H         1 UNK         0.0720 
    154 H154      -46.0985  -30.2535    5.0033 H         1 UNK         0.0791 
    155 H155      -45.2817  -29.5769    6.4034 H         1 UNK         0.0791 
    156 H156      -44.6998  -29.2278    4.7735 H         1 UNK         0.0791 
    157 H157      -48.6103  -28.4146    5.4071 H         1 UNK         0.3028 
@<TRIPOS>BOND
     1    1    2 1    
     2    1   82 1    
     3    1   83 1    
     4    1   84 1    
     5    2    3 2    
     6    2    4 am   BACKBONE|DICT|INTERRES
     7    4    5 1    
     8    4   85 1    
     9    5    6 1    
    10    5   80 1    
    11    5   86 1    
    12    6    7 1    
    13    6   87 1    
    14    6   88 1    
    15    7    8 1    
    16    8    9 1    
    17    8   89 1    
    18    8   90 1    
    19    9   10 ar   
    20    9   14 ar   
    21   10   11 ar   
    22   10   91 1    
    23   11   12 ar   
    24   11   58 1    
    25   12   13 ar   
    26   12   92 1    
    27   13   14 ar   
    28   13   15 1    
    29   14   93 1    
    30   15   16 1    
    31   15   94 1    
    32   15   95 1    
    33   16   17 1    
    34   17   18 1    
    35   17   96 1    
    36   17   97 1    
    37   18   19 1    
    38   18   22 1    
    39   18   98 1    
    40   19   20 am   BACKBONE|DICT|INTERRES
    41   19   21 2    
    42   20   99 1    
    43   20  100 1    
    44   22   23 am   BACKBONE|DICT|INTERRES
    45   22  101 1    
    46   23   24 2    
    47   23   25 1    
    48   25   26 1    
    49   25   27 1    
    50   25  102 1    
    51   26  103 1    
    52   26  104 1    
    53   26  105 1    
    54   27   28 am   BACKBONE|DICT|INTERRES
    55   27  106 1    
    56   28   29 2    
    57   28   30 1    
    58   30   31 1    
    59   30   32 1    
    60   30  107 1    
    61   31  108 1    
    62   31  109 1    
    63   31  110 1    
    64   32   33 am   BACKBONE|DICT|INTERRES
    65   32  111 1    
    66   33   34 2    
    67   33   35 1    
    68   35   36 1    
    69   35   37 1    
    70   35  112 1    
    71   36  113 1    
    72   36  114 1    
    73   36  115 1    
    74   37   38 am   BACKBONE|DICT|INTERRES
    75   37  116 1    
    76   38   39 2    
    77   38   40 1    
    78   40   41 1    
    79   40   42 1    
    80   40  117 1    
    81   41  118 1    
    82   41  119 1    
    83   41  120 1    
    84   42   43 am   BACKBONE|DICT|INTERRES
    85   42  121 1    
    86   43   44 2    
    87   43   45 1    
    88   45   46 1    
    89   45   47 1    
    90   45  122 1    
    91   46  123 1    
    92   46  124 1    
    93   46  125 1    
    94   47   48 am   BACKBONE|DICT|INTERRES
    95   47  126 1    
    96   48   49 2    
    97   48   50 1    
    98   50   51 1    
    99   50   52 1    
   100   50  127 1    
   101   51  128 1    
   102   51  129 1    
   103   51  130 1    
   104   52   53 am   BACKBONE|DICT|INTERRES
   105   52  131 1    
   106   53   54 2    
   107   53   55 1    
   108   55   56 1    
   109   55   59 1    
   110   55  132 1    
   111   56   57 1    
   112   56  133 1    
   113   56  134 1    
   114   57   58 1    
   115   58  135 1    
   116   58  136 1    
   117   59   60 am   BACKBONE|DICT|INTERRES
   118   59  137 1    
   119   60   61 2    
   120   60   62 1    
   121   62   63 1    
   122   62   64 1    
   123   62  138 1    
   124   63  139 1    
   125   63  140 1    
   126   63  141 1    
   127   64   65 am   BACKBONE|DICT|INTERRES
   128   64  142 1    
   129   65   66 2    
   130   65   67 1    
   131   67   68 1    
   132   67   69 1    
   133   67  143 1    
   134   68  144 1    
   135   68  145 1    
   136   68  146 1    
   137   69   70 am   BACKBONE|DICT|INTERRES
   138   69  147 1    
   139   70   71 2    
   140   70   72 1    
   141   72   73 1    
   142   72   74 1    
   143   72  148 1    
   144   73  149 1    
   145   73  150 1    
   146   73  151 1    
   147   74   75 am   BACKBONE|DICT|INTERRES
   148   74  152 1    
   149   75   76 2    
   150   75   77 1    
   151   77   78 1    
   152   77   79 1    
   153   77  153 1    
   154   78  154 1    
   155   78  155 1    
   156   78  156 1    
   157   79   80 am   BACKBONE|DICT|INTERRES
   158   79  157 1    
   159   80   81 2    
@<TRIPOS>SUBSTRUCTURE
     1 UNK         1 GROUP             0       ****    0 ROOT    
