@<TRIPOS>MOLECULE
3R207
157   159    1
SMALL
USER_CHARGES


@<TRIPOS>ATOM
      1 CA        -51.9883  -26.8166   10.3413 C.3       0 UNK        -0.1975 
      2 C         -52.9646  -26.4418    9.2340 C.2       0 UNK         0.4852 
      3 O         -54.0961  -26.0653    9.5334 O.2       0 UNK        -0.5216 
      4 N         -52.5737  -26.5169    7.9533 N.am      1 UNK        -0.4461 
      5 CA        -51.2161  -26.8244    7.4747 C.3       1 UNK         0.0864 
      6 C6        -51.1894  -27.2635    5.9898 C.3       14 UNK        -0.0898 
      7 S7        -52.3571  -28.6153    5.6157 S.3       14 UNK        -0.2598 
      8 C8        -51.3321  -30.1025    5.8652 C.3       14 UNK         0.0286 
      9 C9        -51.0909  -30.4109    7.3384 C.ar      14 UNK        -0.0844 
     10 C10       -49.7884  -30.4551    7.8490 C.ar      14 UNK        -0.0881 
     11 C11       -49.5635  -30.7665    9.1943 C.ar      14 UNK        -0.0643 
     12 C12       -50.6513  -31.0390   10.0277 C.ar      14 UNK        -0.0930 
     13 C13       -51.9563  -30.9930    9.5327 C.ar      14 UNK        -0.0827 
     14 C14       -52.1706  -30.6827    8.1868 C.ar      14 UNK        -0.1249 
     15 C15       -53.1258  -31.2743   10.4627 C.3       14 UNK         0.0141 
     16 S16       -53.4567  -29.8317   11.5141 S.3       14 UNK        -0.2313 
     17 C17       -54.7828  -30.4497   12.6021 C.3       14 UNK        -0.0915 
     18 CA        -56.2024  -30.0517   12.1196 C.3       13 UNK         0.0968 
     19 C         -57.2734  -30.5615   13.1234 C.2       13 UNK         0.5732 
     20 N         -57.8347  -31.7402   12.8881 N.am      13 UNK        -0.7310 
     21 O         -57.5620  -29.9230   14.1343 O.2       13 UNK        -0.5035 
     22 N         -56.2874  -28.6093   11.8526 N.am      13 UNK        -0.4233 
     23 C         -57.3433  -27.9504   11.3601 C.2       13 UNK         0.4989 
     24 O         -58.4113  -28.4919   11.0667 O.2       13 UNK        -0.4996 
     25 CA        -57.1657  -26.4420   11.0859 C.3       12 UNK         0.0216 
     26 CB        -58.4255  -25.6222   11.4417 C.3       12 UNK        -0.1964 
     27 N         -55.9512  -25.8529   11.6715 N.am      12 UNK        -0.4276 
     28 C         -55.6850  -25.6472   12.9694 C.2       12 UNK         0.5020 
     29 O         -56.4585  -25.9246   13.8892 O.2       12 UNK        -0.5489 
     30 CA        -54.3311  -24.9990   13.2951 C.3       11 UNK         0.0294 
     31 CB        -54.4659  -23.4699   13.3711 C.3       11 UNK        -0.2019 
     32 N         -53.8367  -25.4995   14.5782 N.am      11 UNK        -0.4493 
     33 C         -53.0488  -26.5707   14.7126 C.2       11 UNK         0.4932 
     34 O         -52.5786  -27.2019   13.7681 O.2       11 UNK        -0.5029 
     35 CA        -52.7409  -27.0348   16.1360 C.3       10 UNK         0.0280 
     36 CB        -53.4731  -28.3570   16.4414 C.3       10 UNK        -0.1976 
     37 N         -51.2940  -27.1947   16.2581 N.am      10 UNK        -0.4242 
     38 C         -50.6223  -27.3011   17.4116 C.2       10 UNK         0.5072 
     39 O         -51.1568  -27.3385   18.5210 O.2       10 UNK        -0.5224 
     40 CA        -49.0901  -27.3305   17.3156 C.3       9 UNK         0.0343 
     41 CB        -48.5862  -28.6502   16.7058 C.3       9 UNK        -0.2003 
     42 N         -48.6078  -26.1920   16.5334 N.am      9 UNK        -0.4272 
     43 C         -48.4404  -24.9563   17.0312 C.2       9 UNK         0.4988 
     44 O         -48.5688  -24.6770   18.2240 O.2       9 UNK        -0.5108 
     45 CA        -48.0701  -23.8330   16.0454 C.3       8 UNK         0.0248 
     46 CB        -46.5504  -23.6014   16.0388 C.3       8 UNK        -0.2001 
     47 N         -48.5382  -24.0992   14.6830 N.am      8 UNK        -0.4140 
     48 C         -49.8243  -24.0159   14.3058 C.2       8 UNK         0.5028 
     49 O         -50.7220  -23.6080   15.0429 O.2       8 UNK        -0.5428 
     50 CA        -50.1925  -24.4862   12.8852 C.3       7 UNK         0.0264 
     51 CB        -50.4262  -23.2887   11.9510 C.3       7 UNK        -0.1988 
     52 N         -49.2247  -25.4018   12.2732 N.am      7 UNK        -0.4454 
     53 C         -48.9139  -26.6179   12.7487 C.2       7 UNK         0.5027 
     54 O         -49.3946  -27.0900   13.7799 O.2       7 UNK        -0.5083 
     55 CA        -47.8487  -27.4179   11.9693 C.3       6 UNK         0.0844 
     56 C56       -48.5328  -28.2154   10.8328 C.3       14 UNK        -0.0967 
     57 S57       -47.3619  -29.1786    9.8139 S.3       14 UNK        -0.2604 
     58 C58       -48.1480  -30.8195    9.7543 C.3       14 UNK         0.0134 
     59 N         -46.7420  -26.5995   11.4578 N.am      6 UNK        -0.4116 
     60 C         -46.0140  -25.6846   12.1139 C.2       5 UNK         0.5034 
     61 O         -46.2205  -25.3567   13.2821 O.2       5 UNK        -0.5045 
     62 CA        -44.8600  -25.0086   11.3444 C.3       5 UNK         0.0224 
     63 CB        -43.5062  -25.3904   11.9660 C.3       5 UNK        -0.1978 
     64 N         -44.8200  -25.3003    9.9038 N.am      5 UNK        -0.4737 
     65 C         -45.7309  -24.8910    9.0114 C.2       4 UNK         0.5027 
     66 O         -46.7227  -24.2264    9.3201 O.2       4 UNK        -0.5211 
     67 CA        -45.4959  -25.3217    7.5531 C.3       4 UNK         0.0297 
     68 CB        -45.5237  -26.8540    7.4099 C.3       4 UNK        -0.1993 
     69 N         -46.5540  -24.7716    6.7142 N.am      4 UNK        -0.4486 
     70 C         -46.3993  -23.9203    5.6926 C.2       3 UNK         0.4961 
     71 O         -45.3047  -23.5670    5.2524 O.2       3 UNK        -0.5105 
     72 CA        -47.6847  -23.3584    5.0477 C.3       3 UNK         0.0299 
     73 CB        -48.0011  -24.1056    3.7420 C.3       3 UNK        -0.1972 
     74 N         -48.8470  -23.4366    5.9370 N.am      3 UNK        -0.4305 
     75 C         -48.9932  -22.7235    7.0626 C.2       2 UNK         0.5006 
     76 O         -48.2738  -21.7675    7.3552 O.2       2 UNK        -0.5106 
     77 CA        -50.1010  -23.1526    8.0461 C.3       2 UNK         0.0296 
     78 CB        -51.1507  -22.0399    8.2096 C.3       2 UNK        -0.2002 
     79 N         -50.7920  -24.4111    7.7313 N.am      2 UNK        -0.4032 
     80 C         -50.2508  -25.6404    7.6987 C.2       1 UNK         0.5000 
     81 O         -49.0495  -25.8604    7.8422 O.2       1 UNK        -0.5238 
     82 H82       -51.5560  -27.8020   10.1724 H         1 UNK         0.0889 
     83 H83       -52.5072  -26.8625   11.2940 H         1 UNK         0.0889 
     84 H84       -51.1928  -26.0800   10.4267 H         1 UNK         0.0889 
     85 H85       -53.2550  -26.3319    7.2308 H         1 UNK         0.3028 
     86 H86       -50.8257  -27.6613    8.0546 H         1 UNK         0.0864 
     87 H87       -51.4460  -26.4257    5.3385 H         1 UNK         0.0720 
     88 H88       -50.1834  -27.5740    5.7001 H         1 UNK         0.0720 
     89 H89       -50.3912  -29.9911    5.3241 H         1 UNK         0.0814 
     90 H90       -51.8419  -30.9542    5.4130 H         1 UNK         0.0814 
     91 H91       -48.9452  -30.2478    7.2041 H         1 UNK         0.1469 
     92 H92       -50.4868  -31.2772   11.0699 H         1 UNK         0.1381 
     93 H93       -53.1788  -30.6471    7.7967 H         1 UNK         0.1206 
     94 H94       -52.8991  -32.1404   11.0865 H         1 UNK         0.0813 
     95 H95       -54.0230  -31.5226    9.8937 H         1 UNK         0.0813 
     96 H96       -54.6963  -31.5340   12.6936 H         1 UNK         0.0638 
     97 H97       -54.5951  -30.0454   13.5992 H         1 UNK         0.0638 
     98 H98       -56.3804  -30.5473   11.1631 H         1 UNK         0.0568 
     99 H99       -58.5187  -32.0941   13.5390 H         1 UNK         0.3450 
    100 H100      -57.5968  -32.2792   12.0699 H         1 UNK         0.3450 
    101 H101      -55.4506  -28.0838   12.0568 H         1 UNK         0.2987 
    102 H102      -57.0272  -26.3627   10.0063 H         1 UNK         0.0766 
    103 H103      -58.2845  -24.5628   11.2264 H         1 UNK         0.0798 
    104 H104      -58.6906  -25.7197   12.4950 H         1 UNK         0.0798 
    105 H105      -59.2863  -25.9566   10.8613 H         1 UNK         0.0798 
    106 H106      -55.2222  -25.6589   10.9852 H         1 UNK         0.3198 
    107 H107      -53.6195  -25.2367   12.5031 H         1 UNK         0.0843 
    108 H108      -55.1895  -23.1639   14.1278 H         1 UNK         0.0831 
    109 H109      -54.7986  -23.0595   12.4168 H         1 UNK         0.0831 
    110 H110      -53.5109  -23.0008   13.6104 H         1 UNK         0.0831 
    111 H111      -54.2342  -25.0760   15.4047 H         1 UNK         0.3133 
    112 H112      -53.0695  -26.2684   16.8413 H         1 UNK         0.0566 
    113 H113      -53.3208  -28.6740   17.4729 H         1 UNK         0.0814 
    114 H114      -54.5486  -28.2502   16.2923 H         1 UNK         0.0814 
    115 H115      -53.1325  -29.1626   15.7893 H         1 UNK         0.0814 
    116 H116      -50.7830  -27.1780   15.3784 H         1 UNK         0.3091 
    117 H117      -48.6863  -27.2623   18.3283 H         1 UNK         0.0702 
    118 H118      -47.4974  -28.6722   16.6568 H         1 UNK         0.0785 
    119 H119      -48.9690  -28.8149   15.6986 H         1 UNK         0.0785 
    120 H120      -48.9001  -29.5002   17.3130 H         1 UNK         0.0785 
    121 H121      -48.5359  -26.3320   15.5325 H         1 UNK         0.2998 
    122 H122      -48.5475  -22.9151   16.3955 H         1 UNK         0.0697 
    123 H123      -46.0037  -24.5051   15.7673 H         1 UNK         0.0825 
    124 H124      -46.2007  -23.2977   17.0264 H         1 UNK         0.0825 
    125 H125      -46.2689  -22.8146   15.3388 H         1 UNK         0.0825 
    126 H126      -47.8486  -24.4628   14.0316 H         1 UNK         0.3029 
    127 H127      -51.1356  -25.0271   12.9748 H         1 UNK         0.0897 
    128 H128      -50.8710  -23.6071   11.0090 H         1 UNK         0.0792 
    129 H129      -51.1142  -22.5700   12.3990 H         1 UNK         0.0792 
    130 H130      -49.4987  -22.7591   11.7299 H         1 UNK         0.0792 
    131 H131      -48.7433  -25.0742   11.4466 H         1 UNK         0.3086 
    132 H132      -47.4081  -28.1302   12.6695 H         1 UNK         0.0583 
    133 H133      -49.2866  -28.8822   11.2553 H         1 UNK         0.1020 
    134 H134      -49.0638  -27.5438   10.1562 H         1 UNK         0.1020 
    135 H135      -47.5410  -31.4789    9.1324 H         1 UNK         0.0694 
    136 H136      -48.1402  -31.2516   10.7564 H         1 UNK         0.0694 
    137 H137      -46.4825  -26.7904   10.5012 H         1 UNK         0.2989 
    138 H138      -44.9984  -23.9315   11.4627 H         1 UNK         0.1055 
    139 H139      -43.4805  -25.1485   13.0297 H         1 UNK         0.0806 
    140 H140      -42.6852  -24.8487   11.4956 H         1 UNK         0.0806 
    141 H141      -43.3048  -26.4582   11.8707 H         1 UNK         0.0806 
    142 H142      -44.0330  -25.8441    9.5777 H         1 UNK         0.3061 
    143 H143      -44.5185  -24.9453    7.2443 H         1 UNK         0.0734 
    144 H144      -45.3433  -27.1539    6.3775 H         1 UNK         0.0832 
    145 H145      -44.7586  -27.3349    8.0200 H         1 UNK         0.0832 
    146 H146      -46.4895  -27.2643    7.7071 H         1 UNK         0.0832 
    147 H147      -47.4923  -24.9634    7.0575 H         1 UNK         0.3156 
    148 H148      -47.5051  -22.3080    4.8091 H         1 UNK         0.0589 
    149 H149      -48.1952  -25.1644    3.9184 H         1 UNK         0.0808 
    150 H150      -48.8719  -23.6814    3.2417 H         1 UNK         0.0808 
    151 H151      -47.1651  -24.0403    3.0440 H         1 UNK         0.0808 
    152 H152      -49.4973  -24.1884    5.7664 H         1 UNK         0.3098 
    153 H153      -49.6023  -23.2942    9.0066 H         1 UNK         0.0720 
    154 H154      -50.6833  -21.0987    8.5029 H         1 UNK         0.0791 
    155 H155      -51.8789  -22.2883    8.9820 H         1 UNK         0.0791 
    156 H156      -51.6927  -21.8587    7.2807 H         1 UNK         0.0791 
    157 H157      -51.7890  -24.3403    7.5848 H         1 UNK         0.3028 
@<TRIPOS>BOND
     1    1    2 1    
     2    1   82 1    
     3    1   83 1    
     4    1   84 1    
     5    2    3 2    
     6    2    4 am   BACKBONE|DICT|INTERRES
     7    4    5 1    
     8    4   85 1    
     9    5    6 1    
    10    5   80 1    
    11    5   86 1    
    12    6    7 1    
    13    6   87 1    
    14    6   88 1    
    15    7    8 1    
    16    8    9 1    
    17    8   89 1    
    18    8   90 1    
    19    9   10 ar   
    20    9   14 ar   
    21   10   11 ar   
    22   10   91 1    
    23   11   12 ar   
    24   11   58 1    
    25   12   13 ar   
    26   12   92 1    
    27   13   14 ar   
    28   13   15 1    
    29   14   93 1    
    30   15   16 1    
    31   15   94 1    
    32   15   95 1    
    33   16   17 1    
    34   17   18 1    
    35   17   96 1    
    36   17   97 1    
    37   18   19 1    
    38   18   22 1    
    39   18   98 1    
    40   19   20 am   BACKBONE|DICT|INTERRES
    41   19   21 2    
    42   20   99 1    
    43   20  100 1    
    44   22   23 am   BACKBONE|DICT|INTERRES
    45   22  101 1    
    46   23   24 2    
    47   23   25 1    
    48   25   26 1    
    49   25   27 1    
    50   25  102 1    
    51   26  103 1    
    52   26  104 1    
    53   26  105 1    
    54   27   28 am   BACKBONE|DICT|INTERRES
    55   27  106 1    
    56   28   29 2    
    57   28   30 1    
    58   30   31 1    
    59   30   32 1    
    60   30  107 1    
    61   31  108 1    
    62   31  109 1    
    63   31  110 1    
    64   32   33 am   BACKBONE|DICT|INTERRES
    65   32  111 1    
    66   33   34 2    
    67   33   35 1    
    68   35   36 1    
    69   35   37 1    
    70   35  112 1    
    71   36  113 1    
    72   36  114 1    
    73   36  115 1    
    74   37   38 am   BACKBONE|DICT|INTERRES
    75   37  116 1    
    76   38   39 2    
    77   38   40 1    
    78   40   41 1    
    79   40   42 1    
    80   40  117 1    
    81   41  118 1    
    82   41  119 1    
    83   41  120 1    
    84   42   43 am   BACKBONE|DICT|INTERRES
    85   42  121 1    
    86   43   44 2    
    87   43   45 1    
    88   45   46 1    
    89   45   47 1    
    90   45  122 1    
    91   46  123 1    
    92   46  124 1    
    93   46  125 1    
    94   47   48 am   BACKBONE|DICT|INTERRES
    95   47  126 1    
    96   48   49 2    
    97   48   50 1    
    98   50   51 1    
    99   50   52 1    
   100   50  127 1    
   101   51  128 1    
   102   51  129 1    
   103   51  130 1    
   104   52   53 am   BACKBONE|DICT|INTERRES
   105   52  131 1    
   106   53   54 2    
   107   53   55 1    
   108   55   56 1    
   109   55   59 1    
   110   55  132 1    
   111   56   57 1    
   112   56  133 1    
   113   56  134 1    
   114   57   58 1    
   115   58  135 1    
   116   58  136 1    
   117   59   60 am   BACKBONE|DICT|INTERRES
   118   59  137 1    
   119   60   61 2    
   120   60   62 1    
   121   62   63 1    
   122   62   64 1    
   123   62  138 1    
   124   63  139 1    
   125   63  140 1    
   126   63  141 1    
   127   64   65 am   BACKBONE|DICT|INTERRES
   128   64  142 1    
   129   65   66 2    
   130   65   67 1    
   131   67   68 1    
   132   67   69 1    
   133   67  143 1    
   134   68  144 1    
   135   68  145 1    
   136   68  146 1    
   137   69   70 am   BACKBONE|DICT|INTERRES
   138   69  147 1    
   139   70   71 2    
   140   70   72 1    
   141   72   73 1    
   142   72   74 1    
   143   72  148 1    
   144   73  149 1    
   145   73  150 1    
   146   73  151 1    
   147   74   75 am   BACKBONE|DICT|INTERRES
   148   74  152 1    
   149   75   76 2    
   150   75   77 1    
   151   77   78 1    
   152   77   79 1    
   153   77  153 1    
   154   78  154 1    
   155   78  155 1    
   156   78  156 1    
   157   79   80 am   BACKBONE|DICT|INTERRES
   158   79  157 1    
   159   80   81 2    
@<TRIPOS>SUBSTRUCTURE
     1 UNK         1 GROUP             0       ****    0 ROOT    
