@<TRIPOS>MOLECULE
3R207
157   159    1
SMALL
USER_CHARGES


@<TRIPOS>ATOM
      1 CA        -50.6714  -22.6481    3.9818 C.3       0 UNK        -0.1975 
      2 C         -50.7016  -23.1282    5.4252 C.2       0 UNK         0.4852 
      3 O         -51.1430  -22.3911    6.3066 O.2       0 UNK        -0.5216 
      4 N         -50.2214  -24.3538    5.6772 N.am      1 UNK        -0.4461 
      5 CA        -50.2268  -25.0111    6.9943 C.3       1 UNK         0.0864 
      6 C6        -50.2164  -26.5575    6.8665 C.3       14 UNK        -0.0898 
      7 S7        -51.6143  -27.1873    5.8821 S.3       14 UNK        -0.2598 
      8 C8        -51.4514  -28.9833    6.1327 C.3       14 UNK         0.0286 
      9 C9        -52.1740  -29.4563    7.3868 C.ar      14 UNK        -0.0844 
     10 C10       -51.4601  -29.7816    8.5450 C.ar      14 UNK        -0.0881 
     11 C11       -52.1256  -30.2538    9.6863 C.ar      14 UNK        -0.0643 
     12 C12       -53.5136  -30.4108    9.6428 C.ar      14 UNK        -0.0930 
     13 C13       -54.2405  -30.0762    8.4986 C.ar      14 UNK        -0.0827 
     14 C14       -53.5643  -29.5991    7.3733 C.ar      14 UNK        -0.1249 
     15 C15       -55.7524  -30.2462    8.4705 C.3       14 UNK         0.0141 
     16 S16       -56.6103  -28.8189    9.2084 S.3       14 UNK        -0.2313 
     17 C17       -56.4918  -29.1710   10.9974 C.3       14 UNK        -0.0915 
     18 CA        -55.4714  -28.2591   11.7463 C.3       13 UNK         0.0968 
     19 C         -56.0760  -26.8744   12.1379 C.2       13 UNK         0.5732 
     20 N         -55.9808  -26.4333   13.3857 N.am      13 UNK        -0.7310 
     21 O         -56.6087  -26.1661   11.2882 O.2       13 UNK        -0.5035 
     22 N         -54.7633  -28.9670   12.8336 N.am      13 UNK        -0.4233 
     23 C         -55.3413  -29.5866   13.8729 C.2       13 UNK         0.4989 
     24 O         -56.5556  -29.6149   14.0694 O.2       13 UNK        -0.4996 
     25 CA        -54.4100  -30.2742   14.8768 C.3       12 UNK         0.0216 
     26 CB        -53.6704  -31.4745   14.2588 C.3       12 UNK        -0.1964 
     27 N         -53.4595  -29.3234   15.4561 N.am      12 UNK        -0.4276 
     28 C         -53.0639  -29.3361   16.7364 C.2       12 UNK         0.5020 
     29 O         -53.4154  -30.1834   17.5589 O.2       12 UNK        -0.5489 
     30 CA        -52.1234  -28.2065   17.1848 C.3       11 UNK         0.0294 
     31 CB        -50.6548  -28.6156   16.9877 C.3       11 UNK        -0.2019 
     32 N         -52.3846  -26.9584   16.4663 N.am      11 UNK        -0.4493 
     33 C         -53.3791  -26.1085   16.7571 C.2       11 UNK         0.4932 
     34 O         -54.1683  -26.2765   17.6882 O.2       11 UNK        -0.5029 
     35 CA        -53.5093  -24.8703   15.8473 C.3       10 UNK         0.0280 
     36 CB        -54.4125  -23.7704   16.4436 C.3       10 UNK        -0.1976 
     37 N         -52.2131  -24.3189   15.4366 N.am      10 UNK        -0.4242 
     38 C         -51.2375  -23.8459   16.2305 C.2       10 UNK         0.5072 
     39 O         -51.3310  -23.7615   17.4559 O.2       10 UNK        -0.5224 
     40 CA        -49.9150  -23.4194   15.5633 C.3       9 UNK         0.0343 
     41 CB        -48.7742  -24.3541   16.0020 C.3       9 UNK        -0.2003 
     42 N         -49.9760  -23.4086   14.1000 N.am      9 UNK        -0.4272 
     43 C         -50.5389  -22.4444   13.3602 C.2       9 UNK         0.4988 
     44 O         -51.0110  -21.4084   13.8289 O.2       9 UNK        -0.5108 
     45 CA        -50.6240  -22.6963   11.8438 C.3       8 UNK         0.0248 
     46 CB        -49.3279  -22.2581   11.1474 C.3       8 UNK        -0.2001 
     47 N         -50.9306  -24.0888   11.4901 N.am      8 UNK        -0.4140 
     48 C         -52.0651  -24.7215   11.8289 C.2       8 UNK         0.5028 
     49 O         -52.9589  -24.2063   12.4983 O.2       8 UNK        -0.5428 
     50 CA        -52.2175  -26.1841   11.3946 C.3       7 UNK         0.0264 
     51 CB        -52.5747  -26.2933    9.9072 C.3       7 UNK        -0.1988 
     52 N         -51.0088  -26.9538   11.6816 N.am      7 UNK        -0.4454 
     53 C         -50.7726  -27.5489   12.8584 C.2       7 UNK         0.5027 
     54 O         -51.6031  -27.5995   13.7700 O.2       7 UNK        -0.5083 
     55 CA        -49.3917  -28.2130   13.0611 C.3       6 UNK         0.0844 
     56 C56       -49.4585  -29.7451   12.8379 C.3       14 UNK        -0.0967 
     57 S57       -49.6382  -30.2132   11.0776 S.3       14 UNK        -0.2604 
     58 C58       -51.4188  -30.6005   10.9965 C.3       14 UNK         0.0134 
     59 N         -48.3011  -27.6113   12.2877 N.am      6 UNK        -0.4116 
     60 C         -47.8985  -26.3371   12.3176 C.2       5 UNK         0.5034 
     61 O         -48.4535  -25.4655   12.9830 O.2       5 UNK        -0.5045 
     62 CA        -46.6949  -25.9461   11.4454 C.3       5 UNK         0.0224 
     63 CB        -45.3883  -25.9802   12.2596 C.3       5 UNK        -0.1978 
     64 N         -46.5649  -26.6938   10.1864 N.am      5 UNK        -0.4737 
     65 C         -46.2714  -27.9856    9.9753 C.2       4 UNK         0.5027 
     66 O         -46.1000  -28.8059   10.8758 O.2       4 UNK        -0.5211 
     67 CA        -46.1930  -28.4479    8.5091 C.3       4 UNK         0.0297 
     68 CB        -47.5059  -29.1307    8.0971 C.3       4 UNK        -0.1993 
     69 N         -45.9199  -27.3392    7.5905 N.am      4 UNK        -0.4486 
     70 C         -44.7070  -26.8056    7.3873 C.2       3 UNK         0.4961 
     71 O         -43.6655  -27.2534    7.8672 O.2       3 UNK        -0.5105 
     72 CA        -44.6617  -25.5344    6.5232 C.3       3 UNK         0.0299 
     73 CB        -44.7009  -25.8890    5.0277 C.3       3 UNK        -0.1972 
     74 N         -45.7519  -24.6055    6.8407 N.am      3 UNK        -0.4305 
     75 C         -45.8561  -23.9212    7.9911 C.2       2 UNK         0.5006 
     76 O         -45.0253  -23.9737    8.8970 O.2       2 UNK        -0.5106 
     77 CA        -47.1043  -23.0463    8.1803 C.3       2 UNK         0.0296 
     78 CB        -46.8321  -21.6063    7.7177 C.3       2 UNK        -0.2002 
     79 N         -48.2737  -23.5710    7.4723 N.am      2 UNK        -0.4032 
     80 C         -49.0881  -24.5342    7.9280 C.2       1 UNK         0.5000 
     81 O         -48.9592  -25.0603    9.0369 O.2       1 UNK        -0.5238 
     82 H82       -50.2451  -23.3948    3.3120 H         1 UNK         0.0889 
     83 H83       -50.0762  -21.7391    3.9001 H         1 UNK         0.0889 
     84 H84       -51.6821  -22.4254    3.6408 H         1 UNK         0.0889 
     85 H85       -49.8928  -24.9232    4.9097 H         1 UNK         0.3028 
     86 H86       -51.1559  -24.7252    7.4897 H         1 UNK         0.0864 
     87 H87       -49.2887  -26.8997    6.4046 H         1 UNK         0.0720 
     88 H88       -50.2663  -27.0280    7.8498 H         1 UNK         0.0720 
     89 H89       -50.3966  -29.2613    6.1597 H         1 UNK         0.0814 
     90 H90       -51.8736  -29.4940    5.2660 H         1 UNK         0.0814 
     91 H91       -50.3873  -29.6686    8.5447 H         1 UNK         0.1469 
     92 H92       -54.0335  -30.7884   10.5118 H         1 UNK         0.1381 
     93 H93       -54.1187  -29.3436    6.4804 H         1 UNK         0.1206 
     94 H94       -56.0924  -30.3561    7.4396 H         1 UNK         0.0813 
     95 H95       -56.0429  -31.1669    8.9785 H         1 UNK         0.0813 
     96 H96       -56.2280  -30.2216   11.1195 H         1 UNK         0.0638 
     97 H97       -57.4875  -29.0793   11.4352 H         1 UNK         0.0638 
     98 H98       -54.6783  -28.0215   11.0385 H         1 UNK         0.0568 
     99 H99       -56.3638  -25.5297   13.6123 H         1 UNK         0.3450 
    100 H100      -55.5966  -27.0191   14.1065 H         1 UNK         0.3450 
    101 H101      -53.7573  -28.9662   12.7649 H         1 UNK         0.2987 
    102 H102      -55.0563  -30.6598   15.6689 H         1 UNK         0.0766 
    103 H103      -53.1656  -32.0591   15.0283 H         1 UNK         0.0798 
    104 H104      -52.9179  -31.1653   13.5364 H         1 UNK         0.0798 
    105 H105      -54.3638  -32.1445   13.7483 H         1 UNK         0.0798 
    106 H106      -53.0897  -28.5946   14.8554 H         1 UNK         0.3198 
    107 H107      -52.2873  -28.0361   18.2514 H         1 UNK         0.0843 
    108 H108      -50.4402  -28.8675   15.9497 H         1 UNK         0.0831 
    109 H109      -50.4148  -29.4937   17.5887 H         1 UNK         0.0831 
    110 H110      -49.9746  -27.8194   17.2909 H         1 UNK         0.0831 
    111 H111      -51.8317  -26.7909   15.6332 H         1 UNK         0.3133 
    112 H112      -53.9832  -25.2205   14.9305 H         1 UNK         0.0566 
    113 H113      -54.5015  -22.9216   15.7656 H         1 UNK         0.0814 
    114 H114      -55.4202  -24.1465   16.6239 H         1 UNK         0.0814 
    115 H115      -54.0282  -23.4018   17.3952 H         1 UNK         0.0814 
    116 H116      -52.0622  -24.2977   14.4346 H         1 UNK         0.3091 
    117 H117      -49.6833  -22.4104   15.9106 H         1 UNK         0.0702 
    118 H118      -47.8238  -24.0560   15.5588 H         1 UNK         0.0785 
    119 H119      -48.9677  -25.3882   15.7133 H         1 UNK         0.0785 
    120 H120      -48.6460  -24.3365   17.0851 H         1 UNK         0.0785 
    121 H121      -49.5472  -24.2032   13.6256 H         1 UNK         0.2998 
    122 H122      -51.4372  -22.0766   11.4600 H         1 UNK         0.0697 
    123 H123      -48.4884  -22.8988   11.4193 H         1 UNK         0.0825 
    124 H124      -49.0617  -21.2357   11.4193 H         1 UNK         0.0825 
    125 H125      -49.4409  -22.2819   10.0640 H         1 UNK         0.0825 
    126 H126      -50.2343  -24.5817   10.9460 H         1 UNK         0.3029 
    127 H127      -53.0495  -26.5976   11.9650 H         1 UNK         0.0897 
    128 H128      -52.7511  -27.3273    9.6121 H         1 UNK         0.0792 
    129 H129      -53.4821  -25.7324    9.6786 H         1 UNK         0.0792 
    130 H130      -51.7786  -25.9006    9.2818 H         1 UNK         0.0792 
    131 H131      -50.2860  -26.9754   10.9764 H         1 UNK         0.3086 
    132 H132      -49.1354  -28.0468   14.1088 H         1 UNK         0.0583 
    133 H133      -48.5349  -30.1986   13.2014 H         1 UNK         0.1020 
    134 H134      -50.2499  -30.1978   13.4391 H         1 UNK         0.1020 
    135 H135      -51.5543  -31.6615   11.2107 H         1 UNK         0.0694 
    136 H136      -51.9280  -30.0528   11.7879 H         1 UNK         0.0694 
    137 H137      -47.7450  -28.2521   11.7293 H         1 UNK         0.2989 
    138 H138      -46.8655  -24.9100   11.1482 H         1 UNK         0.1055 
    139 H139      -45.4623  -25.3400   13.1398 H         1 UNK         0.0806 
    140 H140      -44.5466  -25.6206   11.6672 H         1 UNK         0.0806 
    141 H141      -45.1494  -26.9849   12.6091 H         1 UNK         0.0806 
    142 H142      -46.7536  -26.1383    9.3646 H         1 UNK         0.3061 
    143 H143      -45.3862  -29.1800    8.4313 H         1 UNK         0.0734 
    144 H144      -47.4813  -29.4550    7.0566 H         1 UNK         0.0832 
    145 H145      -47.6873  -30.0172    8.7062 H         1 UNK         0.0832 
    146 H146      -48.3599  -28.4671    8.2272 H         1 UNK         0.0832 
    147 H147      -46.7115  -26.9203    7.1273 H         1 UNK         0.3156 
    148 H148      -43.7158  -25.0273    6.7260 H         1 UNK         0.0589 
    149 H149      -45.6342  -26.3788    4.7474 H         1 UNK         0.0808 
    150 H150      -44.5881  -25.0002    4.4064 H         1 UNK         0.0808 
    151 H151      -43.8870  -26.5676    4.7680 H         1 UNK         0.0808 
    152 H152      -46.4641  -24.4803    6.1372 H         1 UNK         0.3098 
    153 H153      -47.3179  -23.0223    9.2496 H         1 UNK         0.0720 
    154 H154      -47.6880  -20.9601    7.9142 H         1 UNK         0.0791 
    155 H155      -46.6108  -21.5562    6.6509 H         1 UNK         0.0791 
    156 H156      -45.9789  -21.1810    8.2484 H         1 UNK         0.0791 
    157 H157      -48.4831  -23.1689    6.5702 H         1 UNK         0.3028 
@<TRIPOS>BOND
     1    1    2 1    
     2    1   82 1    
     3    1   83 1    
     4    1   84 1    
     5    2    3 2    
     6    2    4 am   BACKBONE|DICT|INTERRES
     7    4    5 1    
     8    4   85 1    
     9    5    6 1    
    10    5   80 1    
    11    5   86 1    
    12    6    7 1    
    13    6   87 1    
    14    6   88 1    
    15    7    8 1    
    16    8    9 1    
    17    8   89 1    
    18    8   90 1    
    19    9   10 ar   
    20    9   14 ar   
    21   10   11 ar   
    22   10   91 1    
    23   11   12 ar   
    24   11   58 1    
    25   12   13 ar   
    26   12   92 1    
    27   13   14 ar   
    28   13   15 1    
    29   14   93 1    
    30   15   16 1    
    31   15   94 1    
    32   15   95 1    
    33   16   17 1    
    34   17   18 1    
    35   17   96 1    
    36   17   97 1    
    37   18   19 1    
    38   18   22 1    
    39   18   98 1    
    40   19   20 am   BACKBONE|DICT|INTERRES
    41   19   21 2    
    42   20   99 1    
    43   20  100 1    
    44   22   23 am   BACKBONE|DICT|INTERRES
    45   22  101 1    
    46   23   24 2    
    47   23   25 1    
    48   25   26 1    
    49   25   27 1    
    50   25  102 1    
    51   26  103 1    
    52   26  104 1    
    53   26  105 1    
    54   27   28 am   BACKBONE|DICT|INTERRES
    55   27  106 1    
    56   28   29 2    
    57   28   30 1    
    58   30   31 1    
    59   30   32 1    
    60   30  107 1    
    61   31  108 1    
    62   31  109 1    
    63   31  110 1    
    64   32   33 am   BACKBONE|DICT|INTERRES
    65   32  111 1    
    66   33   34 2    
    67   33   35 1    
    68   35   36 1    
    69   35   37 1    
    70   35  112 1    
    71   36  113 1    
    72   36  114 1    
    73   36  115 1    
    74   37   38 am   BACKBONE|DICT|INTERRES
    75   37  116 1    
    76   38   39 2    
    77   38   40 1    
    78   40   41 1    
    79   40   42 1    
    80   40  117 1    
    81   41  118 1    
    82   41  119 1    
    83   41  120 1    
    84   42   43 am   BACKBONE|DICT|INTERRES
    85   42  121 1    
    86   43   44 2    
    87   43   45 1    
    88   45   46 1    
    89   45   47 1    
    90   45  122 1    
    91   46  123 1    
    92   46  124 1    
    93   46  125 1    
    94   47   48 am   BACKBONE|DICT|INTERRES
    95   47  126 1    
    96   48   49 2    
    97   48   50 1    
    98   50   51 1    
    99   50   52 1    
   100   50  127 1    
   101   51  128 1    
   102   51  129 1    
   103   51  130 1    
   104   52   53 am   BACKBONE|DICT|INTERRES
   105   52  131 1    
   106   53   54 2    
   107   53   55 1    
   108   55   56 1    
   109   55   59 1    
   110   55  132 1    
   111   56   57 1    
   112   56  133 1    
   113   56  134 1    
   114   57   58 1    
   115   58  135 1    
   116   58  136 1    
   117   59   60 am   BACKBONE|DICT|INTERRES
   118   59  137 1    
   119   60   61 2    
   120   60   62 1    
   121   62   63 1    
   122   62   64 1    
   123   62  138 1    
   124   63  139 1    
   125   63  140 1    
   126   63  141 1    
   127   64   65 am   BACKBONE|DICT|INTERRES
   128   64  142 1    
   129   65   66 2    
   130   65   67 1    
   131   67   68 1    
   132   67   69 1    
   133   67  143 1    
   134   68  144 1    
   135   68  145 1    
   136   68  146 1    
   137   69   70 am   BACKBONE|DICT|INTERRES
   138   69  147 1    
   139   70   71 2    
   140   70   72 1    
   141   72   73 1    
   142   72   74 1    
   143   72  148 1    
   144   73  149 1    
   145   73  150 1    
   146   73  151 1    
   147   74   75 am   BACKBONE|DICT|INTERRES
   148   74  152 1    
   149   75   76 2    
   150   75   77 1    
   151   77   78 1    
   152   77   79 1    
   153   77  153 1    
   154   78  154 1    
   155   78  155 1    
   156   78  156 1    
   157   79   80 am   BACKBONE|DICT|INTERRES
   158   79  157 1    
   159   80   81 2    
@<TRIPOS>SUBSTRUCTURE
     1 UNK         1 GROUP             0       ****    0 ROOT    
