@<TRIPOS>MOLECULE
3R207
157   159    1
SMALL
USER_CHARGES


@<TRIPOS>ATOM
      1 CA        -46.7881  -31.6176    6.1666 C.3       0 UNK        -0.1975 
      2 C         -47.6438  -30.4025    6.4907 C.2       0 UNK         0.4852 
      3 O         -47.3666  -29.7063    7.4675 O.2       0 UNK        -0.5216 
      4 N         -48.6647  -30.1317    5.6644 N.am      1 UNK        -0.4461 
      5 CA        -49.6760  -29.0632    5.7732 C.3       1 UNK         0.0864 
      6 C6        -50.5287  -29.1322    7.0661 C.3       14 UNK        -0.0898 
      7 S7        -51.4472  -30.7040    7.2053 S.3       14 UNK        -0.2598 
      8 C8        -52.0989  -30.5951    8.9026 C.3       14 UNK         0.0286 
      9 C9        -53.0328  -29.4059    9.0701 C.ar      14 UNK        -0.0844 
     10 C10       -52.5598  -28.2208    9.6382 C.ar      14 UNK        -0.0881 
     11 C11       -53.3909  -27.1031    9.7464 C.ar      14 UNK        -0.0643 
     12 C12       -54.7175  -27.1878    9.3141 C.ar      14 UNK        -0.0930 
     13 C13       -55.2119  -28.3785    8.7730 C.ar      14 UNK        -0.0827 
     14 C14       -54.3617  -29.4816    8.6432 C.ar      14 UNK        -0.1249 
     15 C15       -56.6600  -28.4597    8.3129 C.3       14 UNK         0.0141 
     16 S16       -57.7949  -28.7768    9.7010 S.3       14 UNK        -0.2313 
     17 C17       -57.5703  -30.5708    9.9474 C.3       14 UNK        -0.0915 
     18 CA        -57.9390  -31.0326   11.3799 C.3       13 UNK         0.0968 
     19 C         -57.8547  -32.5803   11.4870 C.2       13 UNK         0.5732 
     20 N         -58.9431  -33.2821   11.2018 N.am      13 UNK        -0.7310 
     21 O         -56.8045  -33.1488   11.7821 O.2       13 UNK        -0.5035 
     22 N         -57.1229  -30.3451   12.3903 N.am      13 UNK        -0.4233 
     23 C         -57.3064  -30.4180   13.7148 C.2       13 UNK         0.4989 
     24 O         -58.2184  -31.0506   14.2495 O.2       13 UNK        -0.4996 
     25 CA        -56.3129  -29.6483   14.6045 C.3       12 UNK         0.0216 
     26 CB        -55.2136  -30.5901   15.1222 C.3       12 UNK        -0.1964 
     27 N         -55.6861  -28.5003   13.9431 N.am      12 UNK        -0.4276 
     28 C         -56.3156  -27.3731   13.5888 C.2       12 UNK         0.5020 
     29 O         -57.5134  -27.1644   13.7893 O.2       12 UNK        -0.5489 
     30 CA        -55.4359  -26.2884   12.9401 C.3       11 UNK         0.0294 
     31 CB        -56.2641  -25.1706   12.2797 C.3       11 UNK        -0.2019 
     32 N         -54.5189  -25.6973   13.9187 N.am      11 UNK        -0.4493 
     33 C         -53.4056  -26.2835   14.3759 C.2       11 UNK         0.4932 
     34 O         -52.9834  -27.3672   13.9601 O.2       11 UNK        -0.5029 
     35 CA        -52.6718  -25.5647   15.5140 C.3       10 UNK         0.0280 
     36 CB        -53.4765  -25.6586   16.8266 C.3       10 UNK        -0.1976 
     37 N         -51.3635  -26.1897   15.6768 N.am      10 UNK        -0.4242 
     38 C         -50.3174  -25.6933   16.3462 C.2       10 UNK         0.5072 
     39 O         -50.3434  -24.6230   16.9567 O.2       10 UNK        -0.5224 
     40 CA        -49.0299  -26.5370   16.3671 C.3       9 UNK         0.0343 
     41 CB        -49.1517  -27.9024   15.6563 C.3       9 UNK        -0.2003 
     42 N         -47.9472  -25.7757   15.7488 N.am      9 UNK        -0.4272 
     43 C         -46.9895  -25.1122   16.4084 C.2       9 UNK         0.4988 
     44 O         -46.8732  -25.1017   17.6351 O.2       9 UNK        -0.5108 
     45 CA        -45.9719  -24.3387   15.5528 C.3       8 UNK         0.0248 
     46 CB        -44.9431  -25.2989   14.9332 C.3       8 UNK        -0.2001 
     47 N         -46.6002  -23.5385   14.4986 N.am      8 UNK        -0.4140 
     48 C         -47.3367  -22.4388   14.7173 C.2       8 UNK         0.5028 
     49 O         -47.5322  -21.9541   15.8327 O.2       8 UNK        -0.5428 
     50 CA        -47.9546  -21.7520   13.4865 C.3       7 UNK         0.0264 
     51 CB        -46.9300  -20.8328   12.8020 C.3       7 UNK        -0.1988 
     52 N         -48.4894  -22.7051   12.5125 N.am      7 UNK        -0.4454 
     53 C         -49.5706  -23.4711   12.7186 C.2       7 UNK         0.5027 
     54 O         -50.2816  -23.3922   13.7196 O.2       7 UNK        -0.5083 
     55 CA        -49.9176  -24.5136   11.6367 C.3       6 UNK         0.0844 
     56 C56       -50.8502  -23.8962   10.5668 C.3       14 UNK        -0.0967 
     57 S57       -51.4675  -25.1406    9.3907 S.3       14 UNK        -0.2604 
     58 C58       -52.8545  -25.8179   10.3543 C.3       14 UNK         0.0134 
     59 N         -48.7243  -25.1478   11.0642 N.am      6 UNK        -0.4116 
     60 C         -47.8599  -25.8981   11.7631 C.2       5 UNK         0.5034 
     61 O         -48.0023  -26.1825   12.9510 O.2       5 UNK        -0.5045 
     62 CA        -46.5844  -26.3504   11.0394 C.3       5 UNK         0.0224 
     63 CB        -46.8363  -27.6138   10.2001 C.3       5 UNK        -0.1978 
     64 N         -46.0337  -25.2781   10.2074 N.am      5 UNK        -0.4737 
     65 C         -45.4558  -24.1742   10.7050 C.2       4 UNK         0.5027 
     66 O         -45.2819  -23.9822   11.9074 O.2       4 UNK        -0.5211 
     67 CA        -45.0427  -23.0818    9.7039 C.3       4 UNK         0.0297 
     68 CB        -43.6351  -23.3610    9.1548 C.3       4 UNK        -0.1993 
     69 N         -45.9843  -22.9429    8.5913 N.am      4 UNK        -0.4486 
     70 C         -47.2624  -22.5553    8.7144 C.2       3 UNK         0.4961 
     71 O         -47.7702  -22.1992    9.7766 O.2       3 UNK        -0.5105 
     72 CA        -48.1360  -22.6388    7.4494 C.3       3 UNK         0.0299 
     73 CB        -48.0806  -21.3176    6.6671 C.3       3 UNK        -0.1972 
     74 N         -47.7671  -23.7535    6.5678 N.am      3 UNK        -0.4305 
     75 C         -47.8163  -25.0444    6.9245 C.2       2 UNK         0.5006 
     76 O         -48.1966  -25.4326    8.0308 O.2       2 UNK        -0.5106 
     77 CA        -47.2477  -26.0529    5.9167 C.3       2 UNK         0.0296 
     78 CB        -45.7427  -26.2534    6.1632 C.3       2 UNK        -0.2002 
     79 N         -47.9149  -27.3480    6.0241 N.am      2 UNK        -0.4032 
     80 C         -49.1296  -27.6349    5.5440 C.2       1 UNK         0.5000 
     81 O         -49.8103  -26.8301    4.9043 O.2       1 UNK        -0.5238 
     82 H82       -46.8011  -32.3168    7.0022 H         1 UNK         0.0889 
     83 H83       -45.7563  -31.3137    5.9921 H         1 UNK         0.0889 
     84 H84       -47.1426  -32.1427    5.2798 H         1 UNK         0.0889 
     85 H85       -48.7989  -30.7392    4.8679 H         1 UNK         0.3028 
     86 H86       -50.3556  -29.2423    4.9379 H         1 UNK         0.0864 
     87 H87       -51.2593  -28.3207    7.0767 H         1 UNK         0.0720 
     88 H88       -49.9071  -28.9965    7.9528 H         1 UNK         0.0720 
     89 H89       -51.2673  -30.5364    9.6066 H         1 UNK         0.0814 
     90 H90       -52.6335  -31.5166    9.1380 H         1 UNK         0.0814 
     91 H91       -51.5331  -28.1542    9.9722 H         1 UNK         0.1469 
     92 H92       -55.3706  -26.3307    9.4051 H         1 UNK         0.1381 
     93 H93       -54.7287  -30.3981    8.2018 H         1 UNK         0.1206 
     94 H94       -56.9428  -27.5198    7.8367 H         1 UNK         0.0813 
     95 H95       -56.7833  -29.2327    7.5526 H         1 UNK         0.0813 
     96 H96       -56.5384  -30.8432    9.7246 H         1 UNK         0.0638 
     97 H97       -58.1888  -31.0827    9.2078 H         1 UNK         0.0638 
     98 H98       -58.9755  -30.7460   11.5685 H         1 UNK         0.0568 
     99 H99       -59.8056  -32.8271   10.9457 H         1 UNK         0.3450 
    100 H100      -58.9032  -34.2882   11.2504 H         1 UNK         0.3450 
    101 H101      -56.3473  -29.8058   12.0381 H         1 UNK         0.2987 
    102 H102      -56.8720  -29.2722   15.4641 H         1 UNK         0.0766 
    103 H103      -55.6453  -31.4407   15.6517 H         1 UNK         0.0798 
    104 H104      -54.5488  -30.0797   15.8197 H         1 UNK         0.0798 
    105 H105      -54.6061  -30.9875   14.3080 H         1 UNK         0.0798 
    106 H106      -54.6809  -28.5355   13.8039 H         1 UNK         0.3198 
    107 H107      -54.8537  -26.7780   12.1593 H         1 UNK         0.0843 
    108 H108      -56.8731  -24.6325   13.0073 H         1 UNK         0.0831 
    109 H109      -56.9412  -25.5823   11.5297 H         1 UNK         0.0831 
    110 H110      -55.6261  -24.4449   11.7759 H         1 UNK         0.0831 
    111 H111      -54.8141  -24.8273   14.3389 H         1 UNK         0.3133 
    112 H112      -52.5329  -24.5189   15.2324 H         1 UNK         0.0566 
    113 H113      -53.6256  -26.6953   17.1318 H         1 UNK         0.0814 
    114 H114      -54.4623  -25.2043   16.7226 H         1 UNK         0.0814 
    115 H115      -52.9738  -25.1404   17.6431 H         1 UNK         0.0814 
    116 H116      -51.2667  -27.0608   15.1681 H         1 UNK         0.3091 
    117 H117      -48.8005  -26.7337   17.4162 H         1 UNK         0.0702 
    118 H118      -48.2158  -28.4578   15.7216 H         1 UNK         0.0785 
    119 H119      -49.3942  -27.7982   14.5980 H         1 UNK         0.0785 
    120 H120      -49.9205  -28.5230   16.1187 H         1 UNK         0.0785 
    121 H121      -47.9570  -25.7417   14.7310 H         1 UNK         0.2998 
    122 H122      -45.4350  -23.6553   16.2142 H         1 UNK         0.0697 
    123 H123      -44.1653  -24.7540   14.3978 H         1 UNK         0.0825 
    124 H124      -45.4081  -25.9917   14.2312 H         1 UNK         0.0825 
    125 H125      -44.4507  -25.8943   15.7031 H         1 UNK         0.0825 
    126 H126      -46.4165  -23.8210   13.5403 H         1 UNK         0.3029 
    127 H127      -48.7830  -21.1320   13.8364 H         1 UNK         0.0897 
    128 H128      -46.0737  -21.3914   12.4240 H         1 UNK         0.0792 
    129 H129      -46.5497  -20.0856   13.4998 H         1 UNK         0.0792 
    130 H130      -47.3757  -20.2971   11.9635 H         1 UNK         0.0792 
    131 H131      -48.0228  -22.7522   11.6102 H         1 UNK         0.3086 
    132 H132      -50.4702  -25.3040   12.1484 H         1 UNK         0.0583 
    133 H133      -51.7067  -23.4041   11.0329 H         1 UNK         0.1020 
    134 H134      -50.3286  -23.1206   10.0039 H         1 UNK         0.1020 
    135 H135      -52.5298  -26.0299   11.3730 H         1 UNK         0.0694 
    136 H136      -53.6369  -25.0614   10.4261 H         1 UNK         0.0694 
    137 H137      -48.5592  -25.0079   10.0731 H         1 UNK         0.2989 
    138 H138      -45.8427  -26.5993   11.8017 H         1 UNK         0.1055 
    139 H139      -45.9348  -27.9336    9.6776 H         1 UNK         0.0806 
    140 H140      -47.6195  -27.4703    9.4561 H         1 UNK         0.0806 
    141 H141      -47.1508  -28.4423   10.8360 H         1 UNK         0.0806 
    142 H142      -46.2205  -25.3308    9.2158 H         1 UNK         0.3061 
    143 H143      -45.0184  -22.1316   10.2415 H         1 UNK         0.0734 
    144 H144      -43.5978  -24.2905    8.5851 H         1 UNK         0.0832 
    145 H145      -43.2938  -22.5540    8.5062 H         1 UNK         0.0832 
    146 H146      -42.9119  -23.4484    9.9671 H         1 UNK         0.0832 
    147 H147      -45.6521  -23.2042    7.6750 H         1 UNK         0.3156 
    148 H148      -49.1665  -22.8016    7.7720 H         1 UNK         0.0589 
    149 H149      -48.7627  -21.3305    5.8167 H         1 UNK         0.0808 
    150 H150      -47.0778  -21.1091    6.2919 H         1 UNK         0.0808 
    151 H151      -48.3722  -20.4784    7.3004 H         1 UNK         0.0808 
    152 H152      -47.4340  -23.5132    5.6446 H         1 UNK         0.3098 
    153 H153      -47.3924  -25.6672    4.9052 H         1 UNK         0.0720 
    154 H154      -45.1970  -25.3139    6.0680 H         1 UNK         0.0791 
    155 H155      -45.3140  -26.9482    5.4406 H         1 UNK         0.0791 
    156 H156      -45.5458  -26.6483    7.1611 H         1 UNK         0.0791 
    157 H157      -47.4723  -28.0580    6.6024 H         1 UNK         0.3028 
@<TRIPOS>BOND
     1    1    2 1    
     2    1   82 1    
     3    1   83 1    
     4    1   84 1    
     5    2    3 2    
     6    2    4 am   BACKBONE|DICT|INTERRES
     7    4    5 1    
     8    4   85 1    
     9    5    6 1    
    10    5   80 1    
    11    5   86 1    
    12    6    7 1    
    13    6   87 1    
    14    6   88 1    
    15    7    8 1    
    16    8    9 1    
    17    8   89 1    
    18    8   90 1    
    19    9   10 ar   
    20    9   14 ar   
    21   10   11 ar   
    22   10   91 1    
    23   11   12 ar   
    24   11   58 1    
    25   12   13 ar   
    26   12   92 1    
    27   13   14 ar   
    28   13   15 1    
    29   14   93 1    
    30   15   16 1    
    31   15   94 1    
    32   15   95 1    
    33   16   17 1    
    34   17   18 1    
    35   17   96 1    
    36   17   97 1    
    37   18   19 1    
    38   18   22 1    
    39   18   98 1    
    40   19   20 am   BACKBONE|DICT|INTERRES
    41   19   21 2    
    42   20   99 1    
    43   20  100 1    
    44   22   23 am   BACKBONE|DICT|INTERRES
    45   22  101 1    
    46   23   24 2    
    47   23   25 1    
    48   25   26 1    
    49   25   27 1    
    50   25  102 1    
    51   26  103 1    
    52   26  104 1    
    53   26  105 1    
    54   27   28 am   BACKBONE|DICT|INTERRES
    55   27  106 1    
    56   28   29 2    
    57   28   30 1    
    58   30   31 1    
    59   30   32 1    
    60   30  107 1    
    61   31  108 1    
    62   31  109 1    
    63   31  110 1    
    64   32   33 am   BACKBONE|DICT|INTERRES
    65   32  111 1    
    66   33   34 2    
    67   33   35 1    
    68   35   36 1    
    69   35   37 1    
    70   35  112 1    
    71   36  113 1    
    72   36  114 1    
    73   36  115 1    
    74   37   38 am   BACKBONE|DICT|INTERRES
    75   37  116 1    
    76   38   39 2    
    77   38   40 1    
    78   40   41 1    
    79   40   42 1    
    80   40  117 1    
    81   41  118 1    
    82   41  119 1    
    83   41  120 1    
    84   42   43 am   BACKBONE|DICT|INTERRES
    85   42  121 1    
    86   43   44 2    
    87   43   45 1    
    88   45   46 1    
    89   45   47 1    
    90   45  122 1    
    91   46  123 1    
    92   46  124 1    
    93   46  125 1    
    94   47   48 am   BACKBONE|DICT|INTERRES
    95   47  126 1    
    96   48   49 2    
    97   48   50 1    
    98   50   51 1    
    99   50   52 1    
   100   50  127 1    
   101   51  128 1    
   102   51  129 1    
   103   51  130 1    
   104   52   53 am   BACKBONE|DICT|INTERRES
   105   52  131 1    
   106   53   54 2    
   107   53   55 1    
   108   55   56 1    
   109   55   59 1    
   110   55  132 1    
   111   56   57 1    
   112   56  133 1    
   113   56  134 1    
   114   57   58 1    
   115   58  135 1    
   116   58  136 1    
   117   59   60 am   BACKBONE|DICT|INTERRES
   118   59  137 1    
   119   60   61 2    
   120   60   62 1    
   121   62   63 1    
   122   62   64 1    
   123   62  138 1    
   124   63  139 1    
   125   63  140 1    
   126   63  141 1    
   127   64   65 am   BACKBONE|DICT|INTERRES
   128   64  142 1    
   129   65   66 2    
   130   65   67 1    
   131   67   68 1    
   132   67   69 1    
   133   67  143 1    
   134   68  144 1    
   135   68  145 1    
   136   68  146 1    
   137   69   70 am   BACKBONE|DICT|INTERRES
   138   69  147 1    
   139   70   71 2    
   140   70   72 1    
   141   72   73 1    
   142   72   74 1    
   143   72  148 1    
   144   73  149 1    
   145   73  150 1    
   146   73  151 1    
   147   74   75 am   BACKBONE|DICT|INTERRES
   148   74  152 1    
   149   75   76 2    
   150   75   77 1    
   151   77   78 1    
   152   77   79 1    
   153   77  153 1    
   154   78  154 1    
   155   78  155 1    
   156   78  156 1    
   157   79   80 am   BACKBONE|DICT|INTERRES
   158   79  157 1    
   159   80   81 2    
@<TRIPOS>SUBSTRUCTURE
     1 UNK         1 GROUP             0       ****    0 ROOT    
