@<TRIPOS>MOLECULE
3R207
157   159    1
SMALL
USER_CHARGES


@<TRIPOS>ATOM
      1 CA        -48.6581  -24.3348    3.7223 C.3       0 UNK        -0.1975 
      2 C         -48.8670  -24.8973    5.1197 C.2       0 UNK         0.4852 
      3 O         -47.9880  -25.5862    5.6370 O.2       0 UNK        -0.5216 
      4 N         -50.0122  -24.5885    5.7449 N.am      1 UNK        -0.4461 
      5 CA        -50.4480  -25.0928    7.0583 C.3       1 UNK         0.0864 
      6 C6        -50.8003  -26.6040    7.0361 C.3       14 UNK        -0.0898 
      7 S7        -52.0997  -26.9925    5.8135 S.3       14 UNK        -0.2598 
      8 C8        -52.1614  -28.8104    5.9179 C.3       14 UNK         0.0286 
      9 C9        -52.5636  -29.2738    7.3095 C.ar      14 UNK        -0.0844 
     10 C10       -51.6162  -29.8460    8.1628 C.ar      14 UNK        -0.0881 
     11 C11       -51.9618  -30.2042    9.4694 C.ar      14 UNK        -0.0643 
     12 C12       -53.2733  -30.0013    9.9115 C.ar      14 UNK        -0.0930 
     13 C13       -54.2369  -29.4544    9.0576 C.ar      14 UNK        -0.0827 
     14 C14       -53.8760  -29.0969    7.7559 C.ar      14 UNK        -0.1249 
     15 C15       -55.6554  -29.2096    9.5512 C.3       14 UNK         0.0141 
     16 S16       -56.5250  -30.7582    9.9377 S.3       14 UNK        -0.2313 
     17 C17       -58.1367  -30.1089   10.5024 C.3       14 UNK        -0.0915 
     18 CA        -58.4758  -30.4176   11.9856 C.3       13 UNK         0.0968 
     19 C         -58.7014  -31.9379   12.2420 C.2       13 UNK         0.5732 
     20 N         -57.9232  -32.5933   13.0957 N.am      13 UNK        -0.7310 
     21 O         -59.6130  -32.5287   11.6673 O.2       13 UNK        -0.5035 
     22 N         -57.5519  -29.7569   12.9248 N.am      13 UNK        -0.4233 
     23 C         -57.8542  -29.4559   14.1940 C.2       13 UNK         0.4989 
     24 O         -58.9697  -29.6367   14.6844 O.2       13 UNK        -0.4996 
     25 CA        -56.7520  -28.8544   15.0884 C.3       12 UNK         0.0216 
     26 CB        -55.9237  -29.9682   15.7594 C.3       12 UNK        -0.1964 
     27 N         -55.8802  -27.8510   14.4578 N.am      12 UNK        -0.4276 
     28 C         -54.9925  -28.0100   13.4659 C.2       12 UNK         0.5020 
     29 O         -54.8279  -29.0648   12.8552 O.2       12 UNK        -0.5489 
     30 CA        -54.1331  -26.7844   13.1038 C.3       11 UNK         0.0294 
     31 CB        -54.8221  -25.9204   12.0352 C.3       11 UNK        -0.2019 
     32 N         -53.7973  -25.9487   14.2628 N.am      11 UNK        -0.4493 
     33 C         -52.9829  -26.3380   15.2524 C.2       11 UNK         0.4932 
     34 O         -52.4628  -27.4535   15.3177 O.2       11 UNK        -0.5029 
     35 CA        -52.6759  -25.3091   16.3440 C.3       10 UNK         0.0280 
     36 CB        -53.2350  -25.7856   17.7010 C.3       10 UNK        -0.1976 
     37 N         -51.2240  -25.1559   16.3731 N.am      10 UNK        -0.4242 
     38 C         -50.5016  -24.3320   17.1408 C.2       10 UNK         0.5072 
     39 O         -50.9797  -23.5498   17.9632 O.2       10 UNK        -0.5224 
     40 CA        -48.9810  -24.3736   16.9335 C.3       9 UNK         0.0343 
     41 CB        -48.4124  -25.7861   17.1621 C.3       9 UNK        -0.2003 
     42 N         -48.6589  -23.9328   15.5782 N.am      9 UNK        -0.4272 
     43 C         -48.1832  -22.7212   15.2550 C.2       9 UNK         0.4988 
     44 O         -47.8796  -21.8588   16.0802 O.2       9 UNK        -0.5108 
     45 CA        -48.0154  -22.4053   13.7550 C.3       8 UNK         0.0248 
     46 CB        -46.5746  -22.6946   13.3023 C.3       8 UNK        -0.2001 
     47 N         -48.9420  -23.1540   12.9056 N.am      8 UNK        -0.4140 
     48 C         -50.2730  -22.9958   12.8903 C.2       8 UNK         0.5028 
     49 O         -50.8654  -22.1041   13.4978 O.2       8 UNK        -0.5428 
     50 CA        -51.0872  -24.0271   12.0885 C.3       7 UNK         0.0264 
     51 CB        -51.6297  -23.4043   10.7930 C.3       7 UNK        -0.1988 
     52 N         -50.3527  -25.2611   11.7764 N.am      7 UNK        -0.4454 
     53 C         -49.9592  -26.1610   12.6914 C.2       7 UNK         0.5027 
     54 O         -50.0639  -25.9873   13.9052 O.2       7 UNK        -0.5083 
     55 CA        -49.2783  -27.4305   12.1617 C.3       6 UNK         0.0844 
     56 C56       -50.1883  -28.1874   11.1639 C.3       14 UNK        -0.0967 
     57 S57       -49.4430  -29.7463   10.5842 S.3       14 UNK        -0.2604 
     58 C58       -50.9193  -30.8026   10.4074 C.3       14 UNK         0.0134 
     59 N         -47.9766  -27.0778   11.5979 N.am      6 UNK        -0.4116 
     60 C         -46.8836  -26.7902   12.3188 C.2       5 UNK         0.5034 
     61 O         -46.8603  -26.7946   13.5500 O.2       5 UNK        -0.5045 
     62 CA        -45.6085  -26.3933   11.5520 C.3       5 UNK         0.0224 
     63 CB        -44.3315  -27.0022   12.1692 C.3       5 UNK        -0.1978 
     64 N         -45.6820  -26.6351   10.1055 N.am      5 UNK        -0.4737 
     65 C         -45.6868  -27.8074    9.4506 C.2       4 UNK         0.5027 
     66 O         -45.5882  -28.9014   10.0049 O.2       4 UNK        -0.5211 
     67 CA        -45.8680  -27.7641    7.9180 C.3       4 UNK         0.0297 
     68 CB        -47.2111  -28.4074    7.5332 C.3       4 UNK        -0.1993 
     69 N         -45.8207  -26.4110    7.3549 N.am      4 UNK        -0.4486 
     70 C         -44.7290  -25.6376    7.2710 C.2       3 UNK         0.4961 
     71 O         -43.5918  -26.0219    7.5428 O.2       3 UNK        -0.5105 
     72 CA        -44.9595  -24.1658    6.8844 C.3       3 UNK         0.0299 
     73 CB        -44.8867  -23.9813    5.3601 C.3       3 UNK        -0.1972 
     74 N         -46.2346  -23.6436    7.3940 N.am      3 UNK        -0.4305 
     75 C         -46.5107  -23.4408    8.6924 C.2       2 UNK         0.5006 
     76 O         -45.7033  -23.6415    9.5978 O.2       2 UNK        -0.5106 
     77 CA        -47.9284  -22.9725    9.0584 C.3       2 UNK         0.0296 
     78 CB        -47.9995  -21.4388    9.1104 C.3       2 UNK        -0.2002 
     79 N         -48.9428  -23.4839    8.1353 N.am      2 UNK        -0.4032 
     80 C         -49.4636  -24.7187    8.1927 C.2       1 UNK         0.5000 
     81 O         -49.1981  -25.5240    9.0912 O.2       1 UNK        -0.5238 
     82 H82       -49.5355  -23.7970    3.3637 H         1 UNK         0.0889 
     83 H83       -48.4483  -25.1439    3.0232 H         1 UNK         0.0889 
     84 H84       -47.8112  -23.6495    3.7145 H         1 UNK         0.0889 
     85 H85       -50.6906  -24.0153    5.2620 H         1 UNK         0.3028 
     86 H86       -51.3667  -24.5543    7.2966 H         1 UNK         0.0864 
     87 H87       -49.9189  -27.2048    6.8111 H         1 UNK         0.0720 
     88 H88       -51.1573  -26.9247    8.0160 H         1 UNK         0.0720 
     89 H89       -51.1914  -29.2211    5.6330 H         1 UNK         0.0814 
     90 H90       -52.8805  -29.1855    5.1884 H         1 UNK         0.0814 
     91 H91       -50.5987  -29.9854    7.8237 H         1 UNK         0.1469 
     92 H92       -53.5508  -30.2689   10.9220 H         1 UNK         0.1381 
     93 H93       -54.6071  -28.6517    7.0946 H         1 UNK         0.1206 
     94 H94       -56.2309  -28.6571    8.8069 H         1 UNK         0.0813 
     95 H95       -55.6252  -28.5844   10.4408 H         1 UNK         0.0813 
     96 H96       -58.1699  -29.0299   10.3443 H         1 UNK         0.0638 
     97 H97       -58.9085  -30.5170    9.8474 H         1 UNK         0.0638 
     98 H98       -59.4560  -29.9684   12.1570 H         1 UNK         0.0568 
     99 H99       -58.0844  -33.5747   13.2571 H         1 UNK         0.3450 
    100 H100      -57.1671  -32.1202   13.5625 H         1 UNK         0.3450 
    101 H101      -56.5912  -29.6209   12.6182 H         1 UNK         0.2987 
    102 H102      -57.2703  -28.3185   15.8853 H         1 UNK         0.0766 
    103 H103      -55.2075  -29.5543   16.4695 H         1 UNK         0.0798 
    104 H104      -55.3670  -30.5591   15.0315 H         1 UNK         0.0798 
    105 H105      -56.5671  -30.6551   16.3110 H         1 UNK         0.0798 
    106 H106      -55.9456  -26.9247   14.8559 H         1 UNK         0.3198 
    107 H107      -53.1973  -27.1585   12.6821 H         1 UNK         0.0843 
    108 H108      -55.7849  -25.5397   12.3780 H         1 UNK         0.0831 
    109 H109      -55.0022  -26.4918   11.1253 H         1 UNK         0.0831 
    110 H110      -54.2049  -25.0674   11.7535 H         1 UNK         0.0831 
    111 H111      -54.1866  -25.0165   14.2853 H         1 UNK         0.3133 
    112 H112      -53.1214  -24.3474   16.0828 H         1 UNK         0.0566 
    113 H113      -54.3036  -25.9928   17.6314 H         1 UNK         0.0814 
    114 H114      -52.7468  -26.7012   18.0374 H         1 UNK         0.0814 
    115 H115      -53.1078  -25.0336   18.4792 H         1 UNK         0.0814 
    116 H116      -50.7404  -25.7191   15.6750 H         1 UNK         0.3091 
    117 H117      -48.5253  -23.7092   17.6709 H         1 UNK         0.0702 
    118 H118      -47.3235  -25.7813   17.1106 H         1 UNK         0.0785 
    119 H119      -48.7717  -26.5020   16.4215 H         1 UNK         0.0785 
    120 H120      -48.6888  -26.1645   18.1471 H         1 UNK         0.0785 
    121 H121      -48.9213  -24.5695   14.8337 H         1 UNK         0.2998 
    122 H122      -48.2148  -21.3409   13.6139 H         1 UNK         0.0697 
    123 H123      -46.3072  -23.7411   13.4524 H         1 UNK         0.0825 
    124 H124      -45.8624  -22.0947   13.8706 H         1 UNK         0.0825 
    125 H125      -46.4289  -22.4553   12.2484 H         1 UNK         0.0825 
    126 H126      -48.5559  -23.9182   12.3733 H         1 UNK         0.3029 
    127 H127      -51.9397  -24.3068   12.7104 H         1 UNK         0.0897 
    128 H128      -52.3095  -22.5810   11.0170 H         1 UNK         0.0792 
    129 H129      -52.1864  -24.1298   10.1995 H         1 UNK         0.0792 
    130 H130      -50.8301  -22.9975   10.1756 H         1 UNK         0.0792 
    131 H131      -50.1280  -25.4319   10.7994 H         1 UNK         0.3086 
    132 H132      -49.1119  -28.0899   13.0167 H         1 UNK         0.0583 
    133 H133      -51.1475  -28.4108   11.6357 H         1 UNK         0.1020 
    134 H134      -50.4160  -27.5830   10.2851 H         1 UNK         0.1020 
    135 H135      -50.6129  -31.7757   10.0217 H         1 UNK         0.0694 
    136 H136      -51.3431  -30.9818   11.3969 H         1 UNK         0.0694 
    137 H137      -47.9228  -27.0222   10.5904 H         1 UNK         0.2989 
    138 H138      -45.5292  -25.3114   11.6634 H         1 UNK         0.1055 
    139 H139      -44.1954  -26.6636   13.1971 H         1 UNK         0.0806 
    140 H140      -43.4420  -26.7071   11.6126 H         1 UNK         0.0806 
    141 H141      -44.3690  -28.0914   12.1927 H         1 UNK         0.0806 
    142 H142      -45.7484  -25.7915    9.5478 H         1 UNK         0.3061 
    143 H143      -45.0605  -28.3482    7.4722 H         1 UNK         0.0734 
    144 H144      -47.3755  -28.3820    6.4557 H         1 UNK         0.0832 
    145 H145      -47.2483  -29.4525    7.8438 H         1 UNK         0.0832 
    146 H146      -48.0469  -27.8993    8.0149 H         1 UNK         0.0832 
    147 H147      -46.6968  -26.0370    6.9967 H         1 UNK         0.3156 
    148 H148      -44.1566  -23.5768    7.3332 H         1 UNK         0.0589 
    149 H149      -45.6409  -24.5725    4.8408 H         1 UNK         0.0808 
    150 H150      -45.0218  -22.9372    5.0775 H         1 UNK         0.0808 
    151 H151      -43.9139  -24.2953    4.9795 H         1 UNK         0.0808 
    152 H152      -46.9649  -23.4963    6.7141 H         1 UNK         0.3098 
    153 H153      -48.1464  -23.3484   10.0599 H         1 UNK         0.0720 
    154 H154      -48.9807  -21.0990    9.4427 H         1 UNK         0.0791 
    155 H155      -47.7986  -20.9887    8.1374 H         1 UNK         0.0791 
    156 H156      -47.2664  -21.0391    9.8128 H         1 UNK         0.0791 
    157 H157      -49.2294  -22.8758    7.3813 H         1 UNK         0.3028 
@<TRIPOS>BOND
     1    1    2 1    
     2    1   82 1    
     3    1   83 1    
     4    1   84 1    
     5    2    3 2    
     6    2    4 am   BACKBONE|DICT|INTERRES
     7    4    5 1    
     8    4   85 1    
     9    5    6 1    
    10    5   80 1    
    11    5   86 1    
    12    6    7 1    
    13    6   87 1    
    14    6   88 1    
    15    7    8 1    
    16    8    9 1    
    17    8   89 1    
    18    8   90 1    
    19    9   10 ar   
    20    9   14 ar   
    21   10   11 ar   
    22   10   91 1    
    23   11   12 ar   
    24   11   58 1    
    25   12   13 ar   
    26   12   92 1    
    27   13   14 ar   
    28   13   15 1    
    29   14   93 1    
    30   15   16 1    
    31   15   94 1    
    32   15   95 1    
    33   16   17 1    
    34   17   18 1    
    35   17   96 1    
    36   17   97 1    
    37   18   19 1    
    38   18   22 1    
    39   18   98 1    
    40   19   20 am   BACKBONE|DICT|INTERRES
    41   19   21 2    
    42   20   99 1    
    43   20  100 1    
    44   22   23 am   BACKBONE|DICT|INTERRES
    45   22  101 1    
    46   23   24 2    
    47   23   25 1    
    48   25   26 1    
    49   25   27 1    
    50   25  102 1    
    51   26  103 1    
    52   26  104 1    
    53   26  105 1    
    54   27   28 am   BACKBONE|DICT|INTERRES
    55   27  106 1    
    56   28   29 2    
    57   28   30 1    
    58   30   31 1    
    59   30   32 1    
    60   30  107 1    
    61   31  108 1    
    62   31  109 1    
    63   31  110 1    
    64   32   33 am   BACKBONE|DICT|INTERRES
    65   32  111 1    
    66   33   34 2    
    67   33   35 1    
    68   35   36 1    
    69   35   37 1    
    70   35  112 1    
    71   36  113 1    
    72   36  114 1    
    73   36  115 1    
    74   37   38 am   BACKBONE|DICT|INTERRES
    75   37  116 1    
    76   38   39 2    
    77   38   40 1    
    78   40   41 1    
    79   40   42 1    
    80   40  117 1    
    81   41  118 1    
    82   41  119 1    
    83   41  120 1    
    84   42   43 am   BACKBONE|DICT|INTERRES
    85   42  121 1    
    86   43   44 2    
    87   43   45 1    
    88   45   46 1    
    89   45   47 1    
    90   45  122 1    
    91   46  123 1    
    92   46  124 1    
    93   46  125 1    
    94   47   48 am   BACKBONE|DICT|INTERRES
    95   47  126 1    
    96   48   49 2    
    97   48   50 1    
    98   50   51 1    
    99   50   52 1    
   100   50  127 1    
   101   51  128 1    
   102   51  129 1    
   103   51  130 1    
   104   52   53 am   BACKBONE|DICT|INTERRES
   105   52  131 1    
   106   53   54 2    
   107   53   55 1    
   108   55   56 1    
   109   55   59 1    
   110   55  132 1    
   111   56   57 1    
   112   56  133 1    
   113   56  134 1    
   114   57   58 1    
   115   58  135 1    
   116   58  136 1    
   117   59   60 am   BACKBONE|DICT|INTERRES
   118   59  137 1    
   119   60   61 2    
   120   60   62 1    
   121   62   63 1    
   122   62   64 1    
   123   62  138 1    
   124   63  139 1    
   125   63  140 1    
   126   63  141 1    
   127   64   65 am   BACKBONE|DICT|INTERRES
   128   64  142 1    
   129   65   66 2    
   130   65   67 1    
   131   67   68 1    
   132   67   69 1    
   133   67  143 1    
   134   68  144 1    
   135   68  145 1    
   136   68  146 1    
   137   69   70 am   BACKBONE|DICT|INTERRES
   138   69  147 1    
   139   70   71 2    
   140   70   72 1    
   141   72   73 1    
   142   72   74 1    
   143   72  148 1    
   144   73  149 1    
   145   73  150 1    
   146   73  151 1    
   147   74   75 am   BACKBONE|DICT|INTERRES
   148   74  152 1    
   149   75   76 2    
   150   75   77 1    
   151   77   78 1    
   152   77   79 1    
   153   77  153 1    
   154   78  154 1    
   155   78  155 1    
   156   78  156 1    
   157   79   80 am   BACKBONE|DICT|INTERRES
   158   79  157 1    
   159   80   81 2    
@<TRIPOS>SUBSTRUCTURE
     1 UNK         1 GROUP             0       ****    0 ROOT    
