@<TRIPOS>MOLECULE
3R207
157   159    1
SMALL
USER_CHARGES


@<TRIPOS>ATOM
      1 CA        -46.5722  -30.9010    8.4289 C.3       0 UNK        -0.1975 
      2 C         -46.8315  -30.4923    6.9869 C.2       0 UNK         0.4852 
      3 O         -45.9253  -30.5739    6.1572 O.2       0 UNK        -0.5216 
      4 N         -48.0650  -30.0673    6.6805 N.am      1 UNK        -0.4461 
      5 CA        -48.4999  -29.6743    5.3345 C.3       1 UNK         0.0864 
      6 C6        -50.0424  -29.7147    5.1885 C.3       14 UNK        -0.0898 
      7 S7        -50.9519  -28.5592    6.2766 S.3       14 UNK        -0.2598 
      8 C8        -51.6317  -29.6771    7.5423 C.3       14 UNK         0.0286 
      9 C9        -52.7621  -29.0039    8.3050 C.ar      14 UNK        -0.0844 
     10 C10       -52.4846  -28.0317    9.2721 C.ar      14 UNK        -0.0881 
     11 C11       -53.5254  -27.3793    9.9419 C.ar      14 UNK        -0.0643 
     12 C12       -54.8467  -27.7418    9.6695 C.ar      14 UNK        -0.0930 
     13 C13       -55.1343  -28.7536    8.7499 C.ar      14 UNK        -0.0827 
     14 C14       -54.0893  -29.3593    8.0469 C.ar      14 UNK        -0.1249 
     15 C15       -56.5727  -29.2092    8.5442 C.3       14 UNK         0.0141 
     16 S16       -56.8681  -30.9575    9.0040 S.3       14 UNK        -0.2313 
     17 C17       -55.8126  -31.2707   10.4682 C.3       14 UNK        -0.0915 
     18 CA        -56.4734  -30.9068   11.8221 C.3       13 UNK         0.0968 
     19 C         -55.6057  -31.4230   13.0085 C.2       13 UNK         0.5732 
     20 N         -54.9561  -30.5660   13.7901 N.am      13 UNK        -0.7310 
     21 O         -55.5273  -32.6297   13.2266 O.2       13 UNK        -0.5035 
     22 N         -56.7810  -29.4737   11.9029 N.am      13 UNK        -0.4233 
     23 C         -57.6611  -28.9384   12.7539 C.2       13 UNK         0.4989 
     24 O         -58.4018  -29.5924   13.4912 O.2       13 UNK        -0.4996 
     25 CA        -57.6882  -27.4038   12.8243 C.3       12 UNK         0.0216 
     26 CB        -59.1198  -26.8590   12.6819 C.3       12 UNK        -0.1964 
     27 N         -57.1102  -26.9404   14.0861 N.am      12 UNK        -0.4276 
     28 C         -55.8230  -27.0725   14.4303 C.2       12 UNK         0.5020 
     29 O         -54.9580  -27.5684   13.7022 O.2       12 UNK        -0.5489 
     30 CA        -55.4408  -26.6059   15.8354 C.3       11 UNK         0.0294 
     31 CB        -55.4205  -27.7913   16.8168 C.3       11 UNK        -0.2019 
     32 N         -54.1227  -25.9817   15.7776 N.am      11 UNK        -0.4493 
     33 C         -53.6876  -25.0341   16.6163 C.2       11 UNK         0.4932 
     34 O         -54.3613  -24.6025   17.5542 O.2       11 UNK        -0.5029 
     35 CA        -52.2810  -24.4548   16.3585 C.3       10 UNK         0.0280 
     36 CB        -51.6861  -23.7614   17.6028 C.3       10 UNK        -0.1976 
     37 N         -51.3233  -25.4174   15.8030 N.am      10 UNK        -0.4242 
     38 C         -50.8978  -26.5637   16.3558 C.2       10 UNK         0.5072 
     39 O         -51.3166  -27.0241   17.4188 O.2       10 UNK        -0.5224 
     40 CA        -49.7895  -27.3134   15.5964 C.3       9 UNK         0.0343 
     41 CB        -50.3704  -28.0776   14.3944 C.3       9 UNK        -0.2003 
     42 N         -48.7125  -26.4241   15.1486 N.am      9 UNK        -0.4272 
     43 C         -47.8739  -25.7661   15.9646 C.2       9 UNK         0.4988 
     44 O         -47.8691  -25.8920   17.1898 O.2       9 UNK        -0.5108 
     45 CA        -46.8710  -24.7980   15.3110 C.3       8 UNK         0.0248 
     46 CB        -45.6405  -25.5539   14.7842 C.3       8 UNK        -0.2001 
     47 N         -47.4691  -24.0035   14.2352 N.am      8 UNK        -0.4140 
     48 C         -48.3934  -23.0499   14.4252 C.2       8 UNK         0.5028 
     49 O         -48.7703  -22.6729   15.5349 O.2       8 UNK        -0.5428 
     50 CA        -49.0259  -22.4208   13.1708 C.3       7 UNK         0.0264 
     51 CB        -48.1752  -21.2464   12.6623 C.3       7 UNK        -0.1988 
     52 N         -49.2439  -23.3807   12.0848 N.am      7 UNK        -0.4454 
     53 C         -50.0522  -24.4485   12.1649 C.2       7 UNK         0.5027 
     54 O         -50.7294  -24.7165   13.1579 O.2       7 UNK        -0.5083 
     55 CA        -50.0606  -25.4193   10.9643 C.3       6 UNK         0.0844 
     56 C56       -50.9745  -24.9371    9.8082 C.3       14 UNK        -0.0967 
     57 S57       -52.7418  -24.7162   10.2367 S.3       14 UNK        -0.2604 
     58 C58       -53.2405  -26.3054   10.9831 C.3       14 UNK         0.0134 
     59 N         -48.7049  -25.7202   10.5039 N.am      6 UNK        -0.4116 
     60 C         -47.7693  -26.3287   11.2472 C.2       5 UNK         0.5034 
     61 O         -47.9700  -26.7663   12.3792 O.2       5 UNK        -0.5045 
     62 CA        -46.3569  -26.4134   10.6516 C.3       5 UNK         0.0224 
     63 CB        -46.2272  -27.6171    9.7072 C.3       5 UNK        -0.1978 
     64 N         -45.9850  -25.1805    9.9550 N.am      5 UNK        -0.4737 
     65 C         -45.7520  -24.0144   10.5742 C.2       4 UNK         0.5027 
     66 O         -45.7732  -23.8750   11.7964 O.2       4 UNK        -0.5211 
     67 CA        -45.4968  -22.7930    9.6759 C.3       4 UNK         0.0297 
     68 CB        -44.0203  -22.7312    9.2545 C.3       4 UNK        -0.1993 
     69 N         -46.3512  -22.7805    8.4851 N.am      4 UNK        -0.4486 
     70 C         -47.6852  -22.6467    8.5118 C.2       3 UNK         0.4961 
     71 O         -48.3373  -22.4809    9.5415 O.2       3 UNK        -0.5105 
     72 CA        -48.4216  -22.7752    7.1678 C.3       3 UNK         0.0299 
     73 CB        -48.4263  -21.4313    6.4226 C.3       3 UNK        -0.1972 
     74 N         -47.8687  -23.8225    6.3015 N.am      3 UNK        -0.4305 
     75 C         -47.8274  -25.1239    6.6168 C.2       2 UNK         0.5006 
     76 O         -48.2343  -25.5867    7.6862 O.2       2 UNK        -0.5106 
     77 CA        -47.1773  -26.0560    5.5912 C.3       2 UNK         0.0296 
     78 CB        -45.6453  -26.0480    5.7379 C.3       2 UNK        -0.2002 
     79 N         -47.6799  -27.4064    5.8148 N.am      2 UNK        -0.4032 
     80 C         -47.9031  -28.3270    4.8698 C.2       1 UNK         0.5000 
     81 O         -47.6551  -28.1557    3.6741 O.2       1 UNK        -0.5238 
     82 H82       -47.3913  -30.6146    9.0882 H         1 UNK         0.0889 
     83 H83       -45.6590  -30.4326    8.7944 H         1 UNK         0.0889 
     84 H84       -46.4462  -31.9814    8.4929 H         1 UNK         0.0889 
     85 H85       -48.7714  -30.0218    7.3994 H         1 UNK         0.3028 
     86 H86       -48.1048  -30.4248    4.6456 H         1 UNK         0.0864 
     87 H87       -50.3962  -30.7319    5.3620 H         1 UNK         0.0720 
     88 H88       -50.3229  -29.4899    4.1576 H         1 UNK         0.0720 
     89 H89       -50.8439  -29.9754    8.2348 H         1 UNK         0.0814 
     90 H90       -51.9933  -30.5921    7.0706 H         1 UNK         0.0814 
     91 H91       -51.4577  -27.7746    9.4864 H         1 UNK         0.1469 
     92 H92       -55.6510  -27.2402   10.1872 H         1 UNK         0.1381 
     93 H93       -54.3122  -30.1285    7.3199 H         1 UNK         0.1206 
     94 H94       -57.2610  -28.5835    9.1143 H         1 UNK         0.0813 
     95 H95       -56.8426  -29.0726    7.4962 H         1 UNK         0.0813 
     96 H96       -54.8469  -30.7759   10.3660 H         1 UNK         0.0638 
     97 H97       -55.5864  -32.3384   10.4471 H         1 UNK         0.0638 
     98 H98       -57.4179  -31.4511   11.8806 H         1 UNK         0.0568 
     99 H99       -54.4029  -30.9246   14.5510 H         1 UNK         0.3450 
    100 H100      -54.9956  -29.5661   13.6230 H         1 UNK         0.3450 
    101 H101      -56.1651  -28.8695   11.3815 H         1 UNK         0.2987 
    102 H102      -57.0919  -26.9937   12.0075 H         1 UNK         0.0766 
    103 H103      -59.5704  -27.1906   11.7453 H         1 UNK         0.0798 
    104 H104      -59.1313  -25.7689   12.6772 H         1 UNK         0.0798 
    105 H105      -59.7673  -27.1980   13.4918 H         1 UNK         0.0798 
    106 H106      -57.7577  -26.5622   14.7628 H         1 UNK         0.3198 
    107 H107      -56.1755  -25.8701   16.1707 H         1 UNK         0.0843 
    108 H108      -55.1803  -27.4652   17.8289 H         1 UNK         0.0831 
    109 H109      -54.6840  -28.5409   16.5242 H         1 UNK         0.0831 
    110 H110      -56.3923  -28.2851   16.8565 H         1 UNK         0.0831 
    111 H111      -53.5453  -26.2763   14.9998 H         1 UNK         0.3133 
    112 H112      -52.4086  -23.6916   15.5896 H         1 UNK         0.0566 
    113 H113      -50.7015  -23.3445   17.3910 H         1 UNK         0.0814 
    114 H114      -51.5831  -24.4533   18.4394 H         1 UNK         0.0814 
    115 H115      -52.3193  -22.9383   17.9357 H         1 UNK         0.0814 
    116 H116      -50.9508  -25.1680   14.8864 H         1 UNK         0.3091 
    117 H117      -49.3529  -28.0434   16.2811 H         1 UNK         0.0702 
    118 H118      -49.6044  -28.6727   13.8969 H         1 UNK         0.0785 
    119 H119      -50.8010  -27.4043   13.6532 H         1 UNK         0.0785 
    120 H120      -51.1594  -28.7614   14.7105 H         1 UNK         0.0785 
    121 H121      -48.5925  -26.3224   14.1444 H         1 UNK         0.2998 
    122 H122      -46.5305  -24.1049   16.0833 H         1 UNK         0.0697 
    123 H123      -45.9051  -26.2709   14.0075 H         1 UNK         0.0825 
    124 H124      -45.1524  -26.1089   15.5863 H         1 UNK         0.0825 
    125 H125      -44.9021  -24.8682   14.3679 H         1 UNK         0.0825 
    126 H126      -47.1467  -24.1888   13.2909 H         1 UNK         0.3029 
    127 H127      -50.0039  -22.0309   13.4612 H         1 UNK         0.0897 
    128 H128      -47.1879  -21.5744   12.3366 H         1 UNK         0.0792 
    129 H129      -48.0301  -20.5015   13.4458 H         1 UNK         0.0792 
    130 H130      -48.6546  -20.7442   11.8217 H         1 UNK         0.0792 
    131 H131      -48.7664  -23.1903   11.2056 H         1 UNK         0.3086 
    132 H132      -50.4414  -26.3727   11.3271 H         1 UNK         0.0583 
    133 H133      -50.6113  -23.9832    9.4233 H         1 UNK         0.1020 
    134 H134      -50.9103  -25.6237    8.9632 H         1 UNK         0.1020 
    135 H135      -52.5173  -26.6634   11.7129 H         1 UNK         0.0694 
    136 H136      -54.1433  -26.1126   11.5642 H         1 UNK         0.0694 
    137 H137      -48.4688  -25.4469    9.5535 H         1 UNK         0.2989 
    138 H138      -45.6588  -26.5571   11.4796 H         1 UNK         0.1055 
    139 H139      -46.4482  -28.5415   10.2417 H         1 UNK         0.0806 
    140 H140      -46.9143  -27.5557    8.8641 H         1 UNK         0.0806 
    141 H141      -45.2153  -27.7059    9.3116 H         1 UNK         0.0806 
    142 H142      -45.9928  -25.2003    8.9463 H         1 UNK         0.3061 
    143 H143      -45.7226  -21.8988   10.2608 H         1 UNK         0.0734 
    144 H144      -43.7346  -23.5889    8.6442 H         1 UNK         0.0832 
    145 H145      -43.8073  -21.8265    8.6848 H         1 UNK         0.0832 
    146 H146      -43.3673  -22.7221   10.1285 H         1 UNK         0.0832 
    147 H147      -45.8989  -22.9068    7.5915 H         1 UNK         0.3156 
    148 H148      -49.4573  -23.0438    7.3858 H         1 UNK         0.0589 
    149 H149      -49.0285  -21.4825    5.5152 H         1 UNK         0.0808 
    150 H150      -48.8508  -20.6425    7.0456 H         1 UNK         0.0808 
    151 H151      -47.4201  -21.1179    6.1416 H         1 UNK         0.0808 
    152 H152      -47.5071  -23.5266    5.4056 H         1 UNK         0.3098 
    153 H153      -47.4565  -25.7171    4.5912 H         1 UNK         0.0720 
    154 H154      -45.3327  -26.3802    6.7288 H         1 UNK         0.0791 
    155 H155      -45.2367  -25.0491    5.5806 H         1 UNK         0.0791 
    156 H156      -45.1771  -26.7062    5.0056 H         1 UNK         0.0791 
    157 H157      -47.9921  -27.5864    6.7598 H         1 UNK         0.3028 
@<TRIPOS>BOND
     1    1    2 1    
     2    1   82 1    
     3    1   83 1    
     4    1   84 1    
     5    2    3 2    
     6    2    4 am   BACKBONE|DICT|INTERRES
     7    4    5 1    
     8    4   85 1    
     9    5    6 1    
    10    5   80 1    
    11    5   86 1    
    12    6    7 1    
    13    6   87 1    
    14    6   88 1    
    15    7    8 1    
    16    8    9 1    
    17    8   89 1    
    18    8   90 1    
    19    9   10 ar   
    20    9   14 ar   
    21   10   11 ar   
    22   10   91 1    
    23   11   12 ar   
    24   11   58 1    
    25   12   13 ar   
    26   12   92 1    
    27   13   14 ar   
    28   13   15 1    
    29   14   93 1    
    30   15   16 1    
    31   15   94 1    
    32   15   95 1    
    33   16   17 1    
    34   17   18 1    
    35   17   96 1    
    36   17   97 1    
    37   18   19 1    
    38   18   22 1    
    39   18   98 1    
    40   19   20 am   BACKBONE|DICT|INTERRES
    41   19   21 2    
    42   20   99 1    
    43   20  100 1    
    44   22   23 am   BACKBONE|DICT|INTERRES
    45   22  101 1    
    46   23   24 2    
    47   23   25 1    
    48   25   26 1    
    49   25   27 1    
    50   25  102 1    
    51   26  103 1    
    52   26  104 1    
    53   26  105 1    
    54   27   28 am   BACKBONE|DICT|INTERRES
    55   27  106 1    
    56   28   29 2    
    57   28   30 1    
    58   30   31 1    
    59   30   32 1    
    60   30  107 1    
    61   31  108 1    
    62   31  109 1    
    63   31  110 1    
    64   32   33 am   BACKBONE|DICT|INTERRES
    65   32  111 1    
    66   33   34 2    
    67   33   35 1    
    68   35   36 1    
    69   35   37 1    
    70   35  112 1    
    71   36  113 1    
    72   36  114 1    
    73   36  115 1    
    74   37   38 am   BACKBONE|DICT|INTERRES
    75   37  116 1    
    76   38   39 2    
    77   38   40 1    
    78   40   41 1    
    79   40   42 1    
    80   40  117 1    
    81   41  118 1    
    82   41  119 1    
    83   41  120 1    
    84   42   43 am   BACKBONE|DICT|INTERRES
    85   42  121 1    
    86   43   44 2    
    87   43   45 1    
    88   45   46 1    
    89   45   47 1    
    90   45  122 1    
    91   46  123 1    
    92   46  124 1    
    93   46  125 1    
    94   47   48 am   BACKBONE|DICT|INTERRES
    95   47  126 1    
    96   48   49 2    
    97   48   50 1    
    98   50   51 1    
    99   50   52 1    
   100   50  127 1    
   101   51  128 1    
   102   51  129 1    
   103   51  130 1    
   104   52   53 am   BACKBONE|DICT|INTERRES
   105   52  131 1    
   106   53   54 2    
   107   53   55 1    
   108   55   56 1    
   109   55   59 1    
   110   55  132 1    
   111   56   57 1    
   112   56  133 1    
   113   56  134 1    
   114   57   58 1    
   115   58  135 1    
   116   58  136 1    
   117   59   60 am   BACKBONE|DICT|INTERRES
   118   59  137 1    
   119   60   61 2    
   120   60   62 1    
   121   62   63 1    
   122   62   64 1    
   123   62  138 1    
   124   63  139 1    
   125   63  140 1    
   126   63  141 1    
   127   64   65 am   BACKBONE|DICT|INTERRES
   128   64  142 1    
   129   65   66 2    
   130   65   67 1    
   131   67   68 1    
   132   67   69 1    
   133   67  143 1    
   134   68  144 1    
   135   68  145 1    
   136   68  146 1    
   137   69   70 am   BACKBONE|DICT|INTERRES
   138   69  147 1    
   139   70   71 2    
   140   70   72 1    
   141   72   73 1    
   142   72   74 1    
   143   72  148 1    
   144   73  149 1    
   145   73  150 1    
   146   73  151 1    
   147   74   75 am   BACKBONE|DICT|INTERRES
   148   74  152 1    
   149   75   76 2    
   150   75   77 1    
   151   77   78 1    
   152   77   79 1    
   153   77  153 1    
   154   78  154 1    
   155   78  155 1    
   156   78  156 1    
   157   79   80 am   BACKBONE|DICT|INTERRES
   158   79  157 1    
   159   80   81 2    
@<TRIPOS>SUBSTRUCTURE
     1 UNK         1 GROUP             0       ****    0 ROOT    
