@<TRIPOS>MOLECULE
3R207
157   159    1
SMALL
USER_CHARGES


@<TRIPOS>ATOM
      1 CA        -50.9861  -26.5001    9.3435 C.3       0 UNK        -0.1975 
      2 C         -50.6278  -27.7595    8.5834 C.2       0 UNK         0.4852 
      3 O         -49.9134  -28.6165    9.1037 O.2       0 UNK        -0.5216 
      4 N         -51.1017  -27.8740    7.3404 N.am      1 UNK        -0.4461 
      5 CA        -50.7145  -28.9220    6.3998 C.3       1 UNK         0.0864 
      6 C6        -51.6025  -28.9290    5.1284 C.3       14 UNK        -0.0898 
      7 S7        -51.9008  -27.2834    4.3839 S.3       14 UNK        -0.2598 
      8 C8        -53.6797  -27.0383    4.6937 C.3       14 UNK         0.0286 
      9 C9        -53.9746  -26.5545    6.1090 C.ar      14 UNK        -0.0844 
     10 C10       -53.9215  -25.1879    6.4038 C.ar      14 UNK        -0.0881 
     11 C11       -54.2802  -24.7170    7.6712 C.ar      14 UNK        -0.0643 
     12 C12       -54.6762  -25.6265    8.6532 C.ar      14 UNK        -0.0930 
     13 C13       -54.7232  -26.9969    8.3773 C.ar      14 UNK        -0.0827 
     14 C14       -54.3693  -27.4563    7.1039 C.ar      14 UNK        -0.1249 
     15 C15       -55.2277  -27.9615    9.4409 C.3       14 UNK         0.0141 
     16 S16       -54.1878  -27.9334   10.9324 S.3       14 UNK        -0.2313 
     17 C17       -53.0780  -29.3601   10.6691 C.3       14 UNK        -0.0915 
     18 CA        -53.4375  -30.5604   11.5840 C.3       13 UNK         0.0968 
     19 C         -52.4747  -31.7587   11.3473 C.2       13 UNK         0.5732 
     20 N         -51.7081  -32.2029   12.3361 N.am      13 UNK        -0.7310 
     21 O         -52.4328  -32.3031   10.2467 O.2       13 UNK        -0.5035 
     22 N         -53.5620  -30.1315   12.9848 N.am      13 UNK        -0.4233 
     23 C         -54.2861  -30.7404   13.9297 C.2       13 UNK         0.4989 
     24 O         -54.8465  -31.8265   13.7794 O.2       13 UNK        -0.4996 
     25 CA        -54.4340  -29.9875   15.2631 C.3       12 UNK         0.0216 
     26 CB        -53.3978  -30.4844   16.2839 C.3       12 UNK        -0.1964 
     27 N         -54.3075  -28.5333   15.0955 N.am      12 UNK        -0.4276 
     28 C         -55.2854  -27.7394   14.6257 C.2       12 UNK         0.5020 
     29 O         -56.4072  -28.1622   14.3394 O.2       12 UNK        -0.5489 
     30 CA        -54.9783  -26.2363   14.4136 C.3       11 UNK         0.0294 
     31 CB        -56.1894  -25.3382   14.7420 C.3       11 UNK        -0.2019 
     32 N         -53.7737  -25.7506   15.0974 N.am      11 UNK        -0.4493 
     33 C         -53.5177  -25.7752   16.4149 C.2       11 UNK         0.4932 
     34 O         -54.3408  -26.1108   17.2678 O.2       11 UNK        -0.5029 
     35 CA        -52.0813  -25.4096   16.8420 C.3       10 UNK         0.0280 
     36 CB        -51.6861  -26.0526   18.1877 C.3       10 UNK        -0.1976 
     37 N         -51.0645  -25.7109   15.8242 N.am      10 UNK        -0.4242 
     38 C         -50.8168  -26.8903   15.2284 C.2       10 UNK         0.5072 
     39 O         -51.4675  -27.9121   15.4503 O.2       10 UNK        -0.5224 
     40 CA        -49.7071  -26.9435   14.1597 C.3       9 UNK         0.0343 
     41 CB        -50.3227  -27.2466   12.7848 C.3       9 UNK        -0.2003 
     42 N         -48.9330  -25.7070   14.0548 N.am      9 UNK        -0.4272 
     43 C         -48.0266  -25.2725   14.9396 C.2       9 UNK         0.4988 
     44 O         -47.6488  -25.9201   15.9160 O.2       9 UNK        -0.5108 
     45 CA        -47.5137  -23.8372   14.7322 C.3       8 UNK         0.0248 
     46 CB        -46.3305  -23.8116   13.7502 C.3       8 UNK        -0.2001 
     47 N         -48.5758  -22.9337   14.2686 N.am      8 UNK        -0.4140 
     48 C         -49.6304  -22.5603   15.0103 C.2       8 UNK         0.5028 
     49 O         -49.7949  -22.9063   16.1793 O.2       8 UNK        -0.5428 
     50 CA        -50.7017  -21.6860   14.3372 C.3       7 UNK         0.0264 
     51 CB        -50.3287  -20.1987   14.4448 C.3       7 UNK        -0.1988 
     52 N         -50.9222  -22.0336   12.9327 N.am      7 UNK        -0.4454 
     53 C         -51.5703  -23.1284   12.5053 C.2       7 UNK         0.5027 
     54 O         -52.0979  -23.9548   13.2538 O.2       7 UNK        -0.5083 
     55 CA        -51.5830  -23.3541   10.9767 C.3       6 UNK         0.0844 
     56 C56       -52.7717  -22.6159   10.3059 C.3       14 UNK        -0.0967 
     57 S57       -52.6754  -22.6001    8.4751 S.3       14 UNK        -0.2604 
     58 C58       -54.3021  -23.2226    7.9550 C.3       14 UNK         0.0134 
     59 N         -50.2979  -23.0243   10.3422 N.am      6 UNK        -0.4116 
     60 C         -49.1160  -23.5766   10.6360 C.2       5 UNK         0.5034 
     61 O         -48.9446  -24.3738   11.5581 O.2       5 UNK        -0.5045 
     62 CA        -47.9240  -23.1383    9.7841 C.3       5 UNK         0.0224 
     63 CB        -47.3544  -21.8028   10.3004 C.3       5 UNK        -0.1978 
     64 N         -46.8944  -24.1743    9.8306 N.am      5 UNK        -0.4737 
     65 C         -45.8959  -24.3170    8.9554 C.2       4 UNK         0.5027 
     66 O         -45.7587  -23.6058    7.9595 O.2       4 UNK        -0.5211 
     67 CA        -44.8547  -25.4144    9.2369 C.3       4 UNK         0.0297 
     68 CB        -43.9986  -25.0666   10.4718 C.3       4 UNK        -0.1993 
     69 N         -45.3926  -26.7782    9.3220 N.am      4 UNK        -0.4486 
     70 C         -46.2157  -27.3120   10.2337 C.2       3 UNK         0.4961 
     71 O         -46.7224  -26.6777   11.1596 O.2       3 UNK        -0.5105 
     72 CA        -46.4827  -28.8234   10.0889 C.3       3 UNK         0.0299 
     73 CB        -47.3890  -29.3854   11.2004 C.3       3 UNK        -0.1972 
     74 N         -47.0360  -29.1838    8.7771 N.am      3 UNK        -0.4305 
     75 C         -46.3068  -29.3665    7.6637 C.2       2 UNK         0.5006 
     76 O         -45.0982  -29.1303    7.6142 O.2       2 UNK        -0.5106 
     77 CA        -46.9972  -29.9166    6.3993 C.3       2 UNK         0.0296 
     78 CB        -46.5563  -31.3682    6.1439 C.3       2 UNK        -0.2002 
     79 N         -48.4586  -29.8752    6.4665 N.am      2 UNK        -0.4032 
     80 C         -49.2022  -28.8244    6.0975 C.2       1 UNK         0.5000 
     81 O         -48.7376  -27.7984    5.5941 O.2       1 UNK        -0.5238 
     82 H82       -50.0891  -26.0999    9.8099 H         1 UNK         0.0889 
     83 H83       -51.7083  -26.7213   10.1248 H         1 UNK         0.0889 
     84 H84       -51.4082  -25.7351    8.6913 H         1 UNK         0.0889 
     85 H85       -51.6913  -27.1494    6.9526 H         1 UNK         0.3028 
     86 H86       -50.8890  -29.8741    6.9065 H         1 UNK         0.0864 
     87 H87       -51.1739  -29.5801    4.3642 H         1 UNK         0.0720 
     88 H88       -52.5642  -29.3799    5.3758 H         1 UNK         0.0720 
     89 H89       -54.2262  -27.9579    4.4788 H         1 UNK         0.0814 
     90 H90       -54.0532  -26.3029    3.9794 H         1 UNK         0.0814 
     91 H91       -53.6300  -24.4845    5.6354 H         1 UNK         0.1469 
     92 H92       -54.9693  -25.2676    9.6303 H         1 UNK         0.1381 
     93 H93       -54.4278  -28.5123    6.8783 H         1 UNK         0.1206 
     94 H94       -55.3057  -28.9788    9.0546 H         1 UNK         0.0813 
     95 H95       -56.2399  -27.6678    9.7220 H         1 UNK         0.0813 
     96 H96       -52.0589  -29.0326   10.8750 H         1 UNK         0.0638 
     97 H97       -53.0954  -29.6487    9.6165 H         1 UNK         0.0638 
     98 H98       -54.4220  -30.9145   11.2726 H         1 UNK         0.0568 
     99 H99       -51.0933  -32.9837   12.1712 H         1 UNK         0.3450 
    100 H100      -51.7441  -31.7689   13.2438 H         1 UNK         0.3450 
    101 H101      -53.1412  -29.2432   13.2085 H         1 UNK         0.2987 
    102 H102      -55.4280  -30.2061   15.6593 H         1 UNK         0.0766 
    103 H103      -53.5342  -31.5470   16.4896 H         1 UNK         0.0798 
    104 H104      -53.4899  -29.9555   17.2328 H         1 UNK         0.0798 
    105 H105      -52.3767  -30.3526   15.9249 H         1 UNK         0.0798 
    106 H106      -53.3977  -28.1307   15.3096 H         1 UNK         0.3198 
    107 H107      -54.7729  -26.1262   13.3479 H         1 UNK         0.0843 
    108 H108      -56.5004  -25.4427   15.7817 H         1 UNK         0.0831 
    109 H109      -57.0479  -25.5941   14.1198 H         1 UNK         0.0831 
    110 H110      -55.9643  -24.2871   14.5618 H         1 UNK         0.0831 
    111 H111      -53.0428  -25.3936   14.4886 H         1 UNK         0.3133 
    112 H112      -52.0710  -24.3270   16.9731 H         1 UNK         0.0566 
    113 H113      -50.6752  -25.7682   18.4798 H         1 UNK         0.0814 
    114 H114      -51.7286  -27.1415   18.1412 H         1 UNK         0.0814 
    115 H115      -52.3543  -25.7336   18.9885 H         1 UNK         0.0814 
    116 H116      -50.4851  -24.9235   15.5619 H         1 UNK         0.3091 
    117 H117      -49.0250  -27.7540   14.4235 H         1 UNK         0.0702 
    118 H118      -49.5707  -27.2067   11.9975 H         1 UNK         0.0785 
    119 H119      -51.1055  -26.5315   12.5290 H         1 UNK         0.0785 
    120 H120      -50.7648  -28.2428   12.7660 H         1 UNK         0.0785 
    121 H121      -49.0977  -25.1417   13.2239 H         1 UNK         0.2998 
    122 H122      -47.1595  -23.4685   15.6973 H         1 UNK         0.0697 
    123 H123      -46.6076  -24.1940   12.7682 H         1 UNK         0.0825 
    124 H124      -45.5117  -24.4328   14.1155 H         1 UNK         0.0825 
    125 H125      -45.9388  -22.8027   13.6220 H         1 UNK         0.0825 
    126 H126      -48.5423  -22.6549   13.2998 H         1 UNK         0.3029 
    127 H127      -51.6388  -21.8410   14.8773 H         1 UNK         0.0897 
    128 H128      -49.4061  -19.9704   13.9096 H         1 UNK         0.0792 
    129 H129      -50.1811  -19.9090   15.4863 H         1 UNK         0.0792 
    130 H130      -51.1172  -19.5620   14.0429 H         1 UNK         0.0792 
    131 H131      -50.5295  -21.4111   12.2414 H         1 UNK         0.3086 
    132 H132      -51.7430  -24.4213   10.8319 H         1 UNK         0.0583 
    133 H133      -53.7124  -23.0681   10.6251 H         1 UNK         0.1020 
    134 H134      -52.8142  -21.5749   10.6329 H         1 UNK         0.1020 
    135 H135      -55.0597  -22.9797    8.7015 H         1 UNK         0.0694 
    136 H136      -54.5988  -22.6898    7.0503 H         1 UNK         0.0694 
    137 H137      -50.3594  -22.3824    9.5644 H         1 UNK         0.2989 
    138 H138      -48.2621  -23.0223    8.7518 H         1 UNK         0.1055 
    139 H139      -46.5334  -21.4522    9.6748 H         1 UNK         0.0806 
    140 H140      -46.9785  -21.8923   11.3201 H         1 UNK         0.0806 
    141 H141      -48.1135  -21.0196   10.2972 H         1 UNK         0.0806 
    142 H142      -46.9968  -24.8672   10.5728 H         1 UNK         0.3061 
    143 H143      -44.1820  -25.4266    8.3776 H         1 UNK         0.0734 
    144 H144      -44.5853  -25.0577   11.3905 H         1 UNK         0.0832 
    145 H145      -43.1849  -25.7797   10.6026 H         1 UNK         0.0832 
    146 H146      -43.5492  -24.0782   10.3672 H         1 UNK         0.0832 
    147 H147      -45.0738  -27.4149    8.5962 H         1 UNK         0.3156 
    148 H148      -45.5144  -29.3160   10.2012 H         1 UNK         0.0589 
    149 H149      -47.4748  -30.4697   11.1312 H         1 UNK         0.0808 
    150 H150      -48.3934  -28.9696   11.1532 H         1 UNK         0.0808 
    151 H151      -46.9886  -29.1549   12.1885 H         1 UNK         0.0808 
    152 H152      -48.0473  -29.2732    8.7376 H         1 UNK         0.3098 
    153 H153      -46.6566  -29.3114    5.5563 H         1 UNK         0.0720 
    154 H154      -45.4715  -31.4370    6.0490 H         1 UNK         0.0791 
    155 H155      -46.9844  -31.7560    5.2192 H         1 UNK         0.0791 
    156 H156      -46.8544  -32.0313    6.9570 H         1 UNK         0.0791 
    157 H157      -48.9125  -30.6695    6.8955 H         1 UNK         0.3028 
@<TRIPOS>BOND
     1    1    2 1    
     2    1   82 1    
     3    1   83 1    
     4    1   84 1    
     5    2    3 2    
     6    2    4 am   BACKBONE|DICT|INTERRES
     7    4    5 1    
     8    4   85 1    
     9    5    6 1    
    10    5   80 1    
    11    5   86 1    
    12    6    7 1    
    13    6   87 1    
    14    6   88 1    
    15    7    8 1    
    16    8    9 1    
    17    8   89 1    
    18    8   90 1    
    19    9   10 ar   
    20    9   14 ar   
    21   10   11 ar   
    22   10   91 1    
    23   11   12 ar   
    24   11   58 1    
    25   12   13 ar   
    26   12   92 1    
    27   13   14 ar   
    28   13   15 1    
    29   14   93 1    
    30   15   16 1    
    31   15   94 1    
    32   15   95 1    
    33   16   17 1    
    34   17   18 1    
    35   17   96 1    
    36   17   97 1    
    37   18   19 1    
    38   18   22 1    
    39   18   98 1    
    40   19   20 am   BACKBONE|DICT|INTERRES
    41   19   21 2    
    42   20   99 1    
    43   20  100 1    
    44   22   23 am   BACKBONE|DICT|INTERRES
    45   22  101 1    
    46   23   24 2    
    47   23   25 1    
    48   25   26 1    
    49   25   27 1    
    50   25  102 1    
    51   26  103 1    
    52   26  104 1    
    53   26  105 1    
    54   27   28 am   BACKBONE|DICT|INTERRES
    55   27  106 1    
    56   28   29 2    
    57   28   30 1    
    58   30   31 1    
    59   30   32 1    
    60   30  107 1    
    61   31  108 1    
    62   31  109 1    
    63   31  110 1    
    64   32   33 am   BACKBONE|DICT|INTERRES
    65   32  111 1    
    66   33   34 2    
    67   33   35 1    
    68   35   36 1    
    69   35   37 1    
    70   35  112 1    
    71   36  113 1    
    72   36  114 1    
    73   36  115 1    
    74   37   38 am   BACKBONE|DICT|INTERRES
    75   37  116 1    
    76   38   39 2    
    77   38   40 1    
    78   40   41 1    
    79   40   42 1    
    80   40  117 1    
    81   41  118 1    
    82   41  119 1    
    83   41  120 1    
    84   42   43 am   BACKBONE|DICT|INTERRES
    85   42  121 1    
    86   43   44 2    
    87   43   45 1    
    88   45   46 1    
    89   45   47 1    
    90   45  122 1    
    91   46  123 1    
    92   46  124 1    
    93   46  125 1    
    94   47   48 am   BACKBONE|DICT|INTERRES
    95   47  126 1    
    96   48   49 2    
    97   48   50 1    
    98   50   51 1    
    99   50   52 1    
   100   50  127 1    
   101   51  128 1    
   102   51  129 1    
   103   51  130 1    
   104   52   53 am   BACKBONE|DICT|INTERRES
   105   52  131 1    
   106   53   54 2    
   107   53   55 1    
   108   55   56 1    
   109   55   59 1    
   110   55  132 1    
   111   56   57 1    
   112   56  133 1    
   113   56  134 1    
   114   57   58 1    
   115   58  135 1    
   116   58  136 1    
   117   59   60 am   BACKBONE|DICT|INTERRES
   118   59  137 1    
   119   60   61 2    
   120   60   62 1    
   121   62   63 1    
   122   62   64 1    
   123   62  138 1    
   124   63  139 1    
   125   63  140 1    
   126   63  141 1    
   127   64   65 am   BACKBONE|DICT|INTERRES
   128   64  142 1    
   129   65   66 2    
   130   65   67 1    
   131   67   68 1    
   132   67   69 1    
   133   67  143 1    
   134   68  144 1    
   135   68  145 1    
   136   68  146 1    
   137   69   70 am   BACKBONE|DICT|INTERRES
   138   69  147 1    
   139   70   71 2    
   140   70   72 1    
   141   72   73 1    
   142   72   74 1    
   143   72  148 1    
   144   73  149 1    
   145   73  150 1    
   146   73  151 1    
   147   74   75 am   BACKBONE|DICT|INTERRES
   148   74  152 1    
   149   75   76 2    
   150   75   77 1    
   151   77   78 1    
   152   77   79 1    
   153   77  153 1    
   154   78  154 1    
   155   78  155 1    
   156   78  156 1    
   157   79   80 am   BACKBONE|DICT|INTERRES
   158   79  157 1    
   159   80   81 2    
@<TRIPOS>SUBSTRUCTURE
     1 UNK         1 GROUP             0       ****    0 ROOT    
