@<TRIPOS>MOLECULE
3R207
157   159    1
SMALL
USER_CHARGES


@<TRIPOS>ATOM
      1 CA        -52.5134  -24.9692    3.1000 C.3       0 UNK        -0.1975 
      2 C         -51.2038  -25.5954    2.6294 C.2       0 UNK         0.4852 
      3 O         -50.6038  -25.0932    1.6803 O.2       0 UNK        -0.5216 
      4 N         -50.7140  -26.6736    3.2522 N.am      1 UNK        -0.4461 
      5 CA        -51.2568  -27.3688    4.4184 C.3       1 UNK         0.0864 
      6 C6        -52.3078  -28.4371    4.0109 C.3       14 UNK        -0.0898 
      7 S7        -53.2822  -29.1301    5.3936 S.3       14 UNK        -0.2598 
      8 C8        -54.5209  -27.8354    5.7221 C.3       14 UNK         0.0286 
      9 C9        -54.1826  -27.0500    6.9827 C.ar      14 UNK        -0.0844 
     10 C10       -53.6070  -25.7785    6.9019 C.ar      14 UNK        -0.0881 
     11 C11       -53.2973  -25.0520    8.0564 C.ar      14 UNK        -0.0643 
     12 C12       -53.6059  -25.6062    9.3059 C.ar      14 UNK        -0.0930 
     13 C13       -54.1891  -26.8721    9.4030 C.ar      14 UNK        -0.0827 
     14 C14       -54.4720  -27.5909    8.2386 C.ar      14 UNK        -0.1249 
     15 C15       -54.5389  -27.4396   10.7703 C.3       14 UNK         0.0141 
     16 S16       -53.0978  -28.1934   11.5847 S.3       14 UNK        -0.2313 
     17 C17       -53.0933  -29.8555   10.8318 C.3       14 UNK        -0.0915 
     18 CA        -53.8038  -30.9099   11.7286 C.3       13 UNK         0.0968 
     19 C         -54.0993  -32.2477   10.9815 C.2       13 UNK         0.5732 
     20 N         -54.1168  -33.3909   11.6569 N.am      13 UNK        -0.7310 
     21 O         -54.3585  -32.2529    9.7803 O.2       13 UNK        -0.5035 
     22 N         -53.1535  -31.0624   13.0432 N.am      13 UNK        -0.4233 
     23 C         -51.9334  -31.5596   13.2794 C.2       13 UNK         0.4989 
     24 O         -51.1806  -31.9848   12.4017 O.2       13 UNK        -0.4996 
     25 CA        -51.4795  -31.5719   14.7535 C.3       12 UNK         0.0216 
     26 CB        -50.1335  -32.2957   14.9501 C.3       12 UNK        -0.1964 
     27 N         -51.3733  -30.2249   15.3227 N.am      12 UNK        -0.4276 
     28 C         -52.3959  -29.4349   15.6773 C.2       12 UNK         0.5020 
     29 O         -53.5758  -29.7649   15.5435 O.2       12 UNK        -0.5489 
     30 CA        -52.0471  -28.0735   16.3111 C.3       11 UNK         0.0294 
     31 CB        -50.5923  -27.9776   16.8146 C.3       11 UNK        -0.2019 
     32 N         -52.2962  -26.9699   15.3848 N.am      11 UNK        -0.4493 
     33 C         -53.4907  -26.4297   15.1148 C.2       11 UNK         0.4932 
     34 O         -54.5520  -26.7981   15.6218 O.2       11 UNK        -0.5029 
     35 CA        -53.4664  -25.2323   14.1452 C.3       10 UNK         0.0280 
     36 CB        -54.8748  -24.7190   13.7758 C.3       10 UNK        -0.1976 
     37 N         -52.6284  -24.1342   14.6468 N.am      10 UNK        -0.4242 
     38 C         -52.7737  -23.4597   15.7988 C.2       10 UNK         0.5072 
     39 O         -53.6703  -23.6640   16.6197 O.2       10 UNK        -0.5224 
     40 CA        -51.7398  -22.3494   16.0546 C.3       9 UNK         0.0343 
     41 CB        -51.9020  -21.6555   17.4251 C.3       9 UNK        -0.2003 
     42 N         -50.3637  -22.8089   15.8458 N.am      9 UNK        -0.4272 
     43 C         -49.6656  -23.7044   16.5614 C.2       9 UNK         0.4988 
     44 O         -50.1153  -24.2843   17.5503 O.2       9 UNK        -0.5108 
     45 CA        -48.2129  -23.9966   16.1158 C.3       8 UNK         0.0248 
     46 CB        -47.8229  -25.4689   16.3358 C.3       8 UNK        -0.2001 
     47 N         -47.9468  -23.6430   14.7182 N.am      8 UNK        -0.4140 
     48 C         -47.6906  -22.4107   14.2591 C.2       8 UNK         0.5028 
     49 O         -47.5575  -21.4262   14.9860 O.2       8 UNK        -0.5428 
     50 CA        -47.6385  -22.2276   12.7321 C.3       7 UNK         0.0264 
     51 CB        -46.1887  -22.3245   12.2319 C.3       7 UNK        -0.1988 
     52 N         -48.4775  -23.1739   11.9867 N.am      7 UNK        -0.4454 
     53 C         -49.8117  -23.2897   12.0944 C.2       7 UNK         0.5027 
     54 O         -50.5020  -22.6073   12.8534 O.2       7 UNK        -0.5083 
     55 CA        -50.4783  -24.4120   11.2722 C.3       6 UNK         0.0844 
     56 C56       -50.5558  -24.0603    9.7645 C.3       14 UNK        -0.0967 
     57 S57       -51.9354  -22.9236    9.3975 S.3       14 UNK        -0.2604 
     58 C58       -52.6566  -23.6705    7.8922 C.3       14 UNK         0.0134 
     59 N         -49.8222  -25.6990   11.5022 N.am      6 UNK        -0.4116 
     60 C         -49.7053  -26.3196   12.6844 C.2       5 UNK         0.5034 
     61 O         -50.2233  -25.9253   13.7291 O.2       5 UNK        -0.5045 
     62 CA        -48.8152  -27.5697   12.7190 C.3       5 UNK         0.0224 
     63 CB        -49.6106  -28.8201   12.3235 C.3       5 UNK        -0.1978 
     64 N         -47.6442  -27.4281   11.8516 N.am      5 UNK        -0.4737 
     65 C         -46.5956  -26.6425   12.1324 C.2       4 UNK         0.5027 
     66 O         -46.4862  -25.9980   13.1749 O.2       4 UNK        -0.5211 
     67 CA        -45.5022  -26.5345   11.0559 C.3       4 UNK         0.0297 
     68 CB        -44.5241  -27.7154   11.1582 C.3       4 UNK        -0.1993 
     69 N         -46.0429  -26.4577    9.6950 N.am      4 UNK        -0.4486 
     70 C         -46.7635  -25.4280    9.2295 C.2       3 UNK         0.4961 
     71 O         -47.0421  -24.4309    9.8935 O.2       3 UNK        -0.5105 
     72 CA        -47.3059  -25.5422    7.7948 C.3       3 UNK         0.0299 
     73 CB        -46.2334  -25.1225    6.7778 C.3       3 UNK        -0.1972 
     74 N         -47.8376  -26.8615    7.4323 N.am      3 UNK        -0.4305 
     75 C         -48.7599  -27.5496    8.1192 C.2       2 UNK         0.5006 
     76 O         -49.1967  -27.2049    9.2169 O.2       2 UNK        -0.5106 
     77 CA        -49.3349  -28.7949    7.4296 C.3       2 UNK         0.0296 
     78 CB        -50.0059  -29.7547    8.4269 C.3       2 UNK        -0.2002 
     79 N         -50.3323  -28.3688    6.4524 N.am      2 UNK        -0.4032 
     80 C         -50.0671  -27.9404    5.2138 C.2       1 UNK         0.5000 
     81 O         -48.9361  -27.9560    4.7149 O.2       1 UNK        -0.5238 
     82 H82       -52.3403  -24.3528    3.9813 H         1 UNK         0.0889 
     83 H83       -53.2661  -25.7190    3.3342 H         1 UNK         0.0889 
     84 H84       -52.9264  -24.3279    2.3216 H         1 UNK         0.0889 
     85 H85       -49.8062  -27.0305    2.9778 H         1 UNK         0.3028 
     86 H86       -51.7217  -26.6295    5.0679 H         1 UNK         0.0864 
     87 H87       -51.8175  -29.2655    3.4962 H         1 UNK         0.0720 
     88 H88       -53.0099  -28.0284    3.2836 H         1 UNK         0.0720 
     89 H89       -55.4951  -28.3107    5.8473 H         1 UNK         0.0814 
     90 H90       -54.6218  -27.1716    4.8628 H         1 UNK         0.0814 
     91 H91       -53.4069  -25.3426    5.9343 H         1 UNK         0.1469 
     92 H92       -53.4022  -25.0598   10.2147 H         1 UNK         0.1381 
     93 H93       -54.9276  -28.5694    8.3064 H         1 UNK         0.1206 
     94 H94       -55.3463  -28.1693   10.6940 H         1 UNK         0.0813 
     95 H95       -54.9183  -26.6383   11.4035 H         1 UNK         0.0813 
     96 H96       -53.5570  -29.7926    9.8473 H         1 UNK         0.0638 
     97 H97       -52.0597  -30.1507   10.6554 H         1 UNK         0.0638 
     98 H98       -54.7964  -30.5172   11.9505 H         1 UNK         0.0568 
     99 H99       -54.3219  -34.2483   11.1688 H         1 UNK         0.3450 
    100 H100      -53.9230  -33.4046   12.6448 H         1 UNK         0.3450 
    101 H101      -53.6600  -30.6851   13.8396 H         1 UNK         0.2987 
    102 H102      -52.2353  -32.1238   15.3165 H         1 UNK         0.0766 
    103 H103      -49.3214  -31.7904   14.4255 H         1 UNK         0.0798 
    104 H104      -50.1803  -33.3174   14.5706 H         1 UNK         0.0798 
    105 H105      -49.8655  -32.3578   16.0050 H         1 UNK         0.0798 
    106 H106      -50.4376  -29.8747   15.4640 H         1 UNK         0.3198 
    107 H107      -52.7024  -27.9529   17.1764 H         1 UNK         0.0843 
    108 H108      -50.4280  -27.0386   17.3438 H         1 UNK         0.0831 
    109 H109      -49.8688  -28.0242   16.0006 H         1 UNK         0.0831 
    110 H110      -50.3620  -28.7792   17.5180 H         1 UNK         0.0831 
    111 H111      -51.4896  -26.5892   14.8932 H         1 UNK         0.3133 
    112 H112      -52.9985  -25.5885   13.2270 H         1 UNK         0.0566 
    113 H113      -54.8256  -23.9483   13.0068 H         1 UNK         0.0814 
    114 H114      -55.4975  -25.5260   13.3895 H         1 UNK         0.0814 
    115 H115      -55.3955  -24.3011   14.6378 H         1 UNK         0.0814 
    116 H116      -51.8303  -23.8918   14.0710 H         1 UNK         0.3091 
    117 H117      -51.9193  -21.5930   15.2889 H         1 UNK         0.0702 
    118 H118      -51.1649  -20.8637   17.5586 H         1 UNK         0.0785 
    119 H119      -51.7961  -22.3568   18.2532 H         1 UNK         0.0785 
    120 H120      -52.8882  -21.1982   17.5141 H         1 UNK         0.0785 
    121 H121      -49.9164  -22.4298   15.0209 H         1 UNK         0.2998 
    122 H122      -47.5676  -23.3884   16.7528 H         1 UNK         0.0697 
    123 H123      -46.7805  -25.6459   16.0702 H         1 UNK         0.0825 
    124 H124      -47.9435  -25.7623   17.3793 H         1 UNK         0.0825 
    125 H125      -48.4361  -26.1367   15.7334 H         1 UNK         0.0825 
    126 H126      -48.0078  -24.3978   14.0467 H         1 UNK         0.3029 
    127 H127      -48.0093  -21.2238   12.5144 H         1 UNK         0.0897 
    128 H128      -46.1197  -22.0932   11.1688 H         1 UNK         0.0792 
    129 H129      -45.5434  -21.6201   12.7588 H         1 UNK         0.0792 
    130 H130      -45.7773  -23.3232   12.3842 H         1 UNK         0.0792 
    131 H131      -47.9905  -23.7599   11.3092 H         1 UNK         0.3086 
    132 H132      -51.4964  -24.5300   11.6469 H         1 UNK         0.0583 
    133 H133      -49.6241  -23.6262    9.3977 H         1 UNK         0.1020 
    134 H134      -50.7014  -24.9713    9.1822 H         1 UNK         0.1020 
    135 H135      -53.4150  -22.9875    7.5075 H         1 UNK         0.0694 
    136 H136      -51.8751  -23.7222    7.1323 H         1 UNK         0.0694 
    137 H137      -49.4227  -26.1578   10.6858 H         1 UNK         0.2989 
    138 H138      -48.4677  -27.6989   13.7462 H         1 UNK         0.1055 
    139 H139      -50.4859  -28.9364   12.9617 H         1 UNK         0.0806 
    140 H140      -49.0129  -29.7263   12.4223 H         1 UNK         0.0806 
    141 H141      -49.9703  -28.7640   11.2964 H         1 UNK         0.0806 
    142 H142      -47.6942  -27.8646   10.9415 H         1 UNK         0.3061 
    143 H143      -44.9445  -25.6148   11.2462 H         1 UNK         0.0734 
    144 H144      -43.6944  -27.6059   10.4596 H         1 UNK         0.0832 
    145 H145      -44.0954  -27.7790   12.1594 H         1 UNK         0.0832 
    146 H146      -45.0139  -28.6682   10.9532 H         1 UNK         0.0832 
    147 H147      -45.8696  -27.2403    9.0810 H         1 UNK         0.3156 
    148 H148      -48.1367  -24.8390    7.7114 H         1 UNK         0.0589 
    149 H149      -45.3927  -25.8172    6.7655 H         1 UNK         0.0808 
    150 H150      -46.6416  -25.0714    5.7681 H         1 UNK         0.0808 
    151 H151      -45.8363  -24.1340    7.0141 H         1 UNK         0.0808 
    152 H152      -47.5843  -27.2115    6.5169 H         1 UNK         0.3098 
    153 H153      -48.5229  -29.3287    6.9310 H         1 UNK         0.0720 
    154 H154      -49.3041  -30.0773    9.1969 H         1 UNK         0.0791 
    155 H155      -50.3776  -30.6501    7.9284 H         1 UNK         0.0791 
    156 H156      -50.8488  -29.2777    8.9272 H         1 UNK         0.0791 
    157 H157      -51.2891  -28.3292    6.7787 H         1 UNK         0.3028 
@<TRIPOS>BOND
     1    1    2 1    
     2    1   82 1    
     3    1   83 1    
     4    1   84 1    
     5    2    3 2    
     6    2    4 am   BACKBONE|DICT|INTERRES
     7    4    5 1    
     8    4   85 1    
     9    5    6 1    
    10    5   80 1    
    11    5   86 1    
    12    6    7 1    
    13    6   87 1    
    14    6   88 1    
    15    7    8 1    
    16    8    9 1    
    17    8   89 1    
    18    8   90 1    
    19    9   10 ar   
    20    9   14 ar   
    21   10   11 ar   
    22   10   91 1    
    23   11   12 ar   
    24   11   58 1    
    25   12   13 ar   
    26   12   92 1    
    27   13   14 ar   
    28   13   15 1    
    29   14   93 1    
    30   15   16 1    
    31   15   94 1    
    32   15   95 1    
    33   16   17 1    
    34   17   18 1    
    35   17   96 1    
    36   17   97 1    
    37   18   19 1    
    38   18   22 1    
    39   18   98 1    
    40   19   20 am   BACKBONE|DICT|INTERRES
    41   19   21 2    
    42   20   99 1    
    43   20  100 1    
    44   22   23 am   BACKBONE|DICT|INTERRES
    45   22  101 1    
    46   23   24 2    
    47   23   25 1    
    48   25   26 1    
    49   25   27 1    
    50   25  102 1    
    51   26  103 1    
    52   26  104 1    
    53   26  105 1    
    54   27   28 am   BACKBONE|DICT|INTERRES
    55   27  106 1    
    56   28   29 2    
    57   28   30 1    
    58   30   31 1    
    59   30   32 1    
    60   30  107 1    
    61   31  108 1    
    62   31  109 1    
    63   31  110 1    
    64   32   33 am   BACKBONE|DICT|INTERRES
    65   32  111 1    
    66   33   34 2    
    67   33   35 1    
    68   35   36 1    
    69   35   37 1    
    70   35  112 1    
    71   36  113 1    
    72   36  114 1    
    73   36  115 1    
    74   37   38 am   BACKBONE|DICT|INTERRES
    75   37  116 1    
    76   38   39 2    
    77   38   40 1    
    78   40   41 1    
    79   40   42 1    
    80   40  117 1    
    81   41  118 1    
    82   41  119 1    
    83   41  120 1    
    84   42   43 am   BACKBONE|DICT|INTERRES
    85   42  121 1    
    86   43   44 2    
    87   43   45 1    
    88   45   46 1    
    89   45   47 1    
    90   45  122 1    
    91   46  123 1    
    92   46  124 1    
    93   46  125 1    
    94   47   48 am   BACKBONE|DICT|INTERRES
    95   47  126 1    
    96   48   49 2    
    97   48   50 1    
    98   50   51 1    
    99   50   52 1    
   100   50  127 1    
   101   51  128 1    
   102   51  129 1    
   103   51  130 1    
   104   52   53 am   BACKBONE|DICT|INTERRES
   105   52  131 1    
   106   53   54 2    
   107   53   55 1    
   108   55   56 1    
   109   55   59 1    
   110   55  132 1    
   111   56   57 1    
   112   56  133 1    
   113   56  134 1    
   114   57   58 1    
   115   58  135 1    
   116   58  136 1    
   117   59   60 am   BACKBONE|DICT|INTERRES
   118   59  137 1    
   119   60   61 2    
   120   60   62 1    
   121   62   63 1    
   122   62   64 1    
   123   62  138 1    
   124   63  139 1    
   125   63  140 1    
   126   63  141 1    
   127   64   65 am   BACKBONE|DICT|INTERRES
   128   64  142 1    
   129   65   66 2    
   130   65   67 1    
   131   67   68 1    
   132   67   69 1    
   133   67  143 1    
   134   68  144 1    
   135   68  145 1    
   136   68  146 1    
   137   69   70 am   BACKBONE|DICT|INTERRES
   138   69  147 1    
   139   70   71 2    
   140   70   72 1    
   141   72   73 1    
   142   72   74 1    
   143   72  148 1    
   144   73  149 1    
   145   73  150 1    
   146   73  151 1    
   147   74   75 am   BACKBONE|DICT|INTERRES
   148   74  152 1    
   149   75   76 2    
   150   75   77 1    
   151   77   78 1    
   152   77   79 1    
   153   77  153 1    
   154   78  154 1    
   155   78  155 1    
   156   78  156 1    
   157   79   80 am   BACKBONE|DICT|INTERRES
   158   79  157 1    
   159   80   81 2    
@<TRIPOS>SUBSTRUCTURE
     1 UNK         1 GROUP             0       ****    0 ROOT    
