@<TRIPOS>MOLECULE
3R207
157   159    1
SMALL
USER_CHARGES


@<TRIPOS>ATOM
      1 CA        -46.7346  -32.3442    5.3231 C.3       0 UNK        -0.1975 
      2 C         -47.0337  -31.0534    6.0710 C.2       0 UNK         0.4852 
      3 O         -46.1937  -30.5917    6.8451 O.2       0 UNK        -0.5216 
      4 N         -48.2217  -30.4746    5.8413 N.am      1 UNK        -0.4461 
      5 CA        -48.7390  -29.2286    6.4242 C.3       1 UNK         0.0864 
      6 C6        -48.8886  -29.2691    7.9731 C.3       14 UNK        -0.0898 
      7 S7        -50.2900  -30.3261    8.4802 S.3       14 UNK        -0.2598 
      8 C8        -50.9941  -29.4130    9.9024 C.3       14 UNK         0.0286 
      9 C9        -51.9326  -28.2535    9.5577 C.ar      14 UNK        -0.0844 
     10 C10       -51.7794  -27.4967    8.3930 C.ar      14 UNK        -0.0881 
     11 C11       -52.5708  -26.3747    8.1539 C.ar      14 UNK        -0.0643 
     12 C12       -53.5841  -26.0446    9.0557 C.ar      14 UNK        -0.0930 
     13 C13       -53.7839  -26.8017   10.2146 C.ar      14 UNK        -0.0827 
     14 C14       -52.9380  -27.8951   10.4643 C.ar      14 UNK        -0.1249 
     15 C15       -54.9143  -26.3720   11.1542 C.3       14 UNK         0.0141 
     16 S16       -55.2356  -27.4701   12.5733 S.3       14 UNK        -0.2313 
     17 C17       -56.8496  -26.8294   13.1313 C.3       14 UNK        -0.0915 
     18 CA        -57.2907  -27.3946   14.5079 C.3       13 UNK         0.0968 
     19 C         -58.6939  -26.8473   14.8874 C.2       13 UNK         0.5732 
     20 N         -58.7536  -25.7554   15.6375 N.am      13 UNK        -0.7310 
     21 O         -59.7226  -27.3754   14.4679 O.2       13 UNK        -0.5035 
     22 N         -57.2024  -28.8609   14.5246 N.am      13 UNK        -0.4233 
     23 C         -57.4854  -29.6778   15.5475 C.2       13 UNK         0.4989 
     24 O         -57.9319  -29.3099   16.6348 O.2       13 UNK        -0.4996 
     25 CA        -57.1678  -31.1696   15.3261 C.3       12 UNK         0.0216 
     26 CB        -58.3662  -31.8903   14.6870 C.3       12 UNK        -0.1964 
     27 N         -55.9691  -31.3794   14.5024 N.am      12 UNK        -0.4276 
     28 C         -54.7272  -31.0392   14.8772 C.2       12 UNK         0.5020 
     29 O         -54.4546  -30.6070   15.9998 O.2       12 UNK        -0.5489 
     30 CA        -53.6007  -31.1899   13.8414 C.3       11 UNK         0.0294 
     31 CB        -54.0823  -31.1971   12.3730 C.3       11 UNK        -0.2019 
     32 N         -52.6373  -30.1161   14.0762 N.am      11 UNK        -0.4493 
     33 C         -51.3516  -30.1050   13.7176 C.2       11 UNK         0.4932 
     34 O         -50.8338  -30.9815   13.0239 O.2       11 UNK        -0.5029 
     35 CA        -50.4982  -28.9310   14.2444 C.3       10 UNK         0.0280 
     36 CB        -49.0365  -28.9988   13.7671 C.3       10 UNK        -0.1976 
     37 N         -51.0383  -27.6107   13.9077 N.am      10 UNK        -0.4242 
     38 C         -52.0771  -27.0129   14.5068 C.2       10 UNK         0.5072 
     39 O         -52.7738  -27.5554   15.3673 O.2       10 UNK        -0.5224 
     40 CA        -52.3401  -25.5516   14.0958 C.3       9 UNK         0.0343 
     41 CB        -53.5152  -24.9012   14.8562 C.3       9 UNK        -0.2003 
     42 N         -51.1272  -24.7333   14.2070 N.am      9 UNK        -0.4272 
     43 C         -50.3799  -24.5135   15.3014 C.2       9 UNK         0.4988 
     44 O         -50.6756  -24.9064   16.4305 O.2       9 UNK        -0.5108 
     45 CA        -49.0541  -23.7496   15.1153 C.3       8 UNK         0.0248 
     46 CB        -47.8705  -24.7278   15.1972 C.3       8 UNK        -0.2001 
     47 N         -48.9698  -23.0039   13.8567 N.am      8 UNK        -0.4140 
     48 C         -49.6501  -21.8805   13.5893 C.2       8 UNK         0.5028 
     49 O         -50.3648  -21.2999   14.4072 O.2       8 UNK        -0.5428 
     50 CA        -49.5465  -21.3326   12.1551 C.3       7 UNK         0.0264 
     51 CB        -48.2797  -20.4793   11.9847 C.3       7 UNK        -0.1988 
     52 N         -49.5785  -22.3829   11.1312 N.am      7 UNK        -0.4454 
     53 C         -50.6126  -23.2133   10.9217 C.2       7 UNK         0.5027 
     54 O         -51.6625  -23.1731   11.5628 O.2       7 UNK        -0.5083 
     55 CA        -50.4378  -24.2892    9.8345 C.3       6 UNK         0.0844 
     56 C56       -50.6765  -23.6638    8.4327 C.3       14 UNK        -0.0967 
     57 S57       -50.5685  -24.8315    7.0366 S.3       14 UNK        -0.2604 
     58 C58       -52.2693  -25.4906    6.9538 C.3       14 UNK         0.0134 
     59 N         -49.1589  -24.9923    9.9853 N.am      6 UNK        -0.4116 
     60 C         -48.8344  -25.7537   11.0436 C.2       5 UNK         0.5034 
     61 O         -49.6248  -26.0639   11.9358 O.2       5 UNK        -0.5045 
     62 CA        -47.3657  -26.1905   11.1817 C.3       5 UNK         0.0224 
     63 CB        -47.0977  -27.5541   10.5269 C.3       5 UNK        -0.1978 
     64 N         -46.4371  -25.1957   10.6449 N.am      5 UNK        -0.4737 
     65 C         -46.1510  -24.0295   11.2372 C.2       4 UNK         0.5027 
     66 O         -46.6053  -23.6920   12.3290 O.2       4 UNK        -0.5211 
     67 CA        -45.2363  -23.0638   10.4637 C.3       4 UNK         0.0297 
     68 CB        -43.7592  -23.3884   10.7351 C.3       4 UNK        -0.1993 
     69 N         -45.4866  -23.0803    9.0194 N.am      4 UNK        -0.4486 
     70 C         -46.6181  -22.6465    8.4465 C.2       3 UNK         0.4961 
     71 O         -47.5465  -22.1341    9.0722 O.2       3 UNK        -0.5105 
     72 CA        -46.7626  -22.8714    6.9290 C.3       3 UNK         0.0299 
     73 CB        -46.1300  -21.7071    6.1509 C.3       3 UNK        -0.1972 
     74 N         -46.2150  -24.1473    6.4423 N.am      3 UNK        -0.4305 
     75 C         -46.5706  -25.3552    6.9025 C.2       2 UNK         0.5006 
     76 O         -47.3293  -25.5180    7.8575 O.2       2 UNK        -0.5106 
     77 CA        -45.9303  -26.5832    6.2312 C.3       2 UNK         0.0296 
     78 CB        -44.5269  -26.8314    6.8083 C.3       2 UNK        -0.2002 
     79 N         -46.7399  -27.7893    6.4322 N.am      2 UNK        -0.4032 
     80 C         -47.9635  -27.9910    5.9256 C.2       1 UNK         0.5000 
     81 O         -48.4839  -27.2547    5.0851 O.2       1 UNK        -0.5238 
     82 H82       -47.5596  -32.6433    4.6768 H         1 UNK         0.0889 
     83 H83       -46.5487  -33.1517    6.0307 H         1 UNK         0.0889 
     84 H84       -45.8460  -32.2215    4.7046 H         1 UNK         0.0889 
     85 H85       -48.8463  -30.9126    5.1784 H         1 UNK         0.3028 
     86 H86       -49.7423  -29.1150    6.0093 H         1 UNK         0.0864 
     87 H87       -47.9851  -29.6426    8.4552 H         1 UNK         0.0720 
     88 H88       -49.0368  -28.2664    8.3760 H         1 UNK         0.0720 
     89 H89       -50.1862  -29.0383   10.5308 H         1 UNK         0.0814 
     90 H90       -51.5355  -30.1390   10.5083 H         1 UNK         0.0814 
     91 H91       -51.0126  -27.7316    7.6744 H         1 UNK         0.1469 
     92 H92       -54.2039  -25.1782    8.8687 H         1 UNK         0.1381 
     93 H93       -53.0458  -28.4744   11.3696 H         1 UNK         0.1206 
     94 H94       -54.6977  -25.3721   11.5333 H         1 UNK         0.0813 
     95 H95       -55.8327  -26.2923   10.5706 H         1 UNK         0.0813 
     96 H96       -57.5882  -27.0696   12.3638 H         1 UNK         0.0638 
     97 H97       -56.7902  -25.7402   13.1744 H         1 UNK         0.0638 
     98 H98       -56.5801  -27.0427   15.2582 H         1 UNK         0.0568 
     99 H99       -59.6561  -25.3770   15.8788 H         1 UNK         0.3450 
    100 H100      -57.9165  -25.3065   15.9751 H         1 UNK         0.3450 
    101 H101      -56.8359  -29.2700   13.6795 H         1 UNK         0.2987 
    102 H102      -56.9845  -31.6161   16.3059 H         1 UNK         0.0766 
    103 H103      -58.1844  -32.9615   14.5978 H         1 UNK         0.0798 
    104 H104      -58.5909  -31.5024   13.6925 H         1 UNK         0.0798 
    105 H105      -59.2638  -31.7657   15.2946 H         1 UNK         0.0798 
    106 H106      -56.1093  -31.7477   13.5725 H         1 UNK         0.3198 
    107 H107      -53.1091  -32.1421   14.0508 H         1 UNK         0.0843 
    108 H108      -54.6371  -30.2944   12.1200 H         1 UNK         0.0831 
    109 H109      -54.7251  -32.0533   12.1673 H         1 UNK         0.0831 
    110 H110      -53.2442  -31.2724   11.6817 H         1 UNK         0.0831 
    111 H111      -52.9641  -29.3696   14.6891 H         1 UNK         0.3133 
    112 H112      -50.4859  -29.0190   15.3327 H         1 UNK         0.0566 
    113 H113      -48.4423  -28.1841   14.1815 H         1 UNK         0.0814 
    114 H114      -48.5654  -29.9330   14.0755 H         1 UNK         0.0814 
    115 H115      -48.9722  -28.9438   12.6819 H         1 UNK         0.0814 
    116 H116      -50.5379  -27.0856   13.1920 H         1 UNK         0.3091 
    117 H117      -52.5994  -25.5717   13.0362 H         1 UNK         0.0702 
    118 H118      -53.6967  -23.8854   14.5053 H         1 UNK         0.0785 
    119 H119      -53.3318  -24.8593   15.9301 H         1 UNK         0.0785 
    120 H120      -54.4358  -25.4655   14.7079 H         1 UNK         0.0785 
    121 H121      -50.7836  -24.3690   13.3277 H         1 UNK         0.2998 
    122 H122      -48.9669  -23.0379   15.9389 H         1 UNK         0.0697 
    123 H123      -47.9127  -25.4738   14.4034 H         1 UNK         0.0825 
    124 H124      -47.8692  -25.2632   16.1476 H         1 UNK         0.0825 
    125 H125      -46.9164  -24.2064   15.1179 H         1 UNK         0.0825 
    126 H126      -48.3227  -23.3601   13.1573 H         1 UNK         0.3029 
    127 H127      -50.4131  -20.6891   11.9885 H         1 UNK         0.0897 
    128 H128      -48.2334  -20.0316   10.9917 H         1 UNK         0.0792 
    129 H129      -48.2579  -19.6646   12.7096 H         1 UNK         0.0792 
    130 H130      -47.3732  -21.0674   12.1280 H         1 UNK         0.0792 
    131 H131      -48.7702  -22.4437   10.5155 H         1 UNK         0.3086 
    132 H132      -51.2152  -25.0297   10.0154 H         1 UNK         0.0583 
    133 H133      -51.6563  -23.1831    8.3968 H         1 UNK         0.1020 
    134 H134      -49.9537  -22.8690    8.2435 H         1 UNK         0.1020 
    135 H135      -52.9791  -24.6656    6.8783 H         1 UNK         0.0694 
    136 H136      -52.3768  -26.0795    6.0420 H         1 UNK         0.0694 
    137 H137      -48.4777  -24.8828    9.2389 H         1 UNK         0.2989 
    138 H138      -47.1697  -26.2972   12.2507 H         1 UNK         0.1055 
    139 H139      -47.8529  -28.2875   10.8054 H         1 UNK         0.0806 
    140 H140      -46.1317  -27.9527   10.8369 H         1 UNK         0.0806 
    141 H141      -47.0910  -27.4909    9.4412 H         1 UNK         0.0806 
    142 H142      -46.1089  -25.3522    9.7016 H         1 UNK         0.3061 
    143 H143      -45.4361  -22.0543   10.8292 H         1 UNK         0.0734 
    144 H144      -43.0989  -22.6642   10.2578 H         1 UNK         0.0832 
    145 H145      -43.5462  -23.3621   11.8048 H         1 UNK         0.0832 
    146 H146      -43.4882  -24.3814   10.3740 H         1 UNK         0.0832 
    147 H147      -44.7748  -23.4869    8.4302 H         1 UNK         0.3156 
    148 H148      -47.8321  -22.8819    6.7085 H         1 UNK         0.0589 
    149 H149      -45.0487  -21.6673    6.2888 H         1 UNK         0.0808 
    150 H150      -46.3307  -21.7872    5.0824 H         1 UNK         0.0808 
    151 H151      -46.5361  -20.7503    6.4827 H         1 UNK         0.0808 
    152 H152      -45.5687  -24.0952    5.6678 H         1 UNK         0.3098 
    153 H153      -45.8520  -26.3963    5.1584 H         1 UNK         0.0720 
    154 H154      -44.0508  -27.6901    6.3341 H         1 UNK         0.0791 
    155 H155      -44.5600  -27.0193    7.8825 H         1 UNK         0.0791 
    156 H156      -43.8746  -25.9724    6.6462 H         1 UNK         0.0791 
    157 H157      -46.3631  -28.5083    7.0385 H         1 UNK         0.3028 
@<TRIPOS>BOND
     1    1    2 1    
     2    1   82 1    
     3    1   83 1    
     4    1   84 1    
     5    2    3 2    
     6    2    4 am   BACKBONE|DICT|INTERRES
     7    4    5 1    
     8    4   85 1    
     9    5    6 1    
    10    5   80 1    
    11    5   86 1    
    12    6    7 1    
    13    6   87 1    
    14    6   88 1    
    15    7    8 1    
    16    8    9 1    
    17    8   89 1    
    18    8   90 1    
    19    9   10 ar   
    20    9   14 ar   
    21   10   11 ar   
    22   10   91 1    
    23   11   12 ar   
    24   11   58 1    
    25   12   13 ar   
    26   12   92 1    
    27   13   14 ar   
    28   13   15 1    
    29   14   93 1    
    30   15   16 1    
    31   15   94 1    
    32   15   95 1    
    33   16   17 1    
    34   17   18 1    
    35   17   96 1    
    36   17   97 1    
    37   18   19 1    
    38   18   22 1    
    39   18   98 1    
    40   19   20 am   BACKBONE|DICT|INTERRES
    41   19   21 2    
    42   20   99 1    
    43   20  100 1    
    44   22   23 am   BACKBONE|DICT|INTERRES
    45   22  101 1    
    46   23   24 2    
    47   23   25 1    
    48   25   26 1    
    49   25   27 1    
    50   25  102 1    
    51   26  103 1    
    52   26  104 1    
    53   26  105 1    
    54   27   28 am   BACKBONE|DICT|INTERRES
    55   27  106 1    
    56   28   29 2    
    57   28   30 1    
    58   30   31 1    
    59   30   32 1    
    60   30  107 1    
    61   31  108 1    
    62   31  109 1    
    63   31  110 1    
    64   32   33 am   BACKBONE|DICT|INTERRES
    65   32  111 1    
    66   33   34 2    
    67   33   35 1    
    68   35   36 1    
    69   35   37 1    
    70   35  112 1    
    71   36  113 1    
    72   36  114 1    
    73   36  115 1    
    74   37   38 am   BACKBONE|DICT|INTERRES
    75   37  116 1    
    76   38   39 2    
    77   38   40 1    
    78   40   41 1    
    79   40   42 1    
    80   40  117 1    
    81   41  118 1    
    82   41  119 1    
    83   41  120 1    
    84   42   43 am   BACKBONE|DICT|INTERRES
    85   42  121 1    
    86   43   44 2    
    87   43   45 1    
    88   45   46 1    
    89   45   47 1    
    90   45  122 1    
    91   46  123 1    
    92   46  124 1    
    93   46  125 1    
    94   47   48 am   BACKBONE|DICT|INTERRES
    95   47  126 1    
    96   48   49 2    
    97   48   50 1    
    98   50   51 1    
    99   50   52 1    
   100   50  127 1    
   101   51  128 1    
   102   51  129 1    
   103   51  130 1    
   104   52   53 am   BACKBONE|DICT|INTERRES
   105   52  131 1    
   106   53   54 2    
   107   53   55 1    
   108   55   56 1    
   109   55   59 1    
   110   55  132 1    
   111   56   57 1    
   112   56  133 1    
   113   56  134 1    
   114   57   58 1    
   115   58  135 1    
   116   58  136 1    
   117   59   60 am   BACKBONE|DICT|INTERRES
   118   59  137 1    
   119   60   61 2    
   120   60   62 1    
   121   62   63 1    
   122   62   64 1    
   123   62  138 1    
   124   63  139 1    
   125   63  140 1    
   126   63  141 1    
   127   64   65 am   BACKBONE|DICT|INTERRES
   128   64  142 1    
   129   65   66 2    
   130   65   67 1    
   131   67   68 1    
   132   67   69 1    
   133   67  143 1    
   134   68  144 1    
   135   68  145 1    
   136   68  146 1    
   137   69   70 am   BACKBONE|DICT|INTERRES
   138   69  147 1    
   139   70   71 2    
   140   70   72 1    
   141   72   73 1    
   142   72   74 1    
   143   72  148 1    
   144   73  149 1    
   145   73  150 1    
   146   73  151 1    
   147   74   75 am   BACKBONE|DICT|INTERRES
   148   74  152 1    
   149   75   76 2    
   150   75   77 1    
   151   77   78 1    
   152   77   79 1    
   153   77  153 1    
   154   78  154 1    
   155   78  155 1    
   156   78  156 1    
   157   79   80 am   BACKBONE|DICT|INTERRES
   158   79  157 1    
   159   80   81 2    
@<TRIPOS>SUBSTRUCTURE
     1 UNK         1 GROUP             0       ****    0 ROOT    
