@<TRIPOS>MOLECULE
3R207
157   159    1
SMALL
USER_CHARGES


@<TRIPOS>ATOM
      1 CA        -48.6763  -29.2107    4.1612 C.3       0 UNK        -0.1975 
      2 C         -49.5532  -28.1920    4.8726 C.2       0 UNK         0.4852 
      3 O         -49.2835  -27.8591    6.0276 O.2       0 UNK        -0.5216 
      4 N         -50.6041  -27.7024    4.1974 N.am      1 UNK        -0.4461 
      5 CA        -51.5522  -26.6934    4.6903 C.3       1 UNK         0.0864 
      6 C6        -52.4727  -27.2230    5.8298 C.3       14 UNK        -0.0898 
      7 S7        -53.6039  -28.5488    5.2866 S.3       14 UNK        -0.2598 
      8 C8        -52.7450  -30.0779    5.7914 C.3       14 UNK         0.0286 
      9 C9        -52.4235  -30.1269    7.2801 C.ar      14 UNK        -0.0844 
     10 C10       -51.0940  -30.0960    7.7086 C.ar      14 UNK        -0.0881 
     11 C11       -50.7702  -30.1390    9.0666 C.ar      14 UNK        -0.0643 
     12 C12       -51.8052  -30.2501   10.0051 C.ar      14 UNK        -0.0930 
     13 C13       -53.1415  -30.2842    9.5922 C.ar      14 UNK        -0.0827 
     14 C14       -53.4449  -30.2178    8.2288 C.ar      14 UNK        -0.1249 
     15 C15       -54.2592  -30.3695   10.6196 C.3       14 UNK         0.0141 
     16 S16       -55.0952  -31.9828   10.5721 S.3       14 UNK        -0.2313 
     17 C17       -56.1253  -31.9252   12.0764 C.3       14 UNK        -0.0915 
     18 CA        -57.3196  -30.9325   11.9673 C.3       13 UNK         0.0968 
     19 C         -58.5910  -31.4681   12.6917 C.2       13 UNK         0.5732 
     20 N         -59.1373  -30.7804   13.6883 N.am      13 UNK        -0.7310 
     21 O         -59.1034  -32.5249   12.3304 O.2       13 UNK        -0.5035 
     22 N         -56.9208  -29.5818   12.3989 N.am      13 UNK        -0.4233 
     23 C         -57.4235  -28.4378   11.9168 C.2       13 UNK         0.4989 
     24 O         -58.2424  -28.3864   10.9984 O.2       13 UNK        -0.4996 
     25 CA        -56.9589  -27.1227   12.5745 C.3       12 UNK         0.0216 
     26 CB        -58.1198  -26.4663   13.3417 C.3       12 UNK        -0.1964 
     27 N         -55.8214  -27.2819   13.4881 N.am      12 UNK        -0.4276 
     28 C         -54.5428  -27.3887   13.1069 C.2       12 UNK         0.5020 
     29 O         -54.1702  -27.3436   11.9342 O.2       12 UNK        -0.5489 
     30 CA        -53.5098  -27.5560   14.2326 C.3       11 UNK         0.0294 
     31 CB        -52.3852  -28.5346   13.8501 C.3       11 UNK        -0.2019 
     32 N         -52.9211  -26.2651   14.5759 N.am      11 UNK        -0.4493 
     33 C         -53.5190  -25.3189   15.3119 C.2       11 UNK         0.4932 
     34 O         -54.6555  -25.4312   15.7764 O.2       11 UNK        -0.5029 
     35 CA        -52.6813  -24.0561   15.5939 C.3       10 UNK         0.0280 
     36 CB        -53.3259  -23.1120   16.6304 C.3       10 UNK        -0.1976 
     37 N         -51.3021  -24.3908   15.9668 N.am      10 UNK        -0.4242 
     38 C         -50.8909  -25.1284   17.0112 C.2       10 UNK         0.5072 
     39 O         -51.6366  -25.5459   17.8985 O.2       10 UNK        -0.5224 
     40 CA        -49.3963  -25.4998   17.0702 C.3       9 UNK         0.0343 
     41 CB        -49.2069  -26.9759   16.6828 C.3       9 UNK        -0.2003 
     42 N         -48.5447  -24.6700   16.2134 N.am      9 UNK        -0.4272 
     43 C         -48.2454  -23.3857   16.4546 C.2       9 UNK         0.4988 
     44 O         -48.5983  -22.7777   17.4657 O.2       9 UNK        -0.5108 
     45 CA        -47.4410  -22.6451   15.3734 C.3       8 UNK         0.0248 
     46 CB        -45.9370  -22.9112   15.5456 C.3       8 UNK        -0.2001 
     47 N         -47.8573  -22.9861   14.0080 N.am      8 UNK        -0.4140 
     48 C         -49.0692  -22.7231   13.4933 C.2       8 UNK         0.5028 
     49 O         -49.9623  -22.1415   14.1091 O.2       8 UNK        -0.5428 
     50 CA        -49.3579  -23.2342   12.0718 C.3       7 UNK         0.0264 
     51 CB        -48.6775  -22.3513   11.0133 C.3       7 UNK        -0.1988 
     52 N         -48.9543  -24.6280   11.8882 N.am      7 UNK        -0.4454 
     53 C         -49.4893  -25.6722   12.5368 C.2       7 UNK         0.5027 
     54 O         -50.4401  -25.5810   13.3146 O.2       7 UNK        -0.5083 
     55 CA        -48.8237  -27.0445   12.3270 C.3       6 UNK         0.0844 
     56 C56       -49.4220  -27.7980   11.1155 C.3       14 UNK        -0.0967 
     57 S57       -48.9358  -29.5556   11.1622 S.3       14 UNK        -0.2604 
     58 C58       -49.2911  -30.0949    9.4561 C.3       14 UNK         0.0134 
     59 N         -47.3657  -26.9296   12.2387 N.am      6 UNK        -0.4116 
     60 C         -46.5609  -26.6035   13.2575 C.2       5 UNK         0.5034 
     61 O         -46.9562  -26.3573   14.3968 O.2       5 UNK        -0.5045 
     62 CA        -45.0616  -26.4982   12.9354 C.3       5 UNK         0.0224 
     63 CB        -44.4266  -27.8937   12.8227 C.3       5 UNK        -0.1978 
     64 N         -44.7954  -25.7321   11.7136 N.am      5 UNK        -0.4737 
     65 C         -45.0588  -24.4254   11.5802 C.2       4 UNK         0.5027 
     66 O         -45.5549  -23.7337   12.4677 O.2       4 UNK        -0.5211 
     67 CA        -44.7495  -23.7822   10.2190 C.3       4 UNK         0.0297 
     68 CB        -43.2485  -23.4719   10.1016 C.3       4 UNK        -0.1993 
     69 N         -45.1899  -24.5400    9.0403 N.am      4 UNK        -0.4486 
     70 C         -46.4103  -25.0575    8.8438 C.2       3 UNK         0.4961 
     71 O         -47.2752  -25.1588    9.7163 O.2       3 UNK        -0.5105 
     72 CA        -46.7248  -25.5488    7.4210 C.3       3 UNK         0.0299 
     73 CB        -46.4734  -27.0608    7.3164 C.3       3 UNK        -0.1972 
     74 N         -48.1165  -25.2473    7.0640 N.am      3 UNK        -0.4305 
     75 C         -48.6150  -24.0020    6.9720 C.2       2 UNK         0.5006 
     76 O         -47.9085  -22.9914    6.9712 O.2       2 UNK        -0.5106 
     77 CA        -50.1497  -23.8452    6.9278 C.3       2 UNK         0.0296 
     78 CB        -50.6061  -22.5067    6.3061 C.3       2 UNK        -0.2002 
     79 N         -50.8492  -24.9834    6.3243 N.am      2 UNK        -0.4032 
     80 C         -50.7941  -25.3924    5.0476 C.2       1 UNK         0.5000 
     81 O         -50.1621  -24.8104    4.1625 O.2       1 UNK        -0.5238 
     82 H82       -47.6576  -28.8330    4.0788 H         1 UNK         0.0889 
     83 H83       -49.0397  -29.4328    3.1581 H         1 UNK         0.0889 
     84 H84       -48.6500  -30.1414    4.7272 H         1 UNK         0.0889 
     85 H85       -50.7554  -27.9981    3.2433 H         1 UNK         0.3028 
     86 H86       -52.1915  -26.4332    3.8450 H         1 UNK         0.0864 
     87 H87       -53.1182  -26.4221    6.1951 H         1 UNK         0.0720 
     88 H88       -51.8905  -27.5561    6.6891 H         1 UNK         0.0720 
     89 H89       -51.8394  -30.1888    5.1942 H         1 UNK         0.0814 
     90 H90       -53.3761  -30.9310    5.5390 H         1 UNK         0.0814 
     91 H91       -50.2991  -30.0361    6.9798 H         1 UNK         0.1469 
     92 H92       -51.5783  -30.3056   11.0601 H         1 UNK         0.1381 
     93 H93       -54.4770  -30.2405    7.9058 H         1 UNK         0.1206 
     94 H94       -54.9821  -29.5785   10.4184 H         1 UNK         0.0813 
     95 H95       -53.8733  -30.1921   11.6232 H         1 UNK         0.0813 
     96 H96       -55.4982  -31.7014   12.9411 H         1 UNK         0.0638 
     97 H97       -56.4716  -32.9492   12.2292 H         1 UNK         0.0638 
     98 H98       -57.6129  -30.8800   10.9170 H         1 UNK         0.0568 
     99 H99       -59.9636  -31.1416   14.1385 H         1 UNK         0.3450 
    100 H100      -58.7377  -29.9085   13.9928 H         1 UNK         0.3450 
    101 H101      -56.2743  -29.5333   13.1708 H         1 UNK         0.2987 
    102 H102      -56.6633  -26.4488   11.7674 H         1 UNK         0.0766 
    103 H103      -57.8263  -25.5000   13.7529 H         1 UNK         0.0798 
    104 H104      -58.4665  -27.0906   14.1660 H         1 UNK         0.0798 
    105 H105      -58.9735  -26.2894   12.6858 H         1 UNK         0.0798 
    106 H106      -56.0251  -27.2522   14.4785 H         1 UNK         0.3198 
    107 H107      -54.0097  -27.9585   15.1166 H         1 UNK         0.0843 
    108 H108      -51.8517  -28.2093   12.9578 H         1 UNK         0.0831 
    109 H109      -52.7839  -29.5291   13.6500 H         1 UNK         0.0831 
    110 H110      -51.6563  -28.6355   14.6545 H         1 UNK         0.0831 
    111 H111      -52.0063  -26.0590   14.1772 H         1 UNK         0.3133 
    112 H112      -52.6158  -23.5144   14.6491 H         1 UNK         0.0566 
    113 H113      -52.7121  -22.2261   16.7933 H         1 UNK         0.0814 
    114 H114      -54.3043  -22.7706   16.2903 H         1 UNK         0.0814 
    115 H115      -53.4708  -23.6023   17.5934 H         1 UNK         0.0814 
    116 H116      -50.6012  -24.1153   15.2903 H         1 UNK         0.3091 
    117 H117      -49.0679  -25.3723   18.1038 H         1 UNK         0.0702 
    118 H118      -48.1655  -27.2824   16.7831 H         1 UNK         0.0785 
    119 H119      -49.5137  -27.1624   15.6530 H         1 UNK         0.0785 
    120 H120      -49.8000  -27.6297   17.3236 H         1 UNK         0.0785 
    121 H121      -48.1440  -25.1222   15.3964 H         1 UNK         0.2998 
    122 H122      -47.6129  -21.5756   15.5112 H         1 UNK         0.0697 
    123 H123      -45.6901  -23.9590   15.3700 H         1 UNK         0.0825 
    124 H124      -45.6072  -22.6611   16.5548 H         1 UNK         0.0825 
    125 H125      -45.3472  -22.3092   14.8542 H         1 UNK         0.0825 
    126 H126      -47.1535  -23.4257   13.4177 H         1 UNK         0.3029 
    127 H127      -50.4374  -23.1805   11.9144 H         1 UNK         0.0897 
    128 H128      -48.9341  -22.6730   10.0037 H         1 UNK         0.0792 
    129 H129      -47.5914  -22.3759   11.1029 H         1 UNK         0.0792 
    130 H130      -48.9906  -21.3112   11.1126 H         1 UNK         0.0792 
    131 H131      -48.2091  -24.8052   11.2146 H         1 UNK         0.3086 
    132 H132      -49.0487  -27.6272   13.2233 H         1 UNK         0.0583 
    133 H133      -50.5122  -27.7469   11.1137 H         1 UNK         0.1020 
    134 H134      -49.0947  -27.3467   10.1764 H         1 UNK         0.1020 
    135 H135      -48.7480  -29.4419    8.7706 H         1 UNK         0.0694 
    136 H136      -48.8755  -31.0943    9.3225 H         1 UNK         0.0694 
    137 H137      -46.9603  -27.0511   11.3224 H         1 UNK         0.2989 
    138 H138      -44.5871  -25.9746   13.7688 H         1 UNK         0.1055 
    139 H139      -44.6044  -28.4762   13.7280 H         1 UNK         0.0806 
    140 H140      -43.3466  -27.8280   12.6897 H         1 UNK         0.0806 
    141 H141      -44.8345  -28.4612   11.9853 H         1 UNK         0.0806 
    142 H142      -44.3998  -26.2271   10.9273 H         1 UNK         0.3061 
    143 H143      -45.2870  -22.8322   10.1915 H         1 UNK         0.0734 
    144 H144      -43.0324  -22.8788    9.2128 H         1 UNK         0.0832 
    145 H145      -42.8998  -22.8979   10.9616 H         1 UNK         0.0832 
    146 H146      -42.6491  -24.3818   10.0530 H         1 UNK         0.0832 
    147 H147      -44.5520  -24.5388    8.2571 H         1 UNK         0.3156 
    148 H148      -46.0733  -25.0340    6.7120 H         1 UNK         0.0589 
    149 H149      -47.1425  -27.6261    7.9666 H         1 UNK         0.0808 
    150 H150      -46.6185  -27.4157    6.2963 H         1 UNK         0.0808 
    151 H151      -45.4508  -27.3116    7.6013 H         1 UNK         0.0808 
    152 H152      -48.7435  -26.0415    6.9971 H         1 UNK         0.3098 
    153 H153      -50.4635  -23.8330    7.9728 H         1 UNK         0.0720 
    154 H154      -51.6926  -22.4198    6.3025 H         1 UNK         0.0791 
    155 H155      -50.2559  -22.3946    5.2797 H         1 UNK         0.0791 
    156 H156      -50.2180  -21.6599    6.8735 H         1 UNK         0.0791 
    157 H157      -51.3764  -25.5541    6.9701 H         1 UNK         0.3028 
@<TRIPOS>BOND
     1    1    2 1    
     2    1   82 1    
     3    1   83 1    
     4    1   84 1    
     5    2    3 2    
     6    2    4 am   BACKBONE|DICT|INTERRES
     7    4    5 1    
     8    4   85 1    
     9    5    6 1    
    10    5   80 1    
    11    5   86 1    
    12    6    7 1    
    13    6   87 1    
    14    6   88 1    
    15    7    8 1    
    16    8    9 1    
    17    8   89 1    
    18    8   90 1    
    19    9   10 ar   
    20    9   14 ar   
    21   10   11 ar   
    22   10   91 1    
    23   11   12 ar   
    24   11   58 1    
    25   12   13 ar   
    26   12   92 1    
    27   13   14 ar   
    28   13   15 1    
    29   14   93 1    
    30   15   16 1    
    31   15   94 1    
    32   15   95 1    
    33   16   17 1    
    34   17   18 1    
    35   17   96 1    
    36   17   97 1    
    37   18   19 1    
    38   18   22 1    
    39   18   98 1    
    40   19   20 am   BACKBONE|DICT|INTERRES
    41   19   21 2    
    42   20   99 1    
    43   20  100 1    
    44   22   23 am   BACKBONE|DICT|INTERRES
    45   22  101 1    
    46   23   24 2    
    47   23   25 1    
    48   25   26 1    
    49   25   27 1    
    50   25  102 1    
    51   26  103 1    
    52   26  104 1    
    53   26  105 1    
    54   27   28 am   BACKBONE|DICT|INTERRES
    55   27  106 1    
    56   28   29 2    
    57   28   30 1    
    58   30   31 1    
    59   30   32 1    
    60   30  107 1    
    61   31  108 1    
    62   31  109 1    
    63   31  110 1    
    64   32   33 am   BACKBONE|DICT|INTERRES
    65   32  111 1    
    66   33   34 2    
    67   33   35 1    
    68   35   36 1    
    69   35   37 1    
    70   35  112 1    
    71   36  113 1    
    72   36  114 1    
    73   36  115 1    
    74   37   38 am   BACKBONE|DICT|INTERRES
    75   37  116 1    
    76   38   39 2    
    77   38   40 1    
    78   40   41 1    
    79   40   42 1    
    80   40  117 1    
    81   41  118 1    
    82   41  119 1    
    83   41  120 1    
    84   42   43 am   BACKBONE|DICT|INTERRES
    85   42  121 1    
    86   43   44 2    
    87   43   45 1    
    88   45   46 1    
    89   45   47 1    
    90   45  122 1    
    91   46  123 1    
    92   46  124 1    
    93   46  125 1    
    94   47   48 am   BACKBONE|DICT|INTERRES
    95   47  126 1    
    96   48   49 2    
    97   48   50 1    
    98   50   51 1    
    99   50   52 1    
   100   50  127 1    
   101   51  128 1    
   102   51  129 1    
   103   51  130 1    
   104   52   53 am   BACKBONE|DICT|INTERRES
   105   52  131 1    
   106   53   54 2    
   107   53   55 1    
   108   55   56 1    
   109   55   59 1    
   110   55  132 1    
   111   56   57 1    
   112   56  133 1    
   113   56  134 1    
   114   57   58 1    
   115   58  135 1    
   116   58  136 1    
   117   59   60 am   BACKBONE|DICT|INTERRES
   118   59  137 1    
   119   60   61 2    
   120   60   62 1    
   121   62   63 1    
   122   62   64 1    
   123   62  138 1    
   124   63  139 1    
   125   63  140 1    
   126   63  141 1    
   127   64   65 am   BACKBONE|DICT|INTERRES
   128   64  142 1    
   129   65   66 2    
   130   65   67 1    
   131   67   68 1    
   132   67   69 1    
   133   67  143 1    
   134   68  144 1    
   135   68  145 1    
   136   68  146 1    
   137   69   70 am   BACKBONE|DICT|INTERRES
   138   69  147 1    
   139   70   71 2    
   140   70   72 1    
   141   72   73 1    
   142   72   74 1    
   143   72  148 1    
   144   73  149 1    
   145   73  150 1    
   146   73  151 1    
   147   74   75 am   BACKBONE|DICT|INTERRES
   148   74  152 1    
   149   75   76 2    
   150   75   77 1    
   151   77   78 1    
   152   77   79 1    
   153   77  153 1    
   154   78  154 1    
   155   78  155 1    
   156   78  156 1    
   157   79   80 am   BACKBONE|DICT|INTERRES
   158   79  157 1    
   159   80   81 2    
@<TRIPOS>SUBSTRUCTURE
     1 UNK         1 GROUP             0       ****    0 ROOT    
