@<TRIPOS>MOLECULE
3R207
157   159    1
SMALL
USER_CHARGES


@<TRIPOS>ATOM
      1 CA        -48.8245  -26.5207    5.3445 C.3       0 UNK        -0.1975 
      2 C         -47.9733  -27.7366    4.9992 C.2       0 UNK         0.4852 
      3 O         -47.2537  -27.7047    4.0030 O.2       0 UNK        -0.5216 
      4 N         -48.0159  -28.8244    5.7774 N.am      1 UNK        -0.4461 
      5 CA        -48.7681  -28.9983    7.0260 C.3       1 UNK         0.0864 
      6 C6        -49.2006  -30.4737    7.2089 C.3       14 UNK        -0.0898 
      7 S7        -50.4299  -30.9569    5.9510 S.3       14 UNK        -0.2598 
      8 C8        -51.9700  -30.9993    6.9247 C.3       14 UNK         0.0286 
      9 C9        -52.2691  -29.6727    7.6126 C.ar      14 UNK        -0.0844 
     10 C10       -52.6070  -28.5442    6.8600 C.ar      14 UNK        -0.0881 
     11 C11       -52.9083  -27.3329    7.4909 C.ar      14 UNK        -0.0643 
     12 C12       -52.8736  -27.2573    8.8874 C.ar      14 UNK        -0.0930 
     13 C13       -52.5331  -28.3779    9.6502 C.ar      14 UNK        -0.0827 
     14 C14       -52.2294  -29.5808    9.0067 C.ar      14 UNK        -0.1249 
     15 C15       -52.4883  -28.3018   11.1687 C.3       14 UNK         0.0141 
     16 S16       -54.0977  -28.6937   11.9182 S.3       14 UNK        -0.2313 
     17 C17       -54.8770  -27.0473   12.0214 C.3       14 UNK        -0.0915 
     18 CA        -54.9866  -26.5237   13.4859 C.3       13 UNK         0.0968 
     19 C         -55.4839  -25.0477   13.5645 C.2       13 UNK         0.5732 
     20 N         -56.0979  -24.6214   14.6624 N.am      13 UNK        -0.7310 
     21 O         -55.2923  -24.2650   12.6374 O.2       13 UNK        -0.5035 
     22 N         -55.7071  -27.4448   14.3868 N.am      13 UNK        -0.4233 
     23 C         -56.9935  -27.8125   14.2747 C.2       13 UNK         0.4989 
     24 O         -57.7425  -27.4127   13.3815 O.2       13 UNK        -0.4996 
     25 CA        -57.5619  -28.7527   15.3606 C.3       12 UNK         0.0216 
     26 CB        -58.6974  -29.6577   14.8335 C.3       12 UNK        -0.1964 
     27 N         -56.5410  -29.5366   16.0682 N.am      12 UNK        -0.4276 
     28 C         -55.7426  -30.4883   15.5632 C.2       12 UNK         0.5020 
     29 O         -55.7940  -30.9077   14.4060 O.2       12 UNK        -0.5489 
     30 CA        -54.6725  -31.0391   16.5232 C.3       11 UNK         0.0294 
     31 CB        -54.6031  -32.5753   16.4636 C.3       11 UNK        -0.2019 
     32 N         -53.3426  -30.4854   16.2489 N.am      11 UNK        -0.4493 
     33 C         -53.0153  -29.1865   16.2685 C.2       11 UNK         0.4932 
     34 O         -53.8142  -28.2732   16.4959 O.2       11 UNK        -0.5029 
     35 CA        -51.5478  -28.8529   15.9824 C.3       10 UNK         0.0280 
     36 CB        -51.2658  -28.8395   14.4709 C.3       10 UNK        -0.1976 
     37 N         -51.2525  -27.5436   16.5512 N.am      10 UNK        -0.4242 
     38 C         -50.0443  -27.0557   16.8433 C.2       10 UNK         0.5072 
     39 O         -48.9951  -27.6770   16.6621 O.2       10 UNK        -0.5224 
     40 CA        -50.0099  -25.6254   17.4209 C.3       9 UNK         0.0343 
     41 CB        -48.5868  -25.1706   17.7968 C.3       9 UNK        -0.2003 
     42 N         -50.5841  -24.6498   16.4912 N.am      9 UNK        -0.4272 
     43 C         -51.8913  -24.4603   16.2629 C.2       9 UNK         0.4988 
     44 O         -52.7793  -25.0747   16.8545 O.2       9 UNK        -0.5108 
     45 CA        -52.2844  -23.4194   15.2002 C.3       8 UNK         0.0248 
     46 CB        -52.7768  -22.1266   15.8704 C.3       8 UNK        -0.2001 
     47 N         -51.2149  -23.0958   14.2511 N.am      8 UNK        -0.4140 
     48 C         -50.7647  -23.9229   13.2980 C.2       8 UNK         0.5028 
     49 O         -51.1671  -25.0776   13.1376 O.2       8 UNK        -0.5428 
     50 CA        -49.6465  -23.3634   12.3997 C.3       7 UNK         0.0264 
     51 CB        -48.2659  -23.6919   12.9894 C.3       7 UNK        -0.1988 
     52 N         -49.7184  -23.8712   11.0281 N.am      7 UNK        -0.4454 
     53 C         -50.7386  -23.6469   10.1867 C.2       7 UNK         0.5027 
     54 O         -51.6970  -22.9190   10.4551 O.2       7 UNK        -0.5083 
     55 CA        -50.6441  -24.3314    8.8065 C.3       6 UNK         0.0844 
     56 C56       -51.8685  -24.0178    7.9003 C.3       14 UNK        -0.0967 
     57 S57       -51.8939  -25.0032    6.3667 S.3       14 UNK        -0.2604 
     58 C58       -53.3019  -26.1207    6.6590 C.3       14 UNK         0.0134 
     59 N         -49.3393  -24.0548    8.1918 N.am      6 UNK        -0.4116 
     60 C         -48.8941  -22.8666    7.7570 C.2       5 UNK         0.5034 
     61 O         -49.5855  -21.8488    7.7091 O.2       5 UNK        -0.5045 
     62 CA        -47.4230  -22.7697    7.3211 C.3       5 UNK         0.0224 
     63 CB        -46.6606  -21.7681    8.2083 C.3       5 UNK        -0.1978 
     64 N         -46.7123  -24.0524    7.3594 N.am      5 UNK        -0.4737 
     65 C         -45.8888  -24.4962    6.3976 C.2       4 UNK         0.5027 
     66 O         -45.7581  -23.9368    5.3082 O.2       4 UNK        -0.5211 
     67 CA        -45.0665  -25.7713    6.6950 C.3       4 UNK         0.0297 
     68 CB        -43.6735  -25.7451    6.0312 C.3       4 UNK        -0.1993 
     69 N         -44.9649  -26.0862    8.1260 N.am      4 UNK        -0.4486 
     70 C         -44.4125  -25.3308    9.0910 C.2       3 UNK         0.4961 
     71 O         -43.7626  -24.3088    8.8684 O.2       3 UNK        -0.5105 
     72 CA        -44.6587  -25.7575   10.5554 C.3       3 UNK         0.0299 
     73 CB        -44.8592  -24.5342   11.4739 C.3       3 UNK        -0.1972 
     74 N         -45.7620  -26.7141   10.7308 N.am      3 UNK        -0.4305 
     75 C         -47.0521  -26.5432   10.4071 C.2       2 UNK         0.5006 
     76 O         -47.5267  -25.5104    9.9249 O.2       2 UNK        -0.5106 
     77 CA        -47.9584  -27.7683   10.5929 C.3       2 UNK         0.0296 
     78 CB        -49.0410  -27.4886   11.6437 C.3       2 UNK        -0.2002 
     79 N         -48.5840  -28.1915    9.3348 N.am      2 UNK        -0.4032 
     80 C         -47.9159  -28.5344    8.2223 C.2       1 UNK         0.5000 
     81 O         -46.6843  -28.5122    8.1291 O.2       1 UNK        -0.5238 
     82 H82       -48.7284  -26.2454    6.3929 H         1 UNK         0.0889 
     83 H83       -49.8715  -26.7296    5.1284 H         1 UNK         0.0889 
     84 H84       -48.5246  -25.6584    4.7492 H         1 UNK         0.0889 
     85 H85       -47.4173  -29.6015    5.5386 H         1 UNK         0.3028 
     86 H86       -49.6691  -28.3829    7.0025 H         1 UNK         0.0864 
     87 H87       -48.3414  -31.1425    7.1283 H         1 UNK         0.0720 
     88 H88       -49.6208  -30.6478    8.2011 H         1 UNK         0.0720 
     89 H89       -51.9056  -31.8088    7.6535 H         1 UNK         0.0814 
     90 H90       -52.7989  -31.2532    6.2626 H         1 UNK         0.0814 
     91 H91       -52.6389  -28.6130    5.7810 H         1 UNK         0.1469 
     92 H92       -53.1185  -26.3284    9.3814 H         1 UNK         0.1381 
     93 H93       -51.9754  -30.4518    9.5958 H         1 UNK         0.1206 
     94 H94       -52.1423  -27.3219   11.5019 H         1 UNK         0.0813 
     95 H95       -51.7648  -29.0254   11.5432 H         1 UNK         0.0813 
     96 H96       -55.8607  -27.1050   11.5544 H         1 UNK         0.0638 
     97 H97       -54.3026  -26.3487   11.4126 H         1 UNK         0.0638 
     98 H98       -53.9701  -26.4802   13.8794 H         1 UNK         0.0568 
     99 H99       -56.4143  -23.6662   14.7099 H         1 UNK         0.3450 
    100 H100      -56.2421  -25.2414   15.4426 H         1 UNK         0.3450 
    101 H101      -55.1619  -27.8025   15.1654 H         1 UNK         0.2987 
    102 H102      -57.9995  -28.0943   16.1123 H         1 UNK         0.0766 
    103 H103      -59.5334  -29.0627   14.4637 H         1 UNK         0.0798 
    104 H104      -59.0867  -30.3057   15.6186 H         1 UNK         0.0798 
    105 H105      -58.3628  -30.2899   14.0106 H         1 UNK         0.0798 
    106 H106      -56.3678  -29.2472   17.0219 H         1 UNK         0.3198 
    107 H107      -54.9421  -30.7598   17.5440 H         1 UNK         0.0843 
    108 H108      -54.2798  -32.9288   15.4835 H         1 UNK         0.0831 
    109 H109      -55.5811  -33.0166   16.6610 H         1 UNK         0.0831 
    110 H110      -53.9138  -32.9727   17.2088 H         1 UNK         0.0831 
    111 H111      -52.6229  -31.1554   16.0186 H         1 UNK         0.3133 
    112 H112      -50.9215  -29.6037   16.4685 H         1 UNK         0.0566 
    113 H113      -50.2035  -28.7031   14.2700 H         1 UNK         0.0814 
    114 H114      -51.8035  -28.0292   13.9775 H         1 UNK         0.0814 
    115 H115      -51.5683  -29.7753   13.9995 H         1 UNK         0.0814 
    116 H116      -52.0716  -26.9668   16.7353 H         1 UNK         0.3091 
    117 H117      -50.6079  -25.6322   18.3348 H         1 UNK         0.0702 
    118 H118      -48.5942  -24.1812   18.2545 H         1 UNK         0.0785 
    119 H119      -47.9306  -25.1336   16.9261 H         1 UNK         0.0785 
    120 H120      -48.1356  -25.8547   18.5169 H         1 UNK         0.0785 
    121 H121      -49.9284  -24.1203   15.9371 H         1 UNK         0.2998 
    122 H122      -53.1132  -23.8412   14.6312 H         1 UNK         0.0697 
    123 H123      -51.9869  -21.6419   16.4456 H         1 UNK         0.0825 
    124 H124      -53.5998  -22.3328   16.5565 H         1 UNK         0.0825 
    125 H125      -53.1457  -21.4126   15.1337 H         1 UNK         0.0825 
    126 H126      -50.8216  -22.1676   14.3168 H         1 UNK         0.3029 
    127 H127      -49.7532  -22.2774   12.3513 H         1 UNK         0.0897 
    128 H128      -48.0721  -24.7648   12.9959 H         1 UNK         0.0792 
    129 H129      -48.1794  -23.3381   14.0174 H         1 UNK         0.0792 
    130 H130      -47.4736  -23.2090   12.4191 H         1 UNK         0.0792 
    131 H131      -48.9543  -24.4645   10.7190 H         1 UNK         0.3086 
    132 H132      -50.6533  -25.4029    9.0108 H         1 UNK         0.0583 
    133 H133      -52.7985  -24.1872    8.4446 H         1 UNK         0.1020 
    134 H134      -51.8916  -22.9622    7.6275 H         1 UNK         0.1020 
    135 H135      -54.1226  -25.5826    7.1353 H         1 UNK         0.0694 
    136 H136      -53.6853  -26.4464    5.6908 H         1 UNK         0.0694 
    137 H137      -48.6655  -24.8033    8.2682 H         1 UNK         0.2989 
    138 H138      -47.4417  -22.3808    6.3005 H         1 UNK         0.1055 
    139 H139      -46.6319  -22.0953    9.2486 H         1 UNK         0.0806 
    140 H140      -47.1286  -20.7830    8.1867 H         1 UNK         0.0806 
    141 H141      -45.6317  -21.6434    7.8699 H         1 UNK         0.0806 
    142 H142      -46.7420  -24.5599    8.2375 H         1 UNK         0.3061 
    143 H143      -45.6199  -26.5976    6.2501 H         1 UNK         0.0734 
    144 H144      -43.0823  -24.8902    6.3602 H         1 UNK         0.0832 
    145 H145      -43.1099  -26.6508    6.2547 H         1 UNK         0.0832 
    146 H146      -43.7597  -25.6795    4.9459 H         1 UNK         0.0832 
    147 H147      -45.4659  -26.9255    8.4056 H         1 UNK         0.3156 
    148 H148      -43.7542  -26.2741   10.8792 H         1 UNK         0.0589 
    149 H149      -45.0946  -24.8323   12.4955 H         1 UNK         0.0808 
    150 H150      -43.9565  -23.9237   11.5152 H         1 UNK         0.0808 
    151 H151      -45.6638  -23.8935   11.1134 H         1 UNK         0.0808 
    152 H152      -45.4848  -27.6193   11.0862 H         1 UNK         0.3098 
    153 H153      -47.3521  -28.6030   10.9510 H         1 UNK         0.0720 
    154 H154      -48.6054  -27.1231   12.5745 H         1 UNK         0.0791 
    155 H155      -49.5855  -28.3985   11.8881 H         1 UNK         0.0791 
    156 H156      -49.7576  -26.7409   11.3040 H         1 UNK         0.0791 
    157 H157      -49.5928  -28.2369    9.3294 H         1 UNK         0.3028 
@<TRIPOS>BOND
     1    1    2 1    
     2    1   82 1    
     3    1   83 1    
     4    1   84 1    
     5    2    3 2    
     6    2    4 am   BACKBONE|DICT|INTERRES
     7    4    5 1    
     8    4   85 1    
     9    5    6 1    
    10    5   80 1    
    11    5   86 1    
    12    6    7 1    
    13    6   87 1    
    14    6   88 1    
    15    7    8 1    
    16    8    9 1    
    17    8   89 1    
    18    8   90 1    
    19    9   10 ar   
    20    9   14 ar   
    21   10   11 ar   
    22   10   91 1    
    23   11   12 ar   
    24   11   58 1    
    25   12   13 ar   
    26   12   92 1    
    27   13   14 ar   
    28   13   15 1    
    29   14   93 1    
    30   15   16 1    
    31   15   94 1    
    32   15   95 1    
    33   16   17 1    
    34   17   18 1    
    35   17   96 1    
    36   17   97 1    
    37   18   19 1    
    38   18   22 1    
    39   18   98 1    
    40   19   20 am   BACKBONE|DICT|INTERRES
    41   19   21 2    
    42   20   99 1    
    43   20  100 1    
    44   22   23 am   BACKBONE|DICT|INTERRES
    45   22  101 1    
    46   23   24 2    
    47   23   25 1    
    48   25   26 1    
    49   25   27 1    
    50   25  102 1    
    51   26  103 1    
    52   26  104 1    
    53   26  105 1    
    54   27   28 am   BACKBONE|DICT|INTERRES
    55   27  106 1    
    56   28   29 2    
    57   28   30 1    
    58   30   31 1    
    59   30   32 1    
    60   30  107 1    
    61   31  108 1    
    62   31  109 1    
    63   31  110 1    
    64   32   33 am   BACKBONE|DICT|INTERRES
    65   32  111 1    
    66   33   34 2    
    67   33   35 1    
    68   35   36 1    
    69   35   37 1    
    70   35  112 1    
    71   36  113 1    
    72   36  114 1    
    73   36  115 1    
    74   37   38 am   BACKBONE|DICT|INTERRES
    75   37  116 1    
    76   38   39 2    
    77   38   40 1    
    78   40   41 1    
    79   40   42 1    
    80   40  117 1    
    81   41  118 1    
    82   41  119 1    
    83   41  120 1    
    84   42   43 am   BACKBONE|DICT|INTERRES
    85   42  121 1    
    86   43   44 2    
    87   43   45 1    
    88   45   46 1    
    89   45   47 1    
    90   45  122 1    
    91   46  123 1    
    92   46  124 1    
    93   46  125 1    
    94   47   48 am   BACKBONE|DICT|INTERRES
    95   47  126 1    
    96   48   49 2    
    97   48   50 1    
    98   50   51 1    
    99   50   52 1    
   100   50  127 1    
   101   51  128 1    
   102   51  129 1    
   103   51  130 1    
   104   52   53 am   BACKBONE|DICT|INTERRES
   105   52  131 1    
   106   53   54 2    
   107   53   55 1    
   108   55   56 1    
   109   55   59 1    
   110   55  132 1    
   111   56   57 1    
   112   56  133 1    
   113   56  134 1    
   114   57   58 1    
   115   58  135 1    
   116   58  136 1    
   117   59   60 am   BACKBONE|DICT|INTERRES
   118   59  137 1    
   119   60   61 2    
   120   60   62 1    
   121   62   63 1    
   122   62   64 1    
   123   62  138 1    
   124   63  139 1    
   125   63  140 1    
   126   63  141 1    
   127   64   65 am   BACKBONE|DICT|INTERRES
   128   64  142 1    
   129   65   66 2    
   130   65   67 1    
   131   67   68 1    
   132   67   69 1    
   133   67  143 1    
   134   68  144 1    
   135   68  145 1    
   136   68  146 1    
   137   69   70 am   BACKBONE|DICT|INTERRES
   138   69  147 1    
   139   70   71 2    
   140   70   72 1    
   141   72   73 1    
   142   72   74 1    
   143   72  148 1    
   144   73  149 1    
   145   73  150 1    
   146   73  151 1    
   147   74   75 am   BACKBONE|DICT|INTERRES
   148   74  152 1    
   149   75   76 2    
   150   75   77 1    
   151   77   78 1    
   152   77   79 1    
   153   77  153 1    
   154   78  154 1    
   155   78  155 1    
   156   78  156 1    
   157   79   80 am   BACKBONE|DICT|INTERRES
   158   79  157 1    
   159   80   81 2    
@<TRIPOS>SUBSTRUCTURE
     1 UNK         1 GROUP             0       ****    0 ROOT    
