@<TRIPOS>MOLECULE
3R207
157   159    1
SMALL
USER_CHARGES


@<TRIPOS>ATOM
      1 CA        -47.4250  -27.9094   10.7312 C.3       0 UNK        -0.1975 
      2 C         -47.6438  -27.8346    9.2275 C.2       0 UNK         0.4852 
      3 O         -47.1282  -26.9241    8.5798 O.2       0 UNK        -0.5216 
      4 N         -48.3713  -28.8062    8.6555 N.am      1 UNK        -0.4461 
      5 CA        -48.7455  -28.8891    7.2297 C.3       1 UNK         0.0864 
      6 C6        -49.7973  -27.8185    6.8143 C.3       14 UNK        -0.0898 
      7 S7        -51.2516  -27.7787    7.9166 S.3       14 UNK        -0.2598 
      8 C8        -52.3037  -26.5140    7.1198 C.3       14 UNK         0.0286 
      9 C9        -53.2767  -25.8204    8.0780 C.ar      14 UNK        -0.0844 
     10 C10       -53.5886  -24.4704    7.8826 C.ar      14 UNK        -0.0881 
     11 C11       -54.4478  -23.7984    8.7593 C.ar      14 UNK        -0.0643 
     12 C12       -55.0167  -24.4946    9.8298 C.ar      14 UNK        -0.0930 
     13 C13       -54.7366  -25.8493   10.0328 C.ar      14 UNK        -0.0827 
     14 C14       -53.8721  -26.5027    9.1465 C.ar      14 UNK        -0.1249 
     15 C15       -55.3333  -26.5633   11.2458 C.3       14 UNK         0.0141 
     16 S16       -56.0291  -28.2103   10.8882 S.3       14 UNK        -0.2313 
     17 C17       -54.5772  -29.2959   11.1130 C.3       14 UNK        -0.0915 
     18 CA        -54.7876  -30.3694   12.2145 C.3       13 UNK         0.0968 
     19 C         -53.6849  -31.4699   12.1819 C.2       13 UNK         0.5732 
     20 N         -53.1587  -31.9353   13.3091 N.am      13 UNK        -0.7310 
     21 O         -53.3078  -31.9350   11.1089 O.2       13 UNK        -0.5035 
     22 N         -54.9526  -29.7636   13.5466 N.am      13 UNK        -0.4233 
     23 C         -55.9017  -30.1095   14.4259 C.2       13 UNK         0.4989 
     24 O         -56.8095  -30.9050   14.1748 O.2       13 UNK        -0.4996 
     25 CA        -55.8136  -29.4713   15.8292 C.3       12 UNK         0.0216 
     26 CB        -56.7053  -30.1836   16.8684 C.3       12 UNK        -0.1964 
     27 N         -54.4416  -29.3492   16.3398 N.am      12 UNK        -0.4276 
     28 C         -53.5279  -30.3252   16.4768 C.2       12 UNK         0.5020 
     29 O         -53.7434  -31.5012   16.1812 O.2       12 UNK        -0.5489 
     30 CA        -52.1252  -29.9340   16.9836 C.3       11 UNK         0.0294 
     31 CB        -51.0305  -30.5069   16.0646 C.3       11 UNK        -0.2019 
     32 N         -51.9575  -28.4824   17.0514 N.am      11 UNK        -0.4493 
     33 C         -52.0196  -27.7382   18.1641 C.2       11 UNK         0.4932 
     34 O         -52.1364  -28.2052   19.2968 O.2       11 UNK        -0.5029 
     35 CA        -51.9749  -26.2077   17.9816 C.3       10 UNK         0.0280 
     36 CB        -50.5560  -25.6776   18.2400 C.3       10 UNK        -0.1976 
     37 N         -52.4269  -25.7716   16.6547 N.am      10 UNK        -0.4242 
     38 C         -53.6855  -25.9080   16.2039 C.2       10 UNK         0.5072 
     39 O         -54.6073  -26.3476   16.8907 O.2       10 UNK        -0.5224 
     40 CA        -53.9548  -25.5950   14.7215 C.3       9 UNK         0.0343 
     41 CB        -54.5017  -24.1703   14.5551 C.3       9 UNK        -0.2003 
     42 N         -52.7737  -25.7820   13.8735 N.am      9 UNK        -0.4272 
     43 C         -52.1720  -26.9664   13.6725 C.2       9 UNK         0.4988 
     44 O         -52.6324  -28.0273   14.0965 O.2       9 UNK        -0.5108 
     45 CA        -50.8357  -26.9967   12.9053 C.3       8 UNK         0.0248 
     46 CB        -51.0594  -27.5962   11.5115 C.3       8 UNK        -0.2001 
     47 N         -50.1777  -25.6945   12.7642 N.am      8 UNK        -0.4140 
     48 C         -49.7697  -24.9063   13.7735 C.2       8 UNK         0.5028 
     49 O         -49.8450  -25.2265   14.9601 O.2       8 UNK        -0.5428 
     50 CA        -49.2794  -23.4901   13.4035 C.3       7 UNK         0.0264 
     51 CB        -47.7534  -23.4855   13.2221 C.3       7 UNK        -0.1988 
     52 N         -49.9084  -22.9668   12.1854 N.am      7 UNK        -0.4454 
     53 C         -51.2319  -22.8575   11.9893 C.2       7 UNK         0.5027 
     54 O         -52.0538  -22.9639   12.8988 O.2       7 UNK        -0.5083 
     55 CA        -51.7438  -22.7217   10.5398 C.3       6 UNK         0.0844 
     56 C56       -52.6826  -21.5003   10.3616 C.3       14 UNK        -0.0967 
     57 S57       -53.2549  -21.2735    8.6377 S.3       14 UNK        -0.2604 
     58 C58       -54.7503  -22.3167    8.5655 C.3       14 UNK         0.0134 
     59 N         -50.7100  -22.7996    9.5016 N.am      6 UNK        -0.4116 
     60 C         -49.9594  -23.8705    9.2151 C.2       5 UNK         0.5034 
     61 O         -49.9155  -24.8827    9.9173 O.2       5 UNK        -0.5045 
     62 CA        -49.1233  -23.8112    7.9274 C.3       5 UNK         0.0224 
     63 CB        -49.2333  -22.4863    7.1364 C.3       5 UNK        -0.1978 
     64 N         -47.7251  -24.1577    8.1785 N.am      5 UNK        -0.4737 
     65 C         -46.8236  -23.4943    8.9166 C.2       4 UNK         0.5027 
     66 O         -47.0711  -22.4654    9.5464 O.2       4 UNK        -0.5211 
     67 CA        -45.3916  -24.0655    8.9323 C.3       4 UNK         0.0297 
     68 CB        -45.1028  -24.8047   10.2481 C.3       4 UNK        -0.1993 
     69 N         -45.1507  -24.9567    7.7860 N.am      4 UNK        -0.4486 
     70 C         -44.7398  -24.5183    6.5871 C.2       3 UNK         0.4961 
     71 O         -44.3841  -23.3547    6.3909 O.2       3 UNK        -0.5105 
     72 CA        -44.7657  -25.4789    5.3783 C.3       3 UNK         0.0299 
     73 CB        -43.4479  -25.4201    4.5755 C.3       3 UNK        -0.1972 
     74 N         -45.1547  -26.8721    5.6367 N.am      3 UNK        -0.4305 
     75 C         -44.4755  -27.8201    6.2959 C.2       2 UNK         0.5006 
     76 O         -43.4526  -27.6046    6.9477 O.2       2 UNK        -0.5106 
     77 CA        -45.0402  -29.2555    6.1866 C.3       2 UNK         0.0296 
     78 CB        -44.1116  -30.3061    6.8246 C.3       2 UNK        -0.2002 
     79 N         -46.3677  -29.3722    6.7913 N.am      2 UNK        -0.4032 
     80 C         -47.5128  -28.8869    6.2873 C.2       1 UNK         0.5000 
     81 O         -47.5934  -28.4021    5.1554 O.2       1 UNK        -0.5238 
     82 H82       -47.7769  -26.9928   11.2042 H         1 UNK         0.0889 
     83 H83       -46.3637  -28.0214   10.9499 H         1 UNK         0.0889 
     84 H84       -47.9542  -28.7493   11.1805 H         1 UNK         0.0889 
     85 H85       -48.7601  -29.5341    9.2384 H         1 UNK         0.3028 
     86 H86       -49.2088  -29.8680    7.0982 H         1 UNK         0.0864 
     87 H87       -50.1496  -28.0028    5.7977 H         1 UNK         0.0720 
     88 H88       -49.3414  -26.8286    6.8094 H         1 UNK         0.0720 
     89 H89       -51.6575  -25.7689    6.6541 H         1 UNK         0.0814 
     90 H90       -52.8704  -26.9812    6.3138 H         1 UNK         0.0814 
     91 H91       -53.1447  -23.9279    7.0591 H         1 UNK         0.1469 
     92 H92       -55.6709  -23.9744   10.5160 H         1 UNK         0.1381 
     93 H93       -53.6456  -27.5467    9.2960 H         1 UNK         0.1206 
     94 H94       -56.1309  -25.9594   11.6810 H         1 UNK         0.0813 
     95 H95       -54.5704  -26.6509   12.0148 H         1 UNK         0.0813 
     96 H96       -54.3854  -29.7633   10.1456 H         1 UNK         0.0638 
     97 H97       -53.6962  -28.6989   11.3414 H         1 UNK         0.0638 
     98 H98       -55.7011  -30.9038   11.9494 H         1 UNK         0.0568 
     99 H99       -52.4552  -32.6534   13.2529 H         1 UNK         0.3450 
    100 H100      -53.4884  -31.6295   14.2181 H         1 UNK         0.3450 
    101 H101      -54.2055  -29.1398   13.8391 H         1 UNK         0.2987 
    102 H102      -56.1880  -28.4526   15.7175 H         1 UNK         0.0766 
    103 H103      -56.6527  -29.6909   17.8393 H         1 UNK         0.0798 
    104 H104      -57.7516  -30.1764   16.5604 H         1 UNK         0.0798 
    105 H105      -56.4120  -31.2252   17.0044 H         1 UNK         0.0798 
    106 H106      -54.1744  -28.4106   16.6125 H         1 UNK         0.3198 
    107 H107      -52.0061  -30.3758   17.9751 H         1 UNK         0.0843 
    108 H108      -51.0720  -31.5965   16.0356 H         1 UNK         0.0831 
    109 H109      -50.0352  -30.2330   16.4145 H         1 UNK         0.0831 
    110 H110      -51.1360  -30.1505   15.0390 H         1 UNK         0.0831 
    111 H111      -51.8892  -28.0137   16.1564 H         1 UNK         0.3133 
    112 H112      -52.6435  -25.7672   18.7241 H         1 UNK         0.0566 
    113 H113      -49.8336  -26.1001   17.5404 H         1 UNK         0.0814 
    114 H114      -50.2216  -25.9333   19.2464 H         1 UNK         0.0814 
    115 H115      -50.5136  -24.5920   18.1505 H         1 UNK         0.0814 
    116 H116      -51.7091  -25.4327   16.0218 H         1 UNK         0.3091 
    117 H117      -54.7231  -26.2921   14.3809 H         1 UNK         0.0702 
    118 H118      -55.4243  -24.0384   15.1219 H         1 UNK         0.0785 
    119 H119      -54.7273  -23.9503   13.5113 H         1 UNK         0.0785 
    120 H120      -53.7919  -23.4221   14.9101 H         1 UNK         0.0785 
    121 H121      -52.3554  -24.9392   13.4943 H         1 UNK         0.2998 
    122 H122      -50.1557  -27.6474   13.4582 H         1 UNK         0.0697 
    123 H123      -51.8099  -27.0356   10.9546 H         1 UNK         0.0825 
    124 H124      -51.3930  -28.6321   11.5775 H         1 UNK         0.0825 
    125 H125      -50.1511  -27.5900   10.9148 H         1 UNK         0.0825 
    126 H126      -50.0767  -25.3501   11.8120 H         1 UNK         0.3029 
    127 H127      -49.5389  -22.8232   14.2283 H         1 UNK         0.0897 
    128 H128      -47.3788  -22.4806   13.0264 H         1 UNK         0.0792 
    129 H129      -47.2522  -23.8488   14.1205 H         1 UNK         0.0792 
    130 H130      -47.4448  -24.1250   12.3938 H         1 UNK         0.0792 
    131 H131      -49.3087  -22.8741   11.3768 H         1 UNK         0.3086 
    132 H132      -52.3523  -23.6153   10.4029 H         1 UNK         0.0583 
    133 H133      -53.5525  -21.5875   11.0158 H         1 UNK         0.1020 
    134 H134      -52.1702  -20.5849   10.6636 H         1 UNK         0.1020 
    135 H135      -55.4664  -21.9610    9.3080 H         1 UNK         0.0694 
    136 H136      -55.2251  -22.1805    7.5930 H         1 UNK         0.0694 
    137 H137      -50.6688  -22.0089    8.8755 H         1 UNK         0.2989 
    138 H138      -49.5216  -24.5990    7.2893 H         1 UNK         0.1055 
    139 H139      -48.6407  -22.5304    6.2224 H         1 UNK         0.0806 
    140 H140      -48.8818  -21.6287    7.7113 H         1 UNK         0.0806 
    141 H141      -50.2626  -22.2881    6.8336 H         1 UNK         0.0806 
    142 H142      -47.4487  -25.0851    7.8724 H         1 UNK         0.3061 
    143 H143      -44.7050  -23.2176    8.8827 H         1 UNK         0.0734 
    144 H144      -45.1772  -24.1237   11.0968 H         1 UNK         0.0832 
    145 H145      -45.8071  -25.6145   10.4239 H         1 UNK         0.0832 
    146 H146      -44.0970  -25.2246   10.2560 H         1 UNK         0.0832 
    147 H147      -45.4807  -25.9120    7.8803 H         1 UNK         0.3156 
    148 H148      -45.5500  -25.0892    4.7278 H         1 UNK         0.0589 
    149 H149      -42.5949  -25.7436    5.1730 H         1 UNK         0.0808 
    150 H150      -43.4945  -26.0501    3.6872 H         1 UNK         0.0808 
    151 H151      -43.2371  -24.4051    4.2365 H         1 UNK         0.0808 
    152 H152      -46.0249  -27.1697    5.2029 H         1 UNK         0.3098 
    153 H153      -45.1222  -29.4897    5.1230 H         1 UNK         0.0720 
    154 H154      -44.4960  -31.3159    6.6796 H         1 UNK         0.0791 
    155 H155      -43.1178  -30.2728    6.3759 H         1 UNK         0.0791 
    156 H156      -43.9913  -30.1429    7.8964 H         1 UNK         0.0791 
    157 H157      -46.3934  -29.7150    7.7404 H         1 UNK         0.3028 
@<TRIPOS>BOND
     1    1    2 1    
     2    1   82 1    
     3    1   83 1    
     4    1   84 1    
     5    2    3 2    
     6    2    4 am   BACKBONE|DICT|INTERRES
     7    4    5 1    
     8    4   85 1    
     9    5    6 1    
    10    5   80 1    
    11    5   86 1    
    12    6    7 1    
    13    6   87 1    
    14    6   88 1    
    15    7    8 1    
    16    8    9 1    
    17    8   89 1    
    18    8   90 1    
    19    9   10 ar   
    20    9   14 ar   
    21   10   11 ar   
    22   10   91 1    
    23   11   12 ar   
    24   11   58 1    
    25   12   13 ar   
    26   12   92 1    
    27   13   14 ar   
    28   13   15 1    
    29   14   93 1    
    30   15   16 1    
    31   15   94 1    
    32   15   95 1    
    33   16   17 1    
    34   17   18 1    
    35   17   96 1    
    36   17   97 1    
    37   18   19 1    
    38   18   22 1    
    39   18   98 1    
    40   19   20 am   BACKBONE|DICT|INTERRES
    41   19   21 2    
    42   20   99 1    
    43   20  100 1    
    44   22   23 am   BACKBONE|DICT|INTERRES
    45   22  101 1    
    46   23   24 2    
    47   23   25 1    
    48   25   26 1    
    49   25   27 1    
    50   25  102 1    
    51   26  103 1    
    52   26  104 1    
    53   26  105 1    
    54   27   28 am   BACKBONE|DICT|INTERRES
    55   27  106 1    
    56   28   29 2    
    57   28   30 1    
    58   30   31 1    
    59   30   32 1    
    60   30  107 1    
    61   31  108 1    
    62   31  109 1    
    63   31  110 1    
    64   32   33 am   BACKBONE|DICT|INTERRES
    65   32  111 1    
    66   33   34 2    
    67   33   35 1    
    68   35   36 1    
    69   35   37 1    
    70   35  112 1    
    71   36  113 1    
    72   36  114 1    
    73   36  115 1    
    74   37   38 am   BACKBONE|DICT|INTERRES
    75   37  116 1    
    76   38   39 2    
    77   38   40 1    
    78   40   41 1    
    79   40   42 1    
    80   40  117 1    
    81   41  118 1    
    82   41  119 1    
    83   41  120 1    
    84   42   43 am   BACKBONE|DICT|INTERRES
    85   42  121 1    
    86   43   44 2    
    87   43   45 1    
    88   45   46 1    
    89   45   47 1    
    90   45  122 1    
    91   46  123 1    
    92   46  124 1    
    93   46  125 1    
    94   47   48 am   BACKBONE|DICT|INTERRES
    95   47  126 1    
    96   48   49 2    
    97   48   50 1    
    98   50   51 1    
    99   50   52 1    
   100   50  127 1    
   101   51  128 1    
   102   51  129 1    
   103   51  130 1    
   104   52   53 am   BACKBONE|DICT|INTERRES
   105   52  131 1    
   106   53   54 2    
   107   53   55 1    
   108   55   56 1    
   109   55   59 1    
   110   55  132 1    
   111   56   57 1    
   112   56  133 1    
   113   56  134 1    
   114   57   58 1    
   115   58  135 1    
   116   58  136 1    
   117   59   60 am   BACKBONE|DICT|INTERRES
   118   59  137 1    
   119   60   61 2    
   120   60   62 1    
   121   62   63 1    
   122   62   64 1    
   123   62  138 1    
   124   63  139 1    
   125   63  140 1    
   126   63  141 1    
   127   64   65 am   BACKBONE|DICT|INTERRES
   128   64  142 1    
   129   65   66 2    
   130   65   67 1    
   131   67   68 1    
   132   67   69 1    
   133   67  143 1    
   134   68  144 1    
   135   68  145 1    
   136   68  146 1    
   137   69   70 am   BACKBONE|DICT|INTERRES
   138   69  147 1    
   139   70   71 2    
   140   70   72 1    
   141   72   73 1    
   142   72   74 1    
   143   72  148 1    
   144   73  149 1    
   145   73  150 1    
   146   73  151 1    
   147   74   75 am   BACKBONE|DICT|INTERRES
   148   74  152 1    
   149   75   76 2    
   150   75   77 1    
   151   77   78 1    
   152   77   79 1    
   153   77  153 1    
   154   78  154 1    
   155   78  155 1    
   156   78  156 1    
   157   79   80 am   BACKBONE|DICT|INTERRES
   158   79  157 1    
   159   80   81 2    
@<TRIPOS>SUBSTRUCTURE
     1 UNK         1 GROUP             0       ****    0 ROOT    
