@<TRIPOS>MOLECULE
3R207
157   159    1
SMALL
USER_CHARGES


@<TRIPOS>ATOM
      1 CA        -46.9681  -32.1374    7.7208 C.3       0 UNK        -0.1975 
      2 C         -46.9632  -31.2374    6.4937 C.2       0 UNK         0.4852 
      3 O         -46.0422  -31.3169    5.6789 O.2       0 UNK        -0.5216 
      4 N         -47.9893  -30.3891    6.3542 N.am      1 UNK        -0.4461 
      5 CA        -48.1064  -29.3746    5.3027 C.3       1 UNK         0.0864 
      6 C6        -49.5836  -28.9368    5.1168 C.3       14 UNK        -0.0898 
      7 S7        -50.3371  -28.1179    6.5697 S.3       14 UNK        -0.2598 
      8 C8        -51.8219  -27.4272    5.7794 C.3       14 UNK         0.0286 
      9 C9        -52.7466  -26.7624    6.7868 C.ar      14 UNK        -0.0844 
     10 C10       -52.6999  -25.3796    6.9890 C.ar      14 UNK        -0.0881 
     11 C11       -53.5798  -24.7619    7.8844 C.ar      14 UNK        -0.0643 
     12 C12       -54.5253  -25.5373    8.5608 C.ar      14 UNK        -0.0930 
     13 C13       -54.5713  -26.9231    8.3792 C.ar      14 UNK        -0.0827 
     14 C14       -53.6772  -27.5299    7.4925 C.ar      14 UNK        -0.1249 
     15 C15       -55.5932  -27.7625    9.1307 C.3       14 UNK         0.0141 
     16 S16       -55.3740  -27.6178   10.9285 S.3       14 UNK        -0.2313 
     17 C17       -56.5022  -28.9228   11.5312 C.3       14 UNK        -0.0915 
     18 CA        -55.7679  -30.1530   12.1345 C.3       13 UNK         0.0968 
     19 C         -55.2152  -31.1257   11.0555 C.2       13 UNK         0.5732 
     20 N         -56.0942  -31.7548   10.2867 N.am      13 UNK        -0.7310 
     21 O         -54.0109  -31.3157   10.8975 O.2       13 UNK        -0.5035 
     22 N         -54.7544  -29.7159   13.0966 N.am      13 UNK        -0.4233 
     23 C         -54.2686  -30.4154   14.1255 C.2       13 UNK         0.4989 
     24 O         -54.6307  -31.5559   14.4176 O.2       13 UNK        -0.4996 
     25 CA        -53.2122  -29.7057   14.9948 C.3       12 UNK         0.0216 
     26 CB        -51.8037  -30.2198   14.6571 C.3       12 UNK        -0.1964 
     27 N         -53.2413  -28.2456   14.8436 N.am      12 UNK        -0.4276 
     28 C         -54.2040  -27.4487   15.3257 C.2       12 UNK         0.5020 
     29 O         -55.1271  -27.8432   16.0415 O.2       12 UNK        -0.5489 
     30 CA        -54.1069  -25.9685   14.9199 C.3       11 UNK         0.0294 
     31 CB        -55.4609  -25.2304   14.9791 C.3       11 UNK        -0.2019 
     32 N         -53.0747  -25.2725   15.6941 N.am      11 UNK        -0.4493 
     33 C         -53.0501  -25.0352   17.0158 C.2       11 UNK         0.4932 
     34 O         -53.9684  -25.3128   17.7885 O.2       11 UNK        -0.5029 
     35 CA        -51.7769  -24.3543   17.5622 C.3       10 UNK         0.0280 
     36 CB        -51.6535  -24.4447   19.0984 C.3       10 UNK        -0.1976 
     37 N         -50.5452  -24.8214   16.9147 N.am      10 UNK        -0.4242 
     38 C         -50.0775  -26.0805   16.8678 C.2       10 UNK         0.5072 
     39 O         -50.6186  -27.0307   17.4352 O.2       10 UNK        -0.5224 
     40 CA        -48.8005  -26.3304   16.0436 C.3       9 UNK         0.0343 
     41 CB        -48.8860  -27.6508   15.2580 C.3       9 UNK        -0.2003 
     42 N         -48.5448  -25.2336   15.1064 N.am      9 UNK        -0.4272 
     43 C         -47.4830  -24.4162   15.1370 C.2       9 UNK         0.4988 
     44 O         -46.5389  -24.5467   15.9170 O.2       9 UNK        -0.5108 
     45 CA        -47.4741  -23.2264   14.1537 C.3       8 UNK         0.0248 
     46 CB        -46.7069  -23.6009   12.8753 C.3       8 UNK        -0.2001 
     47 N         -48.8055  -22.7363   13.7808 N.am      8 UNK        -0.4140 
     48 C         -49.7492  -22.2970   14.6275 C.2       8 UNK         0.5028 
     49 O         -49.5788  -22.1816   15.8409 O.2       8 UNK        -0.5428 
     50 CA        -51.1492  -22.0222   14.0419 C.3       7 UNK         0.0264 
     51 CB        -51.3146  -20.5274   13.7272 C.3       7 UNK        -0.1988 
     52 N         -51.4786  -22.8080   12.8445 N.am      7 UNK        -0.4454 
     53 C         -51.4161  -24.1437   12.7353 C.2       7 UNK         0.5027 
     54 O         -51.0895  -24.8683   13.6801 O.2       7 UNK        -0.5083 
     55 CA        -51.7451  -24.7562   11.3528 C.3       6 UNK         0.0844 
     56 C56       -51.6015  -23.7507   10.1725 C.3       14 UNK        -0.0967 
     57 S57       -53.1416  -22.8246    9.8575 S.3       14 UNK        -0.2604 
     58 C58       -53.5063  -23.2575    8.1204 C.3       14 UNK         0.0134 
     59 N         -50.9427  -25.9533   11.1069 N.am      6 UNK        -0.4116 
     60 C         -51.1676  -27.1787   11.6009 C.2       5 UNK         0.5034 
     61 O         -52.0861  -27.4543   12.3745 O.2       5 UNK        -0.5045 
     62 CA        -50.2225  -28.3048   11.1415 C.3       5 UNK         0.0224 
     63 CB        -50.9859  -29.3051   10.2589 C.3       5 UNK        -0.1978 
     64 N         -49.0525  -27.8175   10.4031 N.am      5 UNK        -0.4737 
     65 C         -47.9533  -27.3057   10.9748 C.2       4 UNK         0.5027 
     66 O         -47.7798  -27.2448   12.1889 O.2       4 UNK        -0.5211 
     67 CA        -46.8788  -26.7344   10.0356 C.3       4 UNK         0.0297 
     68 CB        -45.8265  -27.8071    9.7157 C.3       4 UNK        -0.1993 
     69 N         -47.4337  -26.1834    8.7932 N.am      4 UNK        -0.4486 
     70 C         -48.2164  -25.0928    8.7422 C.2       3 UNK         0.4961 
     71 O         -48.5524  -24.4699    9.7502 O.2       3 UNK        -0.5105 
     72 CA        -48.7754  -24.6447    7.3746 C.3       3 UNK         0.0299 
     73 CB        -48.8765  -23.1102    7.2497 C.3       3 UNK        -0.1972 
     74 N         -48.0991  -25.2326    6.2137 N.am      3 UNK        -0.4305 
     75 C         -46.8250  -25.0679    5.8230 C.2       2 UNK         0.5006 
     76 O         -46.0412  -24.2761    6.3483 O.2       2 UNK        -0.5106 
     77 CA        -46.3433  -25.9784    4.6670 C.3       2 UNK         0.0296 
     78 CB        -44.8175  -26.2112    4.7006 C.3       2 UNK        -0.2002 
     79 N         -47.0553  -27.2677    4.5881 N.am      2 UNK        -0.4032 
     80 C         -47.1791  -28.1701    5.5758 C.2       1 UNK         0.5000 
     81 O         -46.6666  -28.0270    6.6883 O.2       1 UNK        -0.5238 
     82 H82       -46.9588  -33.1844    7.4192 H         1 UNK         0.0889 
     83 H83       -47.8463  -31.9715    8.3447 H         1 UNK         0.0889 
     84 H84       -46.0822  -31.9482    8.3264 H         1 UNK         0.0889 
     85 H85       -48.7037  -30.3481    7.0665 H         1 UNK         0.3028 
     86 H86       -47.7727  -29.8261    4.3657 H         1 UNK         0.0864 
     87 H87       -49.6744  -28.2756    4.2533 H         1 UNK         0.0720 
     88 H88       -50.1910  -29.8103    4.8735 H         1 UNK         0.0720 
     89 H89       -52.3587  -28.2244    5.2626 H         1 UNK         0.0814 
     90 H90       -51.5244  -26.7117    5.0112 H         1 UNK         0.0814 
     91 H91       -51.9820  -24.7826    6.4439 H         1 UNK         0.1469 
     92 H92       -55.2114  -25.0633    9.2495 H         1 UNK         0.1381 
     93 H93       -53.7100  -28.6003    7.3408 H         1 UNK         0.1206 
     94 H94       -55.5124  -28.8125    8.8448 H         1 UNK         0.0813 
     95 H95       -56.5991  -27.4390    8.8599 H         1 UNK         0.0813 
     96 H96       -57.1235  -28.4693   12.3050 H         1 UNK         0.0638 
     97 H97       -57.1967  -29.2167   10.7425 H         1 UNK         0.0638 
     98 H98       -56.5079  -30.7272   12.6951 H         1 UNK         0.0568 
     99 H99       -57.0858  -31.6191   10.4046 H         1 UNK         0.3450 
    100 H100      -55.7564  -32.3893    9.5803 H         1 UNK         0.3450 
    101 H101      -54.3441  -28.8144   12.8977 H         1 UNK         0.2987 
    102 H102      -53.4264  -29.9475   16.0379 H         1 UNK         0.0766 
    103 H103      -51.5264  -29.9905   13.6276 H         1 UNK         0.0798 
    104 H104      -51.7436  -31.3023   14.7776 H         1 UNK         0.0798 
    105 H105      -51.0558  -29.7802   15.3161 H         1 UNK         0.0798 
    106 H106      -52.5763  -27.8481   14.1835 H         1 UNK         0.3198 
    107 H107      -53.7809  -25.9434   13.8789 H         1 UNK         0.0843 
    108 H108      -55.8841  -25.2229   15.9837 H         1 UNK         0.0831 
    109 H109      -56.1896  -25.7137   14.3272 H         1 UNK         0.0831 
    110 H110      -55.3632  -24.1968   14.6477 H         1 UNK         0.0831 
    111 H111      -52.2391  -25.0460   15.1595 H         1 UNK         0.3133 
    112 H112      -51.8686  -23.2982   17.3050 H         1 UNK         0.0566 
    113 H113      -50.7574  -23.9369   19.4549 H         1 UNK         0.0814 
    114 H114      -52.5068  -23.9742   19.5883 H         1 UNK         0.0814 
    115 H115      -51.6124  -25.4792   19.4410 H         1 UNK         0.0814 
    116 H116      -50.0088  -24.0972   16.4477 H         1 UNK         0.3091 
    117 H117      -47.9844  -26.4180   16.7631 H         1 UNK         0.0702 
    118 H118      -49.0630  -28.4977   15.9217 H         1 UNK         0.0785 
    119 H119      -49.6912  -27.6292   14.5224 H         1 UNK         0.0785 
    120 H120      -47.9538  -27.8527   14.7317 H         1 UNK         0.0785 
    121 H121      -49.2862  -25.0553   14.4344 H         1 UNK         0.2998 
    122 H122      -46.9493  -22.4035   14.6432 H         1 UNK         0.0697 
    123 H123      -47.2148  -24.3922   12.3225 H         1 UNK         0.0825 
    124 H124      -45.7039  -23.9598   13.1101 H         1 UNK         0.0825 
    125 H125      -46.5964  -22.7450   12.2093 H         1 UNK         0.0825 
    126 H126      -49.0451  -22.7994   12.8023 H         1 UNK         0.3029 
    127 H127      -51.8757  -22.2909   14.8115 H         1 UNK         0.0897 
    128 H128      -50.6394  -20.2041   12.9339 H         1 UNK         0.0792 
    129 H129      -51.1009  -19.9171   14.6062 H         1 UNK         0.0792 
    130 H130      -52.3340  -20.2967   13.4168 H         1 UNK         0.0792 
    131 H131      -51.7935  -22.2864   12.0370 H         1 UNK         0.3086 
    132 H132      -52.7861  -25.0836   11.4019 H         1 UNK         0.0583 
    133 H133      -50.7725  -23.0542   10.3118 H         1 UNK         0.1020 
    134 H134      -51.3402  -24.2879    9.2613 H         1 UNK         0.1020 
    135 H135      -54.4581  -22.8063    7.8369 H         1 UNK         0.0694 
    136 H136      -52.7480  -22.8015    7.4818 H         1 UNK         0.0694 
    137 H137      -50.1085  -25.8136   10.5531 H         1 UNK         0.2989 
    138 H138      -49.8807  -28.8262   12.0384 H         1 UNK         0.1055 
    139 H139      -51.8254  -29.7390   10.8036 H         1 UNK         0.0806 
    140 H140      -50.3472  -30.1291    9.9409 H         1 UNK         0.0806 
    141 H141      -51.3946  -28.8281    9.3671 H         1 UNK         0.0806 
    142 H142      -49.1082  -27.8304    9.3942 H         1 UNK         0.3061 
    143 H143      -46.3778  -25.9198   10.5625 H         1 UNK         0.0734 
    144 H144      -45.0485  -27.4190    9.0580 H         1 UNK         0.0832 
    145 H145      -45.3384  -28.1561   10.6267 H         1 UNK         0.0832 
    146 H146      -46.2708  -28.6782    9.2324 H         1 UNK         0.0832 
    147 H147      -47.1990  -26.6808    7.9366 H         1 UNK         0.3156 
    148 H148      -49.7909  -25.0380    7.3435 H         1 UNK         0.0589 
    149 H149      -47.9022  -22.6310    7.3490 H         1 UNK         0.0808 
    150 H150      -49.2995  -22.8169    6.2890 H         1 UNK         0.0808 
    151 H151      -49.5207  -22.6932    8.0244 H         1 UNK         0.0808 
    152 H152      -48.6437  -25.9178    5.7096 H         1 UNK         0.3098 
    153 H153      -46.5758  -25.4414    3.7462 H         1 UNK         0.0720 
    154 H154      -44.4932  -26.8382    3.8701 H         1 UNK         0.0791 
    155 H155      -44.5035  -26.6935    5.6271 H         1 UNK         0.0791 
    156 H156      -44.2734  -25.2690    4.6237 H         1 UNK         0.0791 
    157 H157      -47.5186  -27.4529    3.7086 H         1 UNK         0.3028 
@<TRIPOS>BOND
     1    1    2 1    
     2    1   82 1    
     3    1   83 1    
     4    1   84 1    
     5    2    3 2    
     6    2    4 am   BACKBONE|DICT|INTERRES
     7    4    5 1    
     8    4   85 1    
     9    5    6 1    
    10    5   80 1    
    11    5   86 1    
    12    6    7 1    
    13    6   87 1    
    14    6   88 1    
    15    7    8 1    
    16    8    9 1    
    17    8   89 1    
    18    8   90 1    
    19    9   10 ar   
    20    9   14 ar   
    21   10   11 ar   
    22   10   91 1    
    23   11   12 ar   
    24   11   58 1    
    25   12   13 ar   
    26   12   92 1    
    27   13   14 ar   
    28   13   15 1    
    29   14   93 1    
    30   15   16 1    
    31   15   94 1    
    32   15   95 1    
    33   16   17 1    
    34   17   18 1    
    35   17   96 1    
    36   17   97 1    
    37   18   19 1    
    38   18   22 1    
    39   18   98 1    
    40   19   20 am   BACKBONE|DICT|INTERRES
    41   19   21 2    
    42   20   99 1    
    43   20  100 1    
    44   22   23 am   BACKBONE|DICT|INTERRES
    45   22  101 1    
    46   23   24 2    
    47   23   25 1    
    48   25   26 1    
    49   25   27 1    
    50   25  102 1    
    51   26  103 1    
    52   26  104 1    
    53   26  105 1    
    54   27   28 am   BACKBONE|DICT|INTERRES
    55   27  106 1    
    56   28   29 2    
    57   28   30 1    
    58   30   31 1    
    59   30   32 1    
    60   30  107 1    
    61   31  108 1    
    62   31  109 1    
    63   31  110 1    
    64   32   33 am   BACKBONE|DICT|INTERRES
    65   32  111 1    
    66   33   34 2    
    67   33   35 1    
    68   35   36 1    
    69   35   37 1    
    70   35  112 1    
    71   36  113 1    
    72   36  114 1    
    73   36  115 1    
    74   37   38 am   BACKBONE|DICT|INTERRES
    75   37  116 1    
    76   38   39 2    
    77   38   40 1    
    78   40   41 1    
    79   40   42 1    
    80   40  117 1    
    81   41  118 1    
    82   41  119 1    
    83   41  120 1    
    84   42   43 am   BACKBONE|DICT|INTERRES
    85   42  121 1    
    86   43   44 2    
    87   43   45 1    
    88   45   46 1    
    89   45   47 1    
    90   45  122 1    
    91   46  123 1    
    92   46  124 1    
    93   46  125 1    
    94   47   48 am   BACKBONE|DICT|INTERRES
    95   47  126 1    
    96   48   49 2    
    97   48   50 1    
    98   50   51 1    
    99   50   52 1    
   100   50  127 1    
   101   51  128 1    
   102   51  129 1    
   103   51  130 1    
   104   52   53 am   BACKBONE|DICT|INTERRES
   105   52  131 1    
   106   53   54 2    
   107   53   55 1    
   108   55   56 1    
   109   55   59 1    
   110   55  132 1    
   111   56   57 1    
   112   56  133 1    
   113   56  134 1    
   114   57   58 1    
   115   58  135 1    
   116   58  136 1    
   117   59   60 am   BACKBONE|DICT|INTERRES
   118   59  137 1    
   119   60   61 2    
   120   60   62 1    
   121   62   63 1    
   122   62   64 1    
   123   62  138 1    
   124   63  139 1    
   125   63  140 1    
   126   63  141 1    
   127   64   65 am   BACKBONE|DICT|INTERRES
   128   64  142 1    
   129   65   66 2    
   130   65   67 1    
   131   67   68 1    
   132   67   69 1    
   133   67  143 1    
   134   68  144 1    
   135   68  145 1    
   136   68  146 1    
   137   69   70 am   BACKBONE|DICT|INTERRES
   138   69  147 1    
   139   70   71 2    
   140   70   72 1    
   141   72   73 1    
   142   72   74 1    
   143   72  148 1    
   144   73  149 1    
   145   73  150 1    
   146   73  151 1    
   147   74   75 am   BACKBONE|DICT|INTERRES
   148   74  152 1    
   149   75   76 2    
   150   75   77 1    
   151   77   78 1    
   152   77   79 1    
   153   77  153 1    
   154   78  154 1    
   155   78  155 1    
   156   78  156 1    
   157   79   80 am   BACKBONE|DICT|INTERRES
   158   79  157 1    
   159   80   81 2    
@<TRIPOS>SUBSTRUCTURE
     1 UNK         1 GROUP             0       ****    0 ROOT    
