@<TRIPOS>MOLECULE
3R207
157   159    1
SMALL
USER_CHARGES


@<TRIPOS>ATOM
      1 CA        -44.6726  -29.2104    4.9718 C.3       0 UNK        -0.1975 
      2 C         -45.2187  -29.4723    6.3735 C.2       0 UNK         0.4852 
      3 O         -44.4466  -29.4492    7.3296 O.2       0 UNK        -0.5216 
      4 N         -46.5225  -29.7341    6.5556 N.am      1 UNK        -0.4461 
      5 CA        -47.5814  -29.7718    5.5374 C.3       1 UNK         0.0864 
      6 C6        -48.8566  -30.4744    6.0652 C.3       14 UNK        -0.0898 
      7 S7        -49.5775  -29.7177    7.5658 S.3       14 UNK        -0.2598 
      8 C8        -51.1667  -29.1342    6.9042 C.3       14 UNK         0.0286 
      9 C9        -52.0658  -28.5622    7.9897 C.ar      14 UNK        -0.0844 
     10 C10       -52.3740  -27.1989    8.0087 C.ar      14 UNK        -0.0881 
     11 C11       -53.2671  -26.6866    8.9558 C.ar      14 UNK        -0.0643 
     12 C12       -53.8409  -27.5454    9.8984 C.ar      14 UNK        -0.0930 
     13 C13       -53.5345  -28.9094    9.8932 C.ar      14 UNK        -0.0827 
     14 C14       -52.6421  -29.4099    8.9403 C.ar      14 UNK        -0.1249 
     15 C15       -54.1935  -29.8494   10.8907 C.3       14 UNK         0.0141 
     16 S16       -55.4287  -30.8940   10.0575 S.3       14 UNK        -0.2313 
     17 C17       -56.2951  -31.6565   11.4681 C.3       14 UNK        -0.0915 
     18 CA        -57.7521  -31.1198   11.6003 C.3       13 UNK         0.0968 
     19 C         -58.6588  -31.9209   12.5872 C.2       13 UNK         0.5732 
     20 N         -58.3590  -33.1820   12.8705 N.am      13 UNK        -0.7310 
     21 O         -59.6820  -31.4233   13.0549 O.2       13 UNK        -0.5035 
     22 N         -57.7911  -29.6632   11.8219 N.am      13 UNK        -0.4233 
     23 C         -57.4519  -29.0294   12.9518 C.2       13 UNK         0.4989 
     24 O         -57.0511  -29.5996   13.9703 O.2       13 UNK        -0.4996 
     25 CA        -57.6090  -27.4967   12.9324 C.3       12 UNK         0.0216 
     26 CB        -59.0905  -27.0951   12.8107 C.3       12 UNK        -0.1964 
     27 N         -57.0615  -26.8845   14.1442 N.am      12 UNK        -0.4276 
     28 C         -55.7620  -26.6767   14.3817 C.2       12 UNK         0.5020 
     29 O         -54.8619  -26.8690   13.5591 O.2       12 UNK        -0.5489 
     30 CA        -55.4166  -26.1931   15.7941 C.3       11 UNK         0.0294 
     31 CB        -55.4557  -27.3629   16.7970 C.3       11 UNK        -0.2019 
     32 N         -54.0868  -25.5948   15.7831 N.am      11 UNK        -0.4493 
     33 C         -53.6078  -24.7462   16.7002 C.2       11 UNK         0.4932 
     34 O         -54.2688  -24.3371   17.6568 O.2       11 UNK        -0.5029 
     35 CA        -52.1498  -24.2782   16.5168 C.3       10 UNK         0.0280 
     36 CB        -51.5384  -23.6907   17.8063 C.3       10 UNK        -0.1976 
     37 N         -51.2750  -25.3131   15.9546 N.am      10 UNK        -0.4242 
     38 C         -50.9919  -26.5193   16.4708 C.2       10 UNK         0.5072 
     39 O         -51.4414  -26.9468   17.5351 O.2       10 UNK        -0.5224 
     40 CA        -50.0319  -27.4001   15.6542 C.3       9 UNK         0.0343 
     41 CB        -50.7719  -28.0643   14.4802 C.3       9 UNK        -0.2003 
     42 N         -48.8752  -26.6539   15.1522 N.am      9 UNK        -0.4272 
     43 C         -47.9031  -26.1438   15.9236 C.2       9 UNK         0.4988 
     44 O         -47.8340  -26.3116   17.1419 O.2       9 UNK        -0.5108 
     45 CA        -46.8268  -25.2954   15.2234 C.3       8 UNK         0.0248 
     46 CB        -45.7652  -26.1919   14.5666 C.3       8 UNK        -0.2001 
     47 N         -47.3880  -24.3727   14.2327 N.am      8 UNK        -0.4140 
     48 C         -48.1730  -23.3276   14.5353 C.2       8 UNK         0.5028 
     49 O         -48.4428  -22.9831   15.6862 O.2       8 UNK        -0.5428 
     50 CA        -48.7777  -22.5375   13.3622 C.3       7 UNK         0.0264 
     51 CB        -47.7957  -21.4651   12.8647 C.3       7 UNK        -0.1988 
     52 N         -49.1894  -23.3840   12.2402 N.am      7 UNK        -0.4454 
     53 C         -50.1464  -24.3227   12.2969 C.2       7 UNK         0.5027 
     54 O         -50.8044  -24.5658   13.3083 O.2       7 UNK        -0.5083 
     55 CA        -50.3644  -25.1699   11.0244 C.3       6 UNK         0.0844 
     56 C56       -51.1427  -24.3805    9.9433 C.3       14 UNK        -0.0967 
     57 S57       -52.9257  -24.2833   10.3151 S.3       14 UNK        -0.2604 
     58 C58       -53.6513  -25.2142    8.9314 C.3       14 UNK         0.0134 
     59 N         -49.0990  -25.7047   10.5132 N.am      6 UNK        -0.4116 
     60 C         -48.2593  -26.4874   11.2074 C.2       5 UNK         0.5034 
     61 O         -48.4979  -26.9321   12.3290 O.2       5 UNK        -0.5045 
     62 CA        -46.8892  -26.7659   10.5743 C.3       5 UNK         0.0224 
     63 CB        -46.9505  -27.9808    9.6397 C.3       5 UNK        -0.1978 
     64 N         -46.3775  -25.5981    9.8533 N.am      5 UNK        -0.4737 
     65 C         -45.9214  -24.4902   10.4541 C.2       4 UNK         0.5027 
     66 O         -45.8321  -24.3652   11.6750 O.2       4 UNK        -0.5211 
     67 CA        -45.5481  -23.3099    9.5400 C.3       4 UNK         0.0297 
     68 CB        -44.1315  -23.4919    8.9728 C.3       4 UNK        -0.1993 
     69 N         -46.5000  -23.1224    8.4406 N.am      4 UNK        -0.4486 
     70 C         -47.7845  -22.7755    8.6060 C.2       3 UNK         0.4961 
     71 O         -48.2831  -22.5162    9.6998 O.2       3 UNK        -0.5105 
     72 CA        -48.6823  -22.7581    7.3547 C.3       3 UNK         0.0299 
     73 CB        -48.6893  -21.3573    6.7234 C.3       3 UNK        -0.1972 
     74 N         -48.3319  -23.7540    6.3345 N.am      3 UNK        -0.4305 
     75 C         -48.2468  -25.0772    6.5321 C.2       2 UNK         0.5006 
     76 O         -48.4324  -25.6184    7.6258 O.2       2 UNK        -0.5106 
     77 CA        -47.8572  -25.9257    5.3134 C.3       2 UNK         0.0296 
     78 CB        -46.5269  -25.4573    4.6869 C.3       2 UNK        -0.2002 
     79 N         -47.7331  -27.3233    5.7173 N.am      2 UNK        -0.4032 
     80 C         -47.8886  -28.3883    4.9222 C.2       1 UNK         0.5000 
     81 O         -48.2120  -28.3151    3.7356 O.2       1 UNK        -0.5238 
     82 H82       -45.0217  -29.9537    4.2566 H         1 UNK         0.0889 
     83 H83       -43.5835  -29.2532    4.9771 H         1 UNK         0.0889 
     84 H84       -44.9613  -28.2197    4.6231 H         1 UNK         0.0889 
     85 H85       -46.8432  -29.9222    7.4948 H         1 UNK         0.3028 
     86 H86       -47.2148  -30.3917    4.7173 H         1 UNK         0.0864 
     87 H87       -49.6084  -30.5352    5.2758 H         1 UNK         0.0720 
     88 H88       -48.6181  -31.5108    6.3096 H         1 UNK         0.0720 
     89 H89       -51.6846  -29.9641    6.4215 H         1 UNK         0.0814 
     90 H90       -50.9778  -28.3927    6.1265 H         1 UNK         0.0814 
     91 H91       -51.9388  -26.5404    7.2693 H         1 UNK         0.1469 
     92 H92       -54.5347  -27.1503   10.6288 H         1 UNK         0.1381 
     93 H93       -52.4162  -30.4676    8.9215 H         1 UNK         0.1206 
     94 H94       -53.4378  -30.4804   11.3606 H         1 UNK         0.0813 
     95 H95       -54.6702  -29.2830   11.6925 H         1 UNK         0.0813 
     96 H96       -56.2890  -32.7312   11.2835 H         1 UNK         0.0638 
     97 H97       -55.7331  -31.4994   12.3901 H         1 UNK         0.0638 
     98 H98       -58.2352  -31.2692   10.6342 H         1 UNK         0.0568 
     99 H99       -58.9627  -33.6997   13.4896 H         1 UNK         0.3450 
    100 H100      -57.5405  -33.6233   12.4838 H         1 UNK         0.3450 
    101 H101      -58.1375  -29.1197   11.0457 H         1 UNK         0.2987 
    102 H102      -57.0654  -27.1101   12.0675 H         1 UNK         0.0766 
    103 H103      -59.2088  -26.0112   12.8134 H         1 UNK         0.0798 
    104 H104      -59.6869  -27.4993   13.6297 H         1 UNK         0.0798 
    105 H105      -59.5281  -27.4594   11.8806 H         1 UNK         0.0798 
    106 H106      -57.7146  -26.7395   14.9004 H         1 UNK         0.3198 
    107 H107      -56.1455  -25.4334   16.0849 H         1 UNK         0.0843 
    108 H108      -54.7203  -28.1282   16.5454 H         1 UNK         0.0831 
    109 H109      -56.4345  -27.8438   16.8082 H         1 UNK         0.0831 
    110 H110      -55.2513  -27.0259   17.8133 H         1 UNK         0.0831 
    111 H111      -53.5205  -25.8544   14.9836 H         1 UNK         0.3133 
    112 H112      -52.1799  -23.4795   15.7746 H         1 UNK         0.0566 
    113 H113      -50.5142  -23.3560   17.6404 H         1 UNK         0.0814 
    114 H114      -52.1081  -22.8279   18.1532 H         1 UNK         0.0814 
    115 H115      -51.5256  -24.4202   18.6165 H         1 UNK         0.0814 
    116 H116      -50.9000  -25.0925   15.0321 H         1 UNK         0.3091 
    117 H117      -49.6620  -28.1895   16.3118 H         1 UNK         0.0702 
    118 H118      -51.6361  -28.6300   14.8314 H         1 UNK         0.0785 
    119 H119      -51.1337  -27.3295   13.7598 H         1 UNK         0.0785 
    120 H120      -50.1230  -28.7591   13.9467 H         1 UNK         0.0785 
    121 H121      -48.8152  -26.5319   14.1439 H         1 UNK         0.2998 
    122 H122      -46.3299  -24.6943   15.9880 H         1 UNK         0.0697 
    123 H123      -46.1968  -26.8373   13.8021 H         1 UNK         0.0825 
    124 H124      -45.2911  -26.8380   15.3066 H         1 UNK         0.0825 
    125 H125      -44.9774  -25.5997   14.1004 H         1 UNK         0.0825 
    126 H126      -47.1448  -24.5352   13.2609 H         1 UNK         0.3029 
    127 H127      -49.6717  -22.0335   13.7357 H         1 UNK         0.0897 
    128 H128      -46.8908  -21.9087   12.4480 H         1 UNK         0.0792 
    129 H129      -47.4923  -20.8050   13.6784 H         1 UNK         0.0792 
    130 H130      -48.2473  -20.8422   12.0924 H         1 UNK         0.0792 
    131 H131      -48.7314  -23.2067   11.3476 H         1 UNK         0.3086 
    132 H132      -50.9614  -26.0403   11.3069 H         1 UNK         0.0583 
    133 H133      -50.7606  -23.3650    9.8327 H         1 UNK         0.1020 
    134 H134      -51.0078  -24.8495    8.9680 H         1 UNK         0.1020 
    135 H135      -54.7375  -25.1278    8.9838 H         1 UNK         0.0694 
    136 H136      -53.3554  -24.7484    7.9900 H         1 UNK         0.0694 
    137 H137      -48.8311  -25.4403    9.5710 H         1 UNK         0.2989 
    138 H138      -46.1924  -26.9997   11.3820 H         1 UNK         0.1055 
    139 H139      -47.2974  -28.8658   10.1750 H         1 UNK         0.0806 
    140 H140      -45.9668  -28.2125    9.2329 H         1 UNK         0.0806 
    141 H141      -47.6347  -27.8174    8.8089 H         1 UNK         0.0806 
    142 H142      -46.4957  -25.5927    8.8498 H         1 UNK         0.3061 
    143 H143      -45.5577  -22.4041   10.1503 H         1 UNK         0.0734 
    144 H144      -43.8219  -22.6234    8.3913 H         1 UNK         0.0832 
    145 H145      -43.4045  -23.6166    9.7767 H         1 UNK         0.0832 
    146 H146      -44.0598  -24.3705    8.3305 H         1 UNK         0.0832 
    147 H147      -46.1689  -23.3063    7.5051 H         1 UNK         0.3156 
    148 H148      -49.6986  -22.9827    7.6816 H         1 UNK         0.0589 
    149 H149      -47.7081  -21.0838    6.3333 H         1 UNK         0.0808 
    150 H150      -49.4073  -21.2927    5.9055 H         1 UNK         0.0808 
    151 H151      -48.9704  -20.6002    7.4572 H         1 UNK         0.0808 
    152 H152      -48.1649  -23.3974    5.4043 H         1 UNK         0.3098 
    153 H153      -48.6612  -25.8324    4.5804 H         1 UNK         0.0720 
    154 H154      -46.2558  -26.0733    3.8293 H         1 UNK         0.0791 
    155 H155      -45.7055  -25.5072    5.4031 H         1 UNK         0.0791 
    156 H156      -46.5875  -24.4305    4.3257 H         1 UNK         0.0791 
    157 H157      -47.5669  -27.4650    6.7047 H         1 UNK         0.3028 
@<TRIPOS>BOND
     1    1    2 1    
     2    1   82 1    
     3    1   83 1    
     4    1   84 1    
     5    2    3 2    
     6    2    4 am   BACKBONE|DICT|INTERRES
     7    4    5 1    
     8    4   85 1    
     9    5    6 1    
    10    5   80 1    
    11    5   86 1    
    12    6    7 1    
    13    6   87 1    
    14    6   88 1    
    15    7    8 1    
    16    8    9 1    
    17    8   89 1    
    18    8   90 1    
    19    9   10 ar   
    20    9   14 ar   
    21   10   11 ar   
    22   10   91 1    
    23   11   12 ar   
    24   11   58 1    
    25   12   13 ar   
    26   12   92 1    
    27   13   14 ar   
    28   13   15 1    
    29   14   93 1    
    30   15   16 1    
    31   15   94 1    
    32   15   95 1    
    33   16   17 1    
    34   17   18 1    
    35   17   96 1    
    36   17   97 1    
    37   18   19 1    
    38   18   22 1    
    39   18   98 1    
    40   19   20 am   BACKBONE|DICT|INTERRES
    41   19   21 2    
    42   20   99 1    
    43   20  100 1    
    44   22   23 am   BACKBONE|DICT|INTERRES
    45   22  101 1    
    46   23   24 2    
    47   23   25 1    
    48   25   26 1    
    49   25   27 1    
    50   25  102 1    
    51   26  103 1    
    52   26  104 1    
    53   26  105 1    
    54   27   28 am   BACKBONE|DICT|INTERRES
    55   27  106 1    
    56   28   29 2    
    57   28   30 1    
    58   30   31 1    
    59   30   32 1    
    60   30  107 1    
    61   31  108 1    
    62   31  109 1    
    63   31  110 1    
    64   32   33 am   BACKBONE|DICT|INTERRES
    65   32  111 1    
    66   33   34 2    
    67   33   35 1    
    68   35   36 1    
    69   35   37 1    
    70   35  112 1    
    71   36  113 1    
    72   36  114 1    
    73   36  115 1    
    74   37   38 am   BACKBONE|DICT|INTERRES
    75   37  116 1    
    76   38   39 2    
    77   38   40 1    
    78   40   41 1    
    79   40   42 1    
    80   40  117 1    
    81   41  118 1    
    82   41  119 1    
    83   41  120 1    
    84   42   43 am   BACKBONE|DICT|INTERRES
    85   42  121 1    
    86   43   44 2    
    87   43   45 1    
    88   45   46 1    
    89   45   47 1    
    90   45  122 1    
    91   46  123 1    
    92   46  124 1    
    93   46  125 1    
    94   47   48 am   BACKBONE|DICT|INTERRES
    95   47  126 1    
    96   48   49 2    
    97   48   50 1    
    98   50   51 1    
    99   50   52 1    
   100   50  127 1    
   101   51  128 1    
   102   51  129 1    
   103   51  130 1    
   104   52   53 am   BACKBONE|DICT|INTERRES
   105   52  131 1    
   106   53   54 2    
   107   53   55 1    
   108   55   56 1    
   109   55   59 1    
   110   55  132 1    
   111   56   57 1    
   112   56  133 1    
   113   56  134 1    
   114   57   58 1    
   115   58  135 1    
   116   58  136 1    
   117   59   60 am   BACKBONE|DICT|INTERRES
   118   59  137 1    
   119   60   61 2    
   120   60   62 1    
   121   62   63 1    
   122   62   64 1    
   123   62  138 1    
   124   63  139 1    
   125   63  140 1    
   126   63  141 1    
   127   64   65 am   BACKBONE|DICT|INTERRES
   128   64  142 1    
   129   65   66 2    
   130   65   67 1    
   131   67   68 1    
   132   67   69 1    
   133   67  143 1    
   134   68  144 1    
   135   68  145 1    
   136   68  146 1    
   137   69   70 am   BACKBONE|DICT|INTERRES
   138   69  147 1    
   139   70   71 2    
   140   70   72 1    
   141   72   73 1    
   142   72   74 1    
   143   72  148 1    
   144   73  149 1    
   145   73  150 1    
   146   73  151 1    
   147   74   75 am   BACKBONE|DICT|INTERRES
   148   74  152 1    
   149   75   76 2    
   150   75   77 1    
   151   77   78 1    
   152   77   79 1    
   153   77  153 1    
   154   78  154 1    
   155   78  155 1    
   156   78  156 1    
   157   79   80 am   BACKBONE|DICT|INTERRES
   158   79  157 1    
   159   80   81 2    
@<TRIPOS>SUBSTRUCTURE
     1 UNK         1 GROUP             0       ****    0 ROOT    
