@<TRIPOS>MOLECULE
3R207
157   159    1
SMALL
USER_CHARGES


@<TRIPOS>ATOM
      1 CA        -44.9976  -27.2119   10.9175 C.3       0 UNK        -0.1975 
      2 C         -45.4574  -27.3868    9.4780 C.2       0 UNK         0.4852 
      3 O         -44.6578  -27.2195    8.5553 O.2       0 UNK        -0.5216 
      4 N         -46.7393  -27.7163    9.2752 N.am      1 UNK        -0.4461 
      5 CA        -47.3670  -27.8177    7.9534 C.3       1 UNK         0.0864 
      6 C6        -48.7710  -28.4578    8.0205 C.3       14 UNK        -0.0898 
      7 S7        -48.7194  -30.2652    8.2347 S.3       14 UNK        -0.2598 
      8 C8        -49.2660  -30.4577    9.9657 C.3       14 UNK         0.0286 
      9 C9        -50.7381  -30.1522   10.2676 C.ar      14 UNK        -0.0844 
     10 C10       -51.6201  -29.5721    9.3451 C.ar      14 UNK        -0.0881 
     11 C11       -52.9465  -29.2838    9.6942 C.ar      14 UNK        -0.0643 
     12 C12       -53.3944  -29.6218   10.9752 C.ar      14 UNK        -0.0930 
     13 C13       -52.5419  -30.2307   11.9042 C.ar      14 UNK        -0.0827 
     14 C14       -51.2173  -30.4779   11.5378 C.ar      14 UNK        -0.1249 
     15 C15       -53.0136  -30.7004   13.2824 C.3       14 UNK         0.0141 
     16 S16       -54.2586  -29.6452   14.0935 S.3       14 UNK        -0.2313 
     17 C17       -55.8258  -30.3338   13.4464 C.3       14 UNK        -0.0915 
     18 CA        -56.9316  -29.2600   13.2522 C.3       13 UNK         0.0968 
     19 C         -57.6599  -28.9315   14.5904 C.2       13 UNK         0.5732 
     20 N         -57.5738  -27.7215   15.1314 N.am      13 UNK        -0.7310 
     21 O         -58.3345  -29.7971   15.1433 O.2       13 UNK        -0.5035 
     22 N         -56.4125  -28.0928   12.5295 N.am      13 UNK        -0.4233 
     23 C         -57.1411  -27.1637   11.9038 C.2       13 UNK         0.4989 
     24 O         -58.3548  -27.2599   11.7151 O.2       13 UNK        -0.4996 
     25 CA        -56.3755  -25.9149   11.4141 C.3       12 UNK         0.0216 
     26 CB        -57.2757  -24.6634   11.3489 C.3       12 UNK        -0.1964 
     27 N         -55.1494  -25.6214   12.1760 N.am      12 UNK        -0.4276 
     28 C         -55.0477  -25.4047   13.4969 C.2       12 UNK         0.5020 
     29 O         -55.9940  -25.4585   14.2865 O.2       12 UNK        -0.5489 
     30 CA        -53.6521  -25.0630   14.0219 C.3       11 UNK         0.0294 
     31 CB        -53.4600  -23.5388   14.0769 C.3       11 UNK        -0.2019 
     32 N         -53.4645  -25.6210   15.3621 N.am      11 UNK        -0.4493 
     33 C         -52.6144  -26.6088   15.6621 C.2       11 UNK         0.4932 
     34 O         -51.8702  -27.1520   14.8402 O.2       11 UNK        -0.5029 
     35 CA        -52.5708  -27.0667   17.1273 C.3       10 UNK         0.0280 
     36 CB        -53.8479  -27.8277   17.5240 C.3       10 UNK        -0.1976 
     37 N         -51.4156  -27.9466   17.2736 N.am      10 UNK        -0.4242 
     38 C         -50.5083  -27.9301   18.2545 C.2       10 UNK         0.5072 
     39 O         -50.6174  -27.2619   19.2836 O.2       10 UNK        -0.5224 
     40 CA        -49.2512  -28.7999   18.0429 C.3       9 UNK         0.0343 
     41 CB        -49.4082  -30.1530   18.7556 C.3       9 UNK        -0.2003 
     42 N         -48.9324  -29.0343   16.6270 N.am      9 UNK        -0.4272 
     43 C         -48.4930  -28.0942   15.7763 C.2       9 UNK         0.4988 
     44 O         -48.2398  -26.9371   16.1139 O.2       9 UNK        -0.5108 
     45 CA        -48.3522  -28.4803   14.2959 C.3       8 UNK         0.0248 
     46 CB        -48.4451  -29.9934   14.0108 C.3       8 UNK        -0.2001 
     47 N         -49.4020  -27.7636   13.5841 N.am      8 UNK        -0.4140 
     48 C         -49.3317  -27.2423   12.3582 C.2       8 UNK         0.5028 
     49 O         -48.4001  -27.4030   11.5652 O.2       8 UNK        -0.5428 
     50 CA        -50.5049  -26.3350   11.9937 C.3       7 UNK         0.0264 
     51 CB        -50.3479  -24.9556   12.6626 C.3       7 UNK        -0.1988 
     52 N         -50.6152  -26.1713   10.5508 N.am      7 UNK        -0.4454 
     53 C         -51.7772  -25.9375    9.9319 C.2       7 UNK         0.5027 
     54 O         -52.8445  -25.7682   10.5305 O.2       7 UNK        -0.5083 
     55 CA        -51.7268  -25.8031    8.4042 C.3       6 UNK         0.0844 
     56 C56       -53.0859  -26.1210    7.7138 C.3       14 UNK        -0.0967 
     57 S57       -53.2286  -27.8739    7.2257 S.3       14 UNK        -0.2604 
     58 C58       -53.9476  -28.6642    8.7121 C.3       14 UNK         0.0134 
     59 N         -51.2157  -24.4664    8.1244 N.am      6 UNK        -0.4116 
     60 C         -50.7658  -24.0234    6.9479 C.2       5 UNK         0.5034 
     61 O         -50.7925  -24.6824    5.9084 O.2       5 UNK        -0.5045 
     62 CA        -50.1730  -22.6035    6.9218 C.3       5 UNK         0.0224 
     63 CB        -51.2434  -21.5289    7.2005 C.3       5 UNK        -0.1978 
     64 N         -48.9946  -22.4416    7.7852 N.am      5 UNK        -0.4737 
     65 C         -48.9091  -22.5121    9.1238 C.2       4 UNK         0.5027 
     66 O         -49.8817  -22.6731    9.8629 O.2       4 UNK        -0.5211 
     67 CA        -47.4954  -22.4053    9.7262 C.3       4 UNK         0.0297 
     68 CB        -47.3725  -23.0904   11.0974 C.3       4 UNK        -0.1993 
     69 N         -46.5191  -23.0007    8.8172 N.am      4 UNK        -0.4486 
     70 C         -45.3918  -22.4188    8.3886 C.2       3 UNK         0.4961 
     71 O         -44.9967  -21.3200    8.7794 O.2       3 UNK        -0.5105 
     72 CA        -44.5641  -23.1749    7.3292 C.3       3 UNK         0.0299 
     73 CB        -43.3531  -23.8570    7.9856 C.3       3 UNK        -0.1972 
     74 N         -45.3296  -24.1751    6.5778 N.am      3 UNK        -0.4305 
     75 C         -46.3755  -23.9083    5.7801 C.2       2 UNK         0.5006 
     76 O         -46.7747  -22.7695    5.5342 O.2       2 UNK        -0.5106 
     77 CA        -47.1507  -25.1087    5.2078 C.3       2 UNK         0.0296 
     78 CB        -46.6625  -25.4321    3.7868 C.3       2 UNK        -0.2002 
     79 N         -47.0973  -26.3252    6.0285 N.am      2 UNK        -0.4032 
     80 C         -47.4650  -26.4214    7.3151 C.2       1 UNK         0.5000 
     81 O         -47.8697  -25.4743    7.9944 O.2       1 UNK        -0.5238 
     82 H82       -44.0704  -27.7587   11.0861 H         1 UNK         0.0889 
     83 H83       -45.7384  -27.5786   11.6276 H         1 UNK         0.0889 
     84 H84       -44.8174  -26.1578   11.1262 H         1 UNK         0.0889 
     85 H85       -47.3671  -27.7543   10.0773 H         1 UNK         0.3028 
     86 H86       -46.7269  -28.4399    7.3238 H         1 UNK         0.0864 
     87 H87       -49.3498  -28.0048    8.8246 H         1 UNK         0.0720 
     88 H88       -49.3312  -28.2756    7.1005 H         1 UNK         0.0720 
     89 H89       -49.0606  -31.4884   10.2585 H         1 UNK         0.0814 
     90 H90       -48.6355  -29.8332   10.5975 H         1 UNK         0.0814 
     91 H91       -51.2803  -29.3499    8.3471 H         1 UNK         0.1469 
     92 H92       -54.4238  -29.4291   11.2290 H         1 UNK         0.1381 
     93 H93       -50.5521  -30.9534   12.2442 H         1 UNK         0.1206 
     94 H94       -52.1588  -30.7513   13.9585 H         1 UNK         0.0813 
     95 H95       -53.3949  -31.7190   13.2014 H         1 UNK         0.0813 
     96 H96       -55.6338  -30.8263   12.4929 H         1 UNK         0.0638 
     97 H97       -56.1580  -31.1317   14.1132 H         1 UNK         0.0638 
     98 H98       -57.6984  -29.7073   12.6171 H         1 UNK         0.0568 
     99 H99       -57.0175  -26.9847   14.7052 H         1 UNK         0.3450 
    100 H100      -58.0629  -27.5377   15.9919 H         1 UNK         0.3450 
    101 H101      -55.4304  -27.9100   12.6723 H         1 UNK         0.2987 
    102 H102      -56.0512  -26.1417   10.3975 H         1 UNK         0.0766 
    103 H103      -56.7258  -23.7986   10.9779 H         1 UNK         0.0798 
    104 H104      -58.1205  -24.8197   10.6769 H         1 UNK         0.0798 
    105 H105      -57.6815  -24.4079   12.3284 H         1 UNK         0.0798 
    106 H106      -54.2953  -25.5904   11.6157 H         1 UNK         0.3198 
    107 H107      -52.9270  -25.4816   13.3281 H         1 UNK         0.0843 
    108 H108      -54.1922  -23.0619   14.7299 H         1 UNK         0.0831 
    109 H109      -53.5680  -23.0962   13.0856 H         1 UNK         0.0831 
    110 H110      -52.4661  -23.2780   14.4408 H         1 UNK         0.0831 
    111 H111      -54.1039  -25.2853   16.0693 H         1 UNK         0.3133 
    112 H112      -52.4559  -26.1820   17.7569 H         1 UNK         0.0566 
    113 H113      -53.9876  -28.7243   16.9200 H         1 UNK         0.0814 
    114 H114      -54.7368  -27.2083   17.3983 H         1 UNK         0.0814 
    115 H115      -53.8130  -28.1347   18.5694 H         1 UNK         0.0814 
    116 H116      -51.2026  -28.4718   16.4364 H         1 UNK         0.3091 
    117 H117      -48.4092  -28.2717   18.4955 H         1 UNK         0.0702 
    118 H118      -48.4979  -30.7485   18.6829 H         1 UNK         0.0785 
    119 H119      -50.2285  -30.7379   18.3376 H         1 UNK         0.0785 
    120 H120      -49.6168  -30.0121   19.8172 H         1 UNK         0.0785 
    121 H121      -49.1027  -29.9638   16.2710 H         1 UNK         0.2998 
    122 H122      -47.3770  -28.1198   13.9615 H         1 UNK         0.0697 
    123 H123      -49.4237  -30.4011   14.2652 H         1 UNK         0.0825 
    124 H124      -47.6914  -30.5478   14.5716 H         1 UNK         0.0825 
    125 H125      -48.2659  -30.1993   12.9563 H         1 UNK         0.0825 
    126 H126      -50.2279  -27.5339   14.1371 H         1 UNK         0.3029 
    127 H127      -51.4101  -26.8309   12.3482 H         1 UNK         0.0897 
    128 H128      -51.1099  -24.2516   12.3289 H         1 UNK         0.0792 
    129 H129      -50.4249  -25.0327   13.7476 H         1 UNK         0.0792 
    130 H130      -49.3786  -24.5154   12.4420 H         1 UNK         0.0792 
    131 H131      -49.7540  -26.2891   10.0326 H         1 UNK         0.3086 
    132 H132      -50.9751  -26.5010    8.0331 H         1 UNK         0.0583 
    133 H133      -53.9512  -25.8136    8.3033 H         1 UNK         0.1020 
    134 H134      -53.1762  -25.5536    6.7872 H         1 UNK         0.1020 
    135 H135      -54.5746  -27.9400    9.2339 H         1 UNK         0.0694 
    136 H136      -54.6159  -29.4578    8.3756 H         1 UNK         0.0694 
    137 H137      -51.0642  -23.8672    8.9335 H         1 UNK         0.2989 
    138 H138      -49.8117  -22.4413    5.9045 H         1 UNK         0.1055 
    139 H139      -52.0745  -21.6192    6.4999 H         1 UNK         0.0806 
    140 H140      -50.8330  -20.5255    7.0870 H         1 UNK         0.0806 
    141 H141      -51.6592  -21.6065    8.2053 H         1 UNK         0.0806 
    142 H142      -48.1224  -22.3374    7.2794 H         1 UNK         0.3061 
    143 H143      -47.2977  -21.3392    9.8542 H         1 UNK         0.0734 
    144 H144      -48.0672  -22.6557   11.8167 H         1 UNK         0.0832 
    145 H145      -47.5815  -24.1587   11.0257 H         1 UNK         0.0832 
    146 H146      -46.3698  -22.9741   11.5085 H         1 UNK         0.0832 
    147 H147      -46.7911  -23.9042    8.4346 H         1 UNK         0.3156 
    148 H148      -44.1959  -22.4358    6.6147 H         1 UNK         0.0589 
    149 H149      -43.6596  -24.6118    8.7109 H         1 UNK         0.0808 
    150 H150      -42.7177  -24.3416    7.2441 H         1 UNK         0.0808 
    151 H151      -42.7348  -23.1302    8.5145 H         1 UNK         0.0808 
    152 H152      -45.0838  -25.1426    6.7374 H         1 UNK         0.3098 
    153 H153      -48.1984  -24.8102    5.1459 H         1 UNK         0.0720 
    154 H154      -47.2763  -26.2034    3.3212 H         1 UNK         0.0791 
    155 H155      -46.7148  -24.5507    3.1458 H         1 UNK         0.0791 
    156 H156      -45.6274  -25.7764    3.7833 H         1 UNK         0.0791 
    157 H157      -46.7732  -27.1591    5.5594 H         1 UNK         0.3028 
@<TRIPOS>BOND
     1    1    2 1    
     2    1   82 1    
     3    1   83 1    
     4    1   84 1    
     5    2    3 2    
     6    2    4 am   BACKBONE|DICT|INTERRES
     7    4    5 1    
     8    4   85 1    
     9    5    6 1    
    10    5   80 1    
    11    5   86 1    
    12    6    7 1    
    13    6   87 1    
    14    6   88 1    
    15    7    8 1    
    16    8    9 1    
    17    8   89 1    
    18    8   90 1    
    19    9   10 ar   
    20    9   14 ar   
    21   10   11 ar   
    22   10   91 1    
    23   11   12 ar   
    24   11   58 1    
    25   12   13 ar   
    26   12   92 1    
    27   13   14 ar   
    28   13   15 1    
    29   14   93 1    
    30   15   16 1    
    31   15   94 1    
    32   15   95 1    
    33   16   17 1    
    34   17   18 1    
    35   17   96 1    
    36   17   97 1    
    37   18   19 1    
    38   18   22 1    
    39   18   98 1    
    40   19   20 am   BACKBONE|DICT|INTERRES
    41   19   21 2    
    42   20   99 1    
    43   20  100 1    
    44   22   23 am   BACKBONE|DICT|INTERRES
    45   22  101 1    
    46   23   24 2    
    47   23   25 1    
    48   25   26 1    
    49   25   27 1    
    50   25  102 1    
    51   26  103 1    
    52   26  104 1    
    53   26  105 1    
    54   27   28 am   BACKBONE|DICT|INTERRES
    55   27  106 1    
    56   28   29 2    
    57   28   30 1    
    58   30   31 1    
    59   30   32 1    
    60   30  107 1    
    61   31  108 1    
    62   31  109 1    
    63   31  110 1    
    64   32   33 am   BACKBONE|DICT|INTERRES
    65   32  111 1    
    66   33   34 2    
    67   33   35 1    
    68   35   36 1    
    69   35   37 1    
    70   35  112 1    
    71   36  113 1    
    72   36  114 1    
    73   36  115 1    
    74   37   38 am   BACKBONE|DICT|INTERRES
    75   37  116 1    
    76   38   39 2    
    77   38   40 1    
    78   40   41 1    
    79   40   42 1    
    80   40  117 1    
    81   41  118 1    
    82   41  119 1    
    83   41  120 1    
    84   42   43 am   BACKBONE|DICT|INTERRES
    85   42  121 1    
    86   43   44 2    
    87   43   45 1    
    88   45   46 1    
    89   45   47 1    
    90   45  122 1    
    91   46  123 1    
    92   46  124 1    
    93   46  125 1    
    94   47   48 am   BACKBONE|DICT|INTERRES
    95   47  126 1    
    96   48   49 2    
    97   48   50 1    
    98   50   51 1    
    99   50   52 1    
   100   50  127 1    
   101   51  128 1    
   102   51  129 1    
   103   51  130 1    
   104   52   53 am   BACKBONE|DICT|INTERRES
   105   52  131 1    
   106   53   54 2    
   107   53   55 1    
   108   55   56 1    
   109   55   59 1    
   110   55  132 1    
   111   56   57 1    
   112   56  133 1    
   113   56  134 1    
   114   57   58 1    
   115   58  135 1    
   116   58  136 1    
   117   59   60 am   BACKBONE|DICT|INTERRES
   118   59  137 1    
   119   60   61 2    
   120   60   62 1    
   121   62   63 1    
   122   62   64 1    
   123   62  138 1    
   124   63  139 1    
   125   63  140 1    
   126   63  141 1    
   127   64   65 am   BACKBONE|DICT|INTERRES
   128   64  142 1    
   129   65   66 2    
   130   65   67 1    
   131   67   68 1    
   132   67   69 1    
   133   67  143 1    
   134   68  144 1    
   135   68  145 1    
   136   68  146 1    
   137   69   70 am   BACKBONE|DICT|INTERRES
   138   69  147 1    
   139   70   71 2    
   140   70   72 1    
   141   72   73 1    
   142   72   74 1    
   143   72  148 1    
   144   73  149 1    
   145   73  150 1    
   146   73  151 1    
   147   74   75 am   BACKBONE|DICT|INTERRES
   148   74  152 1    
   149   75   76 2    
   150   75   77 1    
   151   77   78 1    
   152   77   79 1    
   153   77  153 1    
   154   78  154 1    
   155   78  155 1    
   156   78  156 1    
   157   79   80 am   BACKBONE|DICT|INTERRES
   158   79  157 1    
   159   80   81 2    
@<TRIPOS>SUBSTRUCTURE
     1 UNK         1 GROUP             0       ****    0 ROOT    
