@<TRIPOS>MOLECULE
3R207
157   159    1
SMALL
USER_CHARGES


@<TRIPOS>ATOM
      1 CA        -52.6501  -27.3165    0.9603 C.3       0 UNK        -0.1975 
      2 C         -52.7271  -26.8856    2.4178 C.2       0 UNK         0.4852 
      3 O         -53.4644  -25.9531    2.7388 O.2       0 UNK        -0.5216 
      4 N         -51.9781  -27.5647    3.2977 N.am      1 UNK        -0.4461 
      5 CA        -51.8816  -27.2776    4.7330 C.3       1 UNK         0.0864 
      6 C6        -51.2182  -28.4618    5.4827 C.3       14 UNK        -0.0898 
      7 S7        -51.2775  -28.3310    7.3000 S.3       14 UNK        -0.2598 
      8 C8        -50.8320  -30.0403    7.7346 C.3       14 UNK         0.0286 
      9 C9        -50.5339  -30.2066    9.2178 C.ar      14 UNK        -0.0844 
     10 C10       -49.2340  -30.4882    9.6503 C.ar      14 UNK        -0.0881 
     11 C11       -48.9675  -30.7206   11.0035 C.ar      14 UNK        -0.0643 
     12 C12       -50.0137  -30.6574   11.9297 C.ar      14 UNK        -0.0930 
     13 C13       -51.3164  -30.3631   11.5118 C.ar      14 UNK        -0.0827 
     14 C14       -51.5669  -30.1314   10.1553 C.ar      14 UNK        -0.1249 
     15 C15       -52.4470  -30.2717   12.5269 C.3       14 UNK         0.0141 
     16 S16       -53.8455  -31.3645   12.1190 S.3       14 UNK        -0.2313 
     17 C17       -55.0854  -30.8273   13.3455 C.3       14 UNK        -0.0915 
     18 CA        -56.0933  -29.8021   12.7613 C.3       13 UNK         0.0968 
     19 C         -57.3099  -29.6207   13.7078 C.2       13 UNK         0.5732 
     20 N         -57.3526  -28.5998   14.5539 N.am      13 UNK        -0.7310 
     21 O         -58.2441  -30.4178   13.6620 O.2       13 UNK        -0.5035 
     22 N         -55.4340  -28.5298   12.4226 N.am      13 UNK        -0.4233 
     23 C         -55.4218  -27.9757   11.2025 C.2       13 UNK         0.4989 
     24 O         -56.0026  -28.4597   10.2289 O.2       13 UNK        -0.4996 
     25 CA        -54.5908  -26.6877   11.0144 C.3       12 UNK         0.0216 
     26 CB        -55.0987  -25.8098    9.8509 C.3       12 UNK        -0.1964 
     27 N         -54.4214  -25.8894   12.2332 N.am      12 UNK        -0.4276 
     28 C         -55.3701  -25.3051   12.9768 C.2       12 UNK         0.5020 
     29 O         -56.5724  -25.3357   12.7076 O.2       12 UNK        -0.5489 
     30 CA        -54.8783  -24.5966   14.2585 C.3       11 UNK         0.0294 
     31 CB        -56.0356  -24.2143   15.2047 C.3       11 UNK        -0.2019 
     32 N         -53.8551  -25.3517   14.9995 N.am      11 UNK        -0.4493 
     33 C         -53.9363  -26.6214   15.4276 C.2       11 UNK         0.4932 
     34 O         -54.8924  -27.3569   15.1790 O.2       11 UNK        -0.5029 
     35 CA        -52.7639  -27.1906   16.2496 C.3       10 UNK         0.0280 
     36 CB        -52.3758  -28.5956   15.7674 C.3       10 UNK        -0.1976 
     37 N         -51.5682  -26.3457   16.2280 N.am      10 UNK        -0.4242 
     38 C         -51.2879  -25.3952   17.1286 C.2       10 UNK         0.5072 
     39 O         -52.0253  -25.1008   18.0701 O.2       10 UNK        -0.5224 
     40 CA        -49.9655  -24.6326   16.9420 C.3       9 UNK         0.0343 
     41 CB        -48.7942  -25.4392   17.5251 C.3       9 UNK        -0.2003 
     42 N         -49.6823  -24.2883   15.5455 N.am      9 UNK        -0.4272 
     43 C         -50.4312  -23.4587   14.8026 C.2       9 UNK         0.4988 
     44 O         -51.4484  -22.8988   15.2133 O.2       9 UNK        -0.5108 
     45 CA        -49.9917  -23.2372   13.3460 C.3       8 UNK         0.0248 
     46 CB        -48.7639  -22.3150   13.2724 C.3       8 UNK        -0.2001 
     47 N         -49.7091  -24.4897   12.6463 N.am      8 UNK        -0.4140 
     48 C         -50.6076  -25.4563   12.4164 C.2       8 UNK         0.5028 
     49 O         -51.7927  -25.3843   12.7341 O.2       8 UNK        -0.5428 
     50 CA        -50.0898  -26.7431   11.7636 C.3       7 UNK         0.0264 
     51 CB        -49.9175  -26.5596   10.2485 C.3       7 UNK        -0.1988 
     52 N         -48.8335  -27.1960   12.3585 N.am      7 UNK        -0.4454 
     53 C         -48.6865  -27.5862   13.6325 C.2       7 UNK         0.5027 
     54 O         -49.6003  -27.6029   14.4573 O.2       7 UNK        -0.5083 
     55 CA        -47.2644  -27.9827   14.0732 C.3       6 UNK         0.0844 
     56 C56       -46.9048  -29.4308   13.6554 C.3       14 UNK        -0.0967 
     57 S57       -46.5481  -29.6397   11.8708 S.3       14 UNK        -0.2604 
     58 C58       -47.5585  -31.0943   11.4454 C.3       14 UNK         0.0134 
     59 N         -46.2603  -27.0098   13.6376 N.am      6 UNK        -0.4116 
     60 C         -46.2024  -25.7316   14.0355 C.2       5 UNK         0.5034 
     61 O         -46.9625  -25.2291   14.8630 O.2       5 UNK        -0.5045 
     62 CA        -45.1485  -24.8489   13.3449 C.3       5 UNK         0.0224 
     63 CB        -43.7707  -25.0322   14.0009 C.3       5 UNK        -0.1978 
     64 N         -45.0446  -25.0803   11.8974 N.am      5 UNK        -0.4737 
     65 C         -46.0622  -24.9343   11.0388 C.2       4 UNK         0.5027 
     66 O         -47.2072  -24.6415   11.3883 O.2       4 UNK        -0.5211 
     67 CA        -45.7675  -25.2029    9.5541 C.3       4 UNK         0.0297 
     68 CB        -45.8495  -26.7100    9.2593 C.3       4 UNK        -0.1993 
     69 N         -46.7347  -24.5056    8.7072 N.am      4 UNK        -0.4486 
     70 C         -46.8077  -23.1810    8.5410 C.2       3 UNK         0.4961 
     71 O         -45.9229  -22.4006    8.8987 O.2       3 UNK        -0.5105 
     72 CA        -48.0981  -22.6470    7.8824 C.3       3 UNK         0.0299 
     73 CB        -48.1362  -21.1081    7.8214 C.3       3 UNK        -0.1972 
     74 N         -48.3439  -23.1796    6.5380 N.am      3 UNK        -0.4305 
     75 C         -48.7262  -24.4287    6.2417 C.2       2 UNK         0.5006 
     76 O         -48.8392  -25.3287    7.0780 O.2       2 UNK        -0.5106 
     77 CA        -48.9940  -24.7183    4.7528 C.3       2 UNK         0.0296 
     78 CB        -47.6723  -24.9910    4.0149 C.3       2 UNK        -0.2002 
     79 N         -49.8910  -25.8596    4.5514 N.am      2 UNK        -0.4032 
     80 C         -51.1615  -25.9338    4.9776 C.2       1 UNK         0.5000 
     81 O         -51.7685  -24.9990    5.5062 O.2       1 UNK        -0.5238 
     82 H82       -53.6359  -27.6152    0.6050 H         1 UNK         0.0889 
     83 H83       -51.9699  -28.1559    0.8173 H         1 UNK         0.0889 
     84 H84       -52.3015  -26.4891    0.3428 H         1 UNK         0.0889 
     85 H85       -51.4035  -28.3250    2.9627 H         1 UNK         0.3028 
     86 H86       -52.9005  -27.1737    5.1133 H         1 UNK         0.0864 
     87 H87       -50.1779  -28.5893    5.1781 H         1 UNK         0.0720 
     88 H88       -51.7262  -29.3874    5.2057 H         1 UNK         0.0720 
     89 H89       -49.9701  -30.3468    7.1395 H         1 UNK         0.0814 
     90 H90       -51.6499  -30.7062    7.4550 H         1 UNK         0.0814 
     91 H91       -48.4292  -30.5511    8.9306 H         1 UNK         0.1469 
     92 H92       -49.8134  -30.8412   12.9759 H         1 UNK         0.1381 
     93 H93       -52.5724  -29.9077    9.8251 H         1 UNK         0.1206 
     94 H94       -52.7864  -29.2373   12.5717 H         1 UNK         0.0813 
     95 H95       -52.0892  -30.5362   13.5224 H         1 UNK         0.0813 
     96 H96       -54.5865  -30.4225   14.2270 H         1 UNK         0.0638 
     97 H97       -55.6068  -31.7263   13.6798 H         1 UNK         0.0638 
     98 H98       -56.5059  -30.2492   11.8550 H         1 UNK         0.0568 
     99 H99       -56.5460  -27.9947   14.6784 H         1 UNK         0.3450 
    100 H100      -58.1559  -28.4915   15.1512 H         1 UNK         0.3450 
    101 H101      -55.0099  -28.0334   13.1965 H         1 UNK         0.2987 
    102 H102      -53.5882  -27.0269   10.7481 H         1 UNK         0.0766 
    103 H103      -54.4766  -24.9240    9.7227 H         1 UNK         0.0798 
    104 H104      -56.1254  -25.4800   10.0124 H         1 UNK         0.0798 
    105 H105      -55.0764  -26.3564    8.9072 H         1 UNK         0.0798 
    106 H106      -53.4507  -25.7568   12.5326 H         1 UNK         0.3198 
    107 H107      -54.3975  -23.6740   13.9292 H         1 UNK         0.0843 
    108 H108      -56.5819  -25.0938   15.5476 H         1 UNK         0.0831 
    109 H109      -56.7514  -23.5604   14.7050 H         1 UNK         0.0831 
    110 H110      -55.6709  -23.6819   16.0831 H         1 UNK         0.0831 
    111 H111      -52.9995  -24.8473   15.1936 H         1 UNK         0.3133 
    112 H112      -53.1209  -27.2857   17.2769 H         1 UNK         0.0566 
    113 H113      -51.5653  -29.0117   16.3660 H         1 UNK         0.0814 
    114 H114      -53.2150  -29.2881   15.8349 H         1 UNK         0.0814 
    115 H115      -52.0435  -28.5679   14.7317 H         1 UNK         0.0814 
    116 H116      -50.8861  -26.5522   15.5017 H         1 UNK         0.3091 
    117 H117      -50.0435  -23.6981   17.5015 H         1 UNK         0.0702 
    118 H118      -47.8672  -24.8662   17.4979 H         1 UNK         0.0785 
    119 H119      -48.6298  -26.3664   16.9743 H         1 UNK         0.0785 
    120 H120      -48.9804  -25.7046   18.5667 H         1 UNK         0.0785 
    121 H121      -48.8402  -24.6896   15.1416 H         1 UNK         0.2998 
    122 H122      -50.8154  -22.7482   12.8217 H         1 UNK         0.0697 
    123 H123      -47.8919  -22.7635   13.7495 H         1 UNK         0.0825 
    124 H124      -48.9581  -21.3641   13.7703 H         1 UNK         0.0825 
    125 H125      -48.4980  -22.0929   12.2385 H         1 UNK         0.0825 
    126 H126      -48.7585  -24.6200   12.2999 H         1 UNK         0.3029 
    127 H127      -50.8339  -27.5240   11.9303 H         1 UNK         0.0897 
    128 H128      -49.2099  -25.7665   10.0072 H         1 UNK         0.0792 
    129 H129      -50.8668  -26.3004    9.7780 H         1 UNK         0.0792 
    130 H130      -49.5648  -27.4757    9.7754 H         1 UNK         0.0792 
    131 H131      -48.0206  -27.1974   11.7610 H         1 UNK         0.3086 
    132 H132      -47.2660  -27.9587   15.1653 H         1 UNK         0.0583 
    133 H133      -46.0156  -29.7481   14.2023 H         1 UNK         0.1020 
    134 H134      -47.6908  -30.1194   13.9699 H         1 UNK         0.1020 
    135 H135      -47.0576  -31.6324   10.6393 H         1 UNK         0.0694 
    136 H136      -47.5917  -31.7896   12.2855 H         1 UNK         0.0694 
    137 H137      -45.6073  -27.3278   12.9366 H         1 UNK         0.2989 
    138 H138      -45.4582  -23.8111   13.4875 H         1 UNK         0.1055 
    139 H139      -43.8237  -24.8519   15.0757 H         1 UNK         0.0806 
    140 H140      -43.0410  -24.3318   13.5939 H         1 UNK         0.0806 
    141 H141      -43.3833  -26.0418   13.8587 H         1 UNK         0.0806 
    142 H142      -44.1339  -25.3313   11.5386 H         1 UNK         0.3061 
    143 H143      -44.7654  -24.8399    9.3169 H         1 UNK         0.0734 
    144 H144      -46.8383  -27.1136    9.4825 H         1 UNK         0.0832 
    145 H145      -45.6337  -26.9205    8.2117 H         1 UNK         0.0832 
    146 H146      -45.1277  -27.2695    9.8557 H         1 UNK         0.0832 
    147 H147      -47.5117  -25.0526    8.3423 H         1 UNK         0.3156 
    148 H148      -48.9244  -22.9655    8.5221 H         1 UNK         0.0589 
    149 H149      -47.3435  -20.7089    7.1874 H         1 UNK         0.0808 
    150 H150      -49.0901  -20.7485    7.4351 H         1 UNK         0.0808 
    151 H151      -48.0095  -20.6744    8.8144 H         1 UNK         0.0808 
    152 H152      -48.2304  -22.5239    5.7781 H         1 UNK         0.3098 
    153 H153      -49.4716  -23.8408    4.3119 H         1 UNK         0.0720 
    154 H154      -47.8379  -25.1566    2.9500 H         1 UNK         0.0791 
    155 H155      -47.1609  -25.8672    4.4162 H         1 UNK         0.0791 
    156 H156      -46.9880  -24.1464    4.1050 H         1 UNK         0.0791 
    157 H157      -49.4811  -26.6800    4.1319 H         1 UNK         0.3028 
@<TRIPOS>BOND
     1    1    2 1    
     2    1   82 1    
     3    1   83 1    
     4    1   84 1    
     5    2    3 2    
     6    2    4 am   BACKBONE|DICT|INTERRES
     7    4    5 1    
     8    4   85 1    
     9    5    6 1    
    10    5   80 1    
    11    5   86 1    
    12    6    7 1    
    13    6   87 1    
    14    6   88 1    
    15    7    8 1    
    16    8    9 1    
    17    8   89 1    
    18    8   90 1    
    19    9   10 ar   
    20    9   14 ar   
    21   10   11 ar   
    22   10   91 1    
    23   11   12 ar   
    24   11   58 1    
    25   12   13 ar   
    26   12   92 1    
    27   13   14 ar   
    28   13   15 1    
    29   14   93 1    
    30   15   16 1    
    31   15   94 1    
    32   15   95 1    
    33   16   17 1    
    34   17   18 1    
    35   17   96 1    
    36   17   97 1    
    37   18   19 1    
    38   18   22 1    
    39   18   98 1    
    40   19   20 am   BACKBONE|DICT|INTERRES
    41   19   21 2    
    42   20   99 1    
    43   20  100 1    
    44   22   23 am   BACKBONE|DICT|INTERRES
    45   22  101 1    
    46   23   24 2    
    47   23   25 1    
    48   25   26 1    
    49   25   27 1    
    50   25  102 1    
    51   26  103 1    
    52   26  104 1    
    53   26  105 1    
    54   27   28 am   BACKBONE|DICT|INTERRES
    55   27  106 1    
    56   28   29 2    
    57   28   30 1    
    58   30   31 1    
    59   30   32 1    
    60   30  107 1    
    61   31  108 1    
    62   31  109 1    
    63   31  110 1    
    64   32   33 am   BACKBONE|DICT|INTERRES
    65   32  111 1    
    66   33   34 2    
    67   33   35 1    
    68   35   36 1    
    69   35   37 1    
    70   35  112 1    
    71   36  113 1    
    72   36  114 1    
    73   36  115 1    
    74   37   38 am   BACKBONE|DICT|INTERRES
    75   37  116 1    
    76   38   39 2    
    77   38   40 1    
    78   40   41 1    
    79   40   42 1    
    80   40  117 1    
    81   41  118 1    
    82   41  119 1    
    83   41  120 1    
    84   42   43 am   BACKBONE|DICT|INTERRES
    85   42  121 1    
    86   43   44 2    
    87   43   45 1    
    88   45   46 1    
    89   45   47 1    
    90   45  122 1    
    91   46  123 1    
    92   46  124 1    
    93   46  125 1    
    94   47   48 am   BACKBONE|DICT|INTERRES
    95   47  126 1    
    96   48   49 2    
    97   48   50 1    
    98   50   51 1    
    99   50   52 1    
   100   50  127 1    
   101   51  128 1    
   102   51  129 1    
   103   51  130 1    
   104   52   53 am   BACKBONE|DICT|INTERRES
   105   52  131 1    
   106   53   54 2    
   107   53   55 1    
   108   55   56 1    
   109   55   59 1    
   110   55  132 1    
   111   56   57 1    
   112   56  133 1    
   113   56  134 1    
   114   57   58 1    
   115   58  135 1    
   116   58  136 1    
   117   59   60 am   BACKBONE|DICT|INTERRES
   118   59  137 1    
   119   60   61 2    
   120   60   62 1    
   121   62   63 1    
   122   62   64 1    
   123   62  138 1    
   124   63  139 1    
   125   63  140 1    
   126   63  141 1    
   127   64   65 am   BACKBONE|DICT|INTERRES
   128   64  142 1    
   129   65   66 2    
   130   65   67 1    
   131   67   68 1    
   132   67   69 1    
   133   67  143 1    
   134   68  144 1    
   135   68  145 1    
   136   68  146 1    
   137   69   70 am   BACKBONE|DICT|INTERRES
   138   69  147 1    
   139   70   71 2    
   140   70   72 1    
   141   72   73 1    
   142   72   74 1    
   143   72  148 1    
   144   73  149 1    
   145   73  150 1    
   146   73  151 1    
   147   74   75 am   BACKBONE|DICT|INTERRES
   148   74  152 1    
   149   75   76 2    
   150   75   77 1    
   151   77   78 1    
   152   77   79 1    
   153   77  153 1    
   154   78  154 1    
   155   78  155 1    
   156   78  156 1    
   157   79   80 am   BACKBONE|DICT|INTERRES
   158   79  157 1    
   159   80   81 2    
@<TRIPOS>SUBSTRUCTURE
     1 UNK         1 GROUP             0       ****    0 ROOT    
