@<TRIPOS>MOLECULE
3R207
157   159    1
SMALL
USER_CHARGES


@<TRIPOS>ATOM
      1 CA        -44.9202  -29.8558    8.4156 C.3       0 UNK        -0.1975 
      2 C         -45.4539  -29.9879    6.9967 C.2       0 UNK         0.4852 
      3 O         -44.6813  -29.9070    6.0415 O.2       0 UNK        -0.5216 
      4 N         -46.7713  -30.1848    6.8534 N.am      1 UNK        -0.4461 
      5 CA        -47.4887  -30.2865    5.5742 C.3       1 UNK         0.0864 
      6 C6        -48.9045  -30.8946    5.7543 C.3       14 UNK        -0.0898 
      7 S7        -49.8755  -30.1162    7.0904 S.3       14 UNK        -0.2598 
      8 C8        -51.1152  -29.1774    6.1484 C.3       14 UNK         0.0286 
      9 C9        -51.9028  -28.2277    7.0421 C.ar      14 UNK        -0.0844 
     10 C10       -51.8895  -26.8533    6.7909 C.ar      14 UNK        -0.0881 
     11 C11       -52.6317  -25.9725    7.5862 C.ar      14 UNK        -0.0643 
     12 C12       -53.3897  -26.4787    8.6468 C.ar      14 UNK        -0.0930 
     13 C13       -53.4168  -27.8529    8.9050 C.ar      14 UNK        -0.0827 
     14 C14       -52.6725  -28.7208    8.1001 C.ar      14 UNK        -0.1249 
     15 C15       -54.2816  -28.4100   10.0246 C.3       14 UNK         0.0141 
     16 S16       -53.4923  -28.2153   11.6525 S.3       14 UNK        -0.2313 
     17 C17       -54.1855  -29.6560   12.5313 C.3       14 UNK        -0.0915 
     18 CA        -55.6734  -29.4803   12.9430 C.3       13 UNK         0.0968 
     19 C         -56.3029  -30.8426   13.3680 C.2       13 UNK         0.5732 
     20 N         -56.8870  -30.9920   14.5511 N.am      13 UNK        -0.7310 
     21 O         -56.2715  -31.7952   12.5921 O.2       13 UNK        -0.5035 
     22 N         -55.8379  -28.3891   13.9147 N.am      13 UNK        -0.4233 
     23 C         -56.9876  -27.7622   14.1862 C.2       13 UNK         0.4989 
     24 O         -58.0378  -27.9631   13.5723 O.2       13 UNK        -0.4996 
     25 CA        -56.9544  -26.7726   15.3706 C.3       12 UNK         0.0216 
     26 CB        -58.3437  -26.1873   15.7008 C.3       12 UNK        -0.1964 
     27 N         -56.3459  -27.3456   16.5816 N.am      12 UNK        -0.4276 
     28 C         -56.6736  -28.4887   17.2039 C.2       12 UNK         0.5020 
     29 O         -57.5696  -29.2426   16.8208 O.2       12 UNK        -0.5489 
     30 CA        -55.8241  -28.8749   18.4330 C.3       11 UNK         0.0294 
     31 CB        -56.2187  -30.2430   19.0214 C.3       11 UNK        -0.2019 
     32 N         -54.3977  -28.8977   18.1001 N.am      11 UNK        -0.4493 
     33 C         -53.6010  -27.8230   18.0687 C.2       11 UNK         0.4932 
     34 O         -53.9759  -26.6997   18.4121 O.2       11 UNK        -0.5029 
     35 CA        -52.1733  -28.0025   17.5113 C.3       10 UNK         0.0280 
     36 CB        -51.8932  -29.4006   16.9126 C.3       10 UNK        -0.1976 
     37 N         -51.8603  -26.9574   16.5302 N.am      10 UNK        -0.4242 
     38 C         -52.5472  -26.6595   15.4185 C.2       10 UNK         0.5072 
     39 O         -53.5294  -27.2968   15.0388 O.2       10 UNK        -0.5224 
     40 CA        -52.0979  -25.4394   14.5935 C.3       9 UNK         0.0343 
     41 CB        -52.7915  -24.1594   15.0958 C.3       9 UNK        -0.2003 
     42 N         -50.6467  -25.2418   14.4709 N.am      9 UNK        -0.4272 
     43 C         -49.7370  -24.9691   15.4184 C.2       9 UNK         0.4988 
     44 O         -49.9887  -24.8972   16.6222 O.2       9 UNK        -0.5108 
     45 CA        -48.2942  -24.7409   14.9397 C.3       8 UNK         0.0248 
     46 CB        -47.6113  -26.0800   14.6182 C.3       8 UNK        -0.2001 
     47 N         -48.2192  -23.8468   13.7806 N.am      8 UNK        -0.4140 
     48 C         -48.5474  -22.5455   13.8088 C.2       8 UNK         0.5028 
     49 O         -48.8835  -21.9436   14.8298 O.2       8 UNK        -0.5428 
     50 CA        -48.4981  -21.7790   12.4771 C.3       7 UNK         0.0264 
     51 CB        -47.0592  -21.3496   12.1481 C.3       7 UNK        -0.1988 
     52 N         -49.0486  -22.5424   11.3572 N.am      7 UNK        -0.4454 
     53 C         -50.3369  -22.8932   11.2189 C.2       7 UNK         0.5027 
     54 O         -51.2292  -22.5649   12.0010 O.2       7 UNK        -0.5083 
     55 CA        -50.6774  -23.7726    9.9973 C.3       6 UNK         0.0844 
     56 C56       -50.8452  -22.8775    8.7416 C.3       14 UNK        -0.0967 
     57 S57       -50.9896  -23.7717    7.1606 S.3       14 UNK        -0.2604 
     58 C58       -52.6604  -24.4855    7.2570 C.3       14 UNK         0.0134 
     59 N         -49.6996  -24.8525    9.8276 N.am      6 UNK        -0.4116 
     60 C         -49.4629  -25.8164   10.7308 C.2       5 UNK         0.5034 
     61 O         -50.0751  -25.9376   11.7910 O.2       5 UNK        -0.5045 
     62 CA        -48.2993  -26.7701   10.4361 C.3       5 UNK         0.0224 
     63 CB        -48.7606  -27.9255    9.5388 C.3       5 UNK        -0.1978 
     64 N         -47.1719  -26.0677    9.8208 N.am      5 UNK        -0.4737 
     65 C         -46.3573  -25.2379   10.4887 C.2       4 UNK         0.5027 
     66 O         -46.4479  -25.0233   11.6969 O.2       4 UNK        -0.5211 
     67 CA        -45.2918  -24.4882    9.6688 C.3       4 UNK         0.0297 
     68 CB        -44.0269  -25.3481    9.5204 C.3       4 UNK        -0.1993 
     69 N         -45.7645  -24.0811    8.3430 N.am      4 UNK        -0.4486 
     70 C         -46.7835  -23.2384    8.1242 C.2       3 UNK         0.4961 
     71 O         -47.3888  -22.6550    9.0228 O.2       3 UNK        -0.5105 
     72 CA        -47.2370  -23.0400    6.6657 C.3       3 UNK         0.0299 
     73 CB        -46.5278  -21.8219    6.0537 C.3       3 UNK        -0.1972 
     74 N         -47.0611  -24.2000    5.7789 N.am      3 UNK        -0.4305 
     75 C         -47.4672  -25.4580    6.0101 C.2       2 UNK         0.5006 
     76 O         -47.9911  -25.8266    7.0638 O.2       2 UNK        -0.5106 
     77 CA        -47.2145  -26.4840    4.8941 C.3       2 UNK         0.0296 
     78 CB        -45.8234  -26.3191    4.2403 C.3       2 UNK        -0.2002 
     79 N         -47.3462  -27.8258    5.4567 N.am      2 UNK        -0.4032 
     80 C         -47.5190  -28.9636    4.7730 C.2       1 UNK         0.5000 
     81 O         -47.6728  -29.0065    3.5506 O.2       1 UNK        -0.5238 
     82 H82       -45.7050  -29.9818    9.1613 H         1 UNK         0.0889 
     83 H83       -44.4721  -28.8728    8.5577 H         1 UNK         0.0889 
     84 H84       -44.1548  -30.6092    8.5998 H         1 UNK         0.0889 
     85 H85       -47.3602  -30.2601    7.6714 H         1 UNK         0.3028 
     86 H86       -46.9220  -30.9849    4.9543 H         1 UNK         0.0864 
     87 H87       -49.4662  -30.8772    4.8181 H         1 UNK         0.0720 
     88 H88       -48.8051  -31.9510    6.0084 H         1 UNK         0.0720 
     89 H89       -50.6140  -28.6257    5.3514 H         1 UNK         0.0814 
     90 H90       -51.8031  -29.8715    5.6637 H         1 UNK         0.0814 
     91 H91       -51.3076  -26.4625    5.9673 H         1 UNK         0.1469 
     92 H92       -53.9745  -25.8088    9.2621 H         1 UNK         0.1381 
     93 H93       -52.6936  -29.7850    8.2919 H         1 UNK         0.1206 
     94 H94       -55.2480  -27.9037   10.0342 H         1 UNK         0.0813 
     95 H95       -54.4938  -29.4633    9.8356 H         1 UNK         0.0813 
     96 H96       -53.5728  -29.8382   13.4161 H         1 UNK         0.0638 
     97 H97       -54.0492  -30.5296   11.8913 H         1 UNK         0.0638 
     98 H98       -56.2263  -29.1916   12.0478 H         1 UNK         0.0568 
     99 H99       -56.9924  -30.2189   15.1992 H         1 UNK         0.3450 
    100 H100      -57.2860  -31.8870   14.7828 H         1 UNK         0.3450 
    101 H101      -54.9983  -28.1138   14.4233 H         1 UNK         0.2987 
    102 H102      -56.3101  -25.9483   15.0608 H         1 UNK         0.0766 
    103 H103      -58.7713  -25.6800   14.8351 H         1 UNK         0.0798 
    104 H104      -58.2846  -25.4561   16.5069 H         1 UNK         0.0798 
    105 H105      -59.0466  -26.9642   16.0040 H         1 UNK         0.0798 
    106 H106      -55.5548  -26.8361   16.9606 H         1 UNK         0.3198 
    107 H107      -56.0065  -28.1198   19.2010 H         1 UNK         0.0843 
    108 H108      -57.2680  -30.2514   19.3198 H         1 UNK         0.0831 
    109 H109      -55.6305  -30.4784   19.9085 H         1 UNK         0.0831 
    110 H110      -56.0786  -31.0497   18.3007 H         1 UNK         0.0831 
    111 H111      -54.0287  -29.7740   17.7596 H         1 UNK         0.3133 
    112 H112      -51.4930  -27.8531   18.3506 H         1 UNK         0.0566 
    113 H113      -50.8737  -29.4622   16.5315 H         1 UNK         0.0814 
    114 H114      -51.9948  -30.1842   17.6645 H         1 UNK         0.0814 
    115 H115      -52.5641  -29.6374   16.0856 H         1 UNK         0.0814 
    116 H116      -51.1129  -26.3126   16.7803 H         1 UNK         0.3091 
    117 H117      -52.4445  -25.6186   13.5741 H         1 UNK         0.0702 
    118 H118      -52.4959  -23.9092   16.1152 H         1 UNK         0.0785 
    119 H119      -53.8759  -24.2772   15.0916 H         1 UNK         0.0785 
    120 H120      -52.5544  -23.3071   14.4586 H         1 UNK         0.0785 
    121 H121      -50.3058  -25.3525   13.5170 H         1 UNK         0.2998 
    122 H122      -47.7441  -24.2705   15.7574 H         1 UNK         0.0697 
    123 H123      -48.0956  -26.5926   13.7869 H         1 UNK         0.0825 
    124 H124      -47.6418  -26.7506   15.4780 H         1 UNK         0.0825 
    125 H125      -46.5627  -25.9368   14.3565 H         1 UNK         0.0825 
    126 H126      -47.8733  -24.2478   12.9141 H         1 UNK         0.3029 
    127 H127      -49.1040  -20.8777   12.5928 H         1 UNK         0.0897 
    128 H128      -47.0244  -20.7403   11.2446 H         1 UNK         0.0792 
    129 H129      -46.6340  -20.7548   12.9577 H         1 UNK         0.0792 
    130 H130      -46.4057  -22.2091   11.9953 H         1 UNK         0.0792 
    131 H131      -48.3989  -22.7887   10.6130 H         1 UNK         0.3086 
    132 H132      -51.6382  -24.2521   10.1963 H         1 UNK         0.0583 
    133 H133      -51.7169  -22.2301    8.8560 H         1 UNK         0.1020 
    134 H134      -49.9946  -22.2017    8.6353 H         1 UNK         0.1020 
    135 H135      -53.2626  -23.9319    7.9787 H         1 UNK         0.0694 
    136 H136      -53.1477  -24.3565    6.2898 H         1 UNK         0.0694 
    137 H137      -49.1669  -24.8499    8.9677 H         1 UNK         0.2989 
    138 H138      -47.9636  -27.1936   11.3852 H         1 UNK         0.1055 
    139 H139      -49.5524  -28.4994   10.0226 H         1 UNK         0.0806 
    140 H140      -47.9448  -28.6141    9.3239 H         1 UNK         0.0806 
    141 H141      -49.1640  -27.5680    8.5910 H         1 UNK         0.0806 
    142 H142      -47.1173  -26.1010    8.8079 H         1 UNK         0.3061 
    143 H143      -45.0288  -23.5830   10.2203 H         1 UNK         0.0734 
    144 H144      -43.6469  -25.6523   10.4968 H         1 UNK         0.0832 
    145 H145      -44.2190  -26.2568    8.9486 H         1 UNK         0.0832 
    146 H146      -43.2285  -24.7984    9.0217 H         1 UNK         0.0832 
    147 H147      -45.3232  -24.5119    7.5442 H         1 UNK         0.3156 
    148 H148      -48.3043  -22.8218    6.6922 H         1 UNK         0.0589 
    149 H149      -45.4550  -21.9890    5.9489 H         1 UNK         0.0808 
    150 H150      -46.9294  -21.5798    5.0696 H         1 UNK         0.0808 
    151 H151      -46.6601  -20.9378    6.6795 H         1 UNK         0.0808 
    152 H152      -46.6296  -24.0067    4.8868 H         1 UNK         0.3098 
    153 H153      -47.9910  -26.3433    4.1398 H         1 UNK         0.0720 
    154 H154      -45.6417  -27.0877    3.4890 H         1 UNK         0.0791 
    155 H155      -45.0228  -26.3870    4.9781 H         1 UNK         0.0791 
    156 H156      -45.7259  -25.3608    3.7297 H         1 UNK         0.0791 
    157 H157      -47.3272  -27.8590    6.4672 H         1 UNK         0.3028 
@<TRIPOS>BOND
     1    1    2 1    
     2    1   82 1    
     3    1   83 1    
     4    1   84 1    
     5    2    3 2    
     6    2    4 am   BACKBONE|DICT|INTERRES
     7    4    5 1    
     8    4   85 1    
     9    5    6 1    
    10    5   80 1    
    11    5   86 1    
    12    6    7 1    
    13    6   87 1    
    14    6   88 1    
    15    7    8 1    
    16    8    9 1    
    17    8   89 1    
    18    8   90 1    
    19    9   10 ar   
    20    9   14 ar   
    21   10   11 ar   
    22   10   91 1    
    23   11   12 ar   
    24   11   58 1    
    25   12   13 ar   
    26   12   92 1    
    27   13   14 ar   
    28   13   15 1    
    29   14   93 1    
    30   15   16 1    
    31   15   94 1    
    32   15   95 1    
    33   16   17 1    
    34   17   18 1    
    35   17   96 1    
    36   17   97 1    
    37   18   19 1    
    38   18   22 1    
    39   18   98 1    
    40   19   20 am   BACKBONE|DICT|INTERRES
    41   19   21 2    
    42   20   99 1    
    43   20  100 1    
    44   22   23 am   BACKBONE|DICT|INTERRES
    45   22  101 1    
    46   23   24 2    
    47   23   25 1    
    48   25   26 1    
    49   25   27 1    
    50   25  102 1    
    51   26  103 1    
    52   26  104 1    
    53   26  105 1    
    54   27   28 am   BACKBONE|DICT|INTERRES
    55   27  106 1    
    56   28   29 2    
    57   28   30 1    
    58   30   31 1    
    59   30   32 1    
    60   30  107 1    
    61   31  108 1    
    62   31  109 1    
    63   31  110 1    
    64   32   33 am   BACKBONE|DICT|INTERRES
    65   32  111 1    
    66   33   34 2    
    67   33   35 1    
    68   35   36 1    
    69   35   37 1    
    70   35  112 1    
    71   36  113 1    
    72   36  114 1    
    73   36  115 1    
    74   37   38 am   BACKBONE|DICT|INTERRES
    75   37  116 1    
    76   38   39 2    
    77   38   40 1    
    78   40   41 1    
    79   40   42 1    
    80   40  117 1    
    81   41  118 1    
    82   41  119 1    
    83   41  120 1    
    84   42   43 am   BACKBONE|DICT|INTERRES
    85   42  121 1    
    86   43   44 2    
    87   43   45 1    
    88   45   46 1    
    89   45   47 1    
    90   45  122 1    
    91   46  123 1    
    92   46  124 1    
    93   46  125 1    
    94   47   48 am   BACKBONE|DICT|INTERRES
    95   47  126 1    
    96   48   49 2    
    97   48   50 1    
    98   50   51 1    
    99   50   52 1    
   100   50  127 1    
   101   51  128 1    
   102   51  129 1    
   103   51  130 1    
   104   52   53 am   BACKBONE|DICT|INTERRES
   105   52  131 1    
   106   53   54 2    
   107   53   55 1    
   108   55   56 1    
   109   55   59 1    
   110   55  132 1    
   111   56   57 1    
   112   56  133 1    
   113   56  134 1    
   114   57   58 1    
   115   58  135 1    
   116   58  136 1    
   117   59   60 am   BACKBONE|DICT|INTERRES
   118   59  137 1    
   119   60   61 2    
   120   60   62 1    
   121   62   63 1    
   122   62   64 1    
   123   62  138 1    
   124   63  139 1    
   125   63  140 1    
   126   63  141 1    
   127   64   65 am   BACKBONE|DICT|INTERRES
   128   64  142 1    
   129   65   66 2    
   130   65   67 1    
   131   67   68 1    
   132   67   69 1    
   133   67  143 1    
   134   68  144 1    
   135   68  145 1    
   136   68  146 1    
   137   69   70 am   BACKBONE|DICT|INTERRES
   138   69  147 1    
   139   70   71 2    
   140   70   72 1    
   141   72   73 1    
   142   72   74 1    
   143   72  148 1    
   144   73  149 1    
   145   73  150 1    
   146   73  151 1    
   147   74   75 am   BACKBONE|DICT|INTERRES
   148   74  152 1    
   149   75   76 2    
   150   75   77 1    
   151   77   78 1    
   152   77   79 1    
   153   77  153 1    
   154   78  154 1    
   155   78  155 1    
   156   78  156 1    
   157   79   80 am   BACKBONE|DICT|INTERRES
   158   79  157 1    
   159   80   81 2    
@<TRIPOS>SUBSTRUCTURE
     1 UNK         1 GROUP             0       ****    0 ROOT    
