@<TRIPOS>MOLECULE
3R207
157   159    1
SMALL
USER_CHARGES


@<TRIPOS>ATOM
      1 CA        -50.8265  -31.1329   10.2392 C.3       0 UNK        -0.1975 
      2 C         -49.7665  -31.0171    9.1548 C.2       0 UNK         0.4852 
      3 O         -48.8459  -31.8334    9.1104 O.2       0 UNK        -0.5216 
      4 N         -49.8962  -30.0133    8.2772 N.am      1 UNK        -0.4461 
      5 CA        -48.9662  -29.7133    7.1810 C.3       1 UNK         0.0864 
      6 C6        -49.5620  -28.7109    6.1544 C.3       14 UNK        -0.0898 
      7 S7        -50.4496  -27.3011    6.9126 S.3       14 UNK        -0.2598 
      8 C8        -52.1329  -27.5681    6.2758 C.3       14 UNK         0.0286 
      9 C9        -53.1617  -26.7555    7.0471 C.ar      14 UNK        -0.0844 
     10 C10       -53.3831  -25.4101    6.7350 C.ar      14 UNK        -0.0881 
     11 C11       -54.3511  -24.6697    7.4239 C.ar      14 UNK        -0.0643 
     12 C12       -55.0991  -25.2901    8.4301 C.ar      14 UNK        -0.0930 
     13 C13       -54.9002  -26.6399    8.7380 C.ar      14 UNK        -0.0827 
     14 C14       -53.9241  -27.3643    8.0484 C.ar      14 UNK        -0.1249 
     15 C15       -55.7780  -27.3223    9.7786 C.3       14 UNK         0.0141 
     16 S16       -54.9939  -27.3530   11.4181 S.3       14 UNK        -0.2313 
     17 C17       -54.0827  -28.9353   11.3882 C.3       14 UNK        -0.0915 
     18 CA        -54.6593  -29.9773   12.3819 C.3       13 UNK         0.0968 
     19 C         -53.9761  -31.3663   12.2113 C.2       13 UNK         0.5732 
     20 N         -53.3516  -31.9465   13.2309 N.am      13 UNK        -0.7310 
     21 O         -54.0261  -31.9395   11.1260 O.2       13 UNK        -0.5035 
     22 N         -54.6575  -29.4817   13.7679 N.am      13 UNK        -0.4233 
     23 C         -55.5224  -29.8944   14.7045 C.2       13 UNK         0.4989 
     24 O         -56.4551  -30.6665   14.4725 O.2       13 UNK        -0.4996 
     25 CA        -55.3202  -29.3604   16.1373 C.3       12 UNK         0.0216 
     26 CB        -55.9985  -30.2466   17.2041 C.3       12 UNK        -0.1964 
     27 N         -53.9179  -29.1174   16.4972 N.am      12 UNK        -0.4276 
     28 C         -52.9028  -29.9978   16.4894 C.2       12 UNK         0.5020 
     29 O         -53.0230  -31.1672   16.1197 O.2       12 UNK        -0.5489 
     30 CA        -51.5187  -29.4878   16.9408 C.3       11 UNK         0.0294 
     31 CB        -50.3894  -30.0788   16.0762 C.3       11 UNK        -0.2019 
     32 N         -51.4468  -28.0277   16.8710 N.am      11 UNK        -0.4493 
     33 C         -51.4845  -27.1852   17.9130 C.2       11 UNK         0.4932 
     34 O         -51.4789  -27.5503   19.0884 O.2       11 UNK        -0.5029 
     35 CA        -51.5785  -25.6777   17.5962 C.3       10 UNK         0.0280 
     36 CB        -50.1945  -25.0208   17.7137 C.3       10 UNK        -0.1976 
     37 N         -52.1432  -25.3915   16.2714 N.am      10 UNK        -0.4242 
     38 C         -53.4019  -25.6849   15.9026 C.2       10 UNK         0.5072 
     39 O         -54.2454  -26.1317   16.6800 O.2       10 UNK        -0.5224 
     40 CA        -53.7686  -25.5502   14.4113 C.3       9 UNK         0.0343 
     41 CB        -54.4666  -24.2091   14.1442 C.3       9 UNK        -0.2003 
     42 N         -52.6223  -25.6932   13.5084 N.am      9 UNK        -0.4272 
     43 C         -51.8185  -26.7674   13.4505 C.2       9 UNK         0.4988 
     44 O         -52.0754  -27.8221   14.0319 O.2       9 UNK        -0.5108 
     45 CA        -50.4815  -26.6486   12.6870 C.3       8 UNK         0.0248 
     46 CB        -50.5342  -27.4693   11.3894 C.3       8 UNK        -0.2001 
     47 N         -50.0711  -25.2765   12.3698 N.am      8 UNK        -0.4140 
     48 C         -49.9218  -24.2668   13.2452 C.2       8 UNK         0.5028 
     49 O         -49.9876  -24.4104   14.4666 O.2       8 UNK        -0.5428 
     50 CA        -49.7677  -22.8444   12.6664 C.3       7 UNK         0.0264 
     51 CB        -48.2909  -22.4315   12.6768 C.3       7 UNK        -0.1988 
     52 N         -50.2946  -22.7033   11.3033 N.am      7 UNK        -0.4454 
     53 C         -51.5497  -22.9936   10.9210 C.2       7 UNK         0.5027 
     54 O         -52.4572  -23.2249   11.7206 O.2       7 UNK        -0.5083 
     55 CA        -51.8313  -23.1396    9.4092 C.3       6 UNK         0.0844 
     56 C56       -52.8406  -22.0690    8.9256 C.3       14 UNK        -0.0967 
     57 S57       -53.1620  -22.1499    7.1285 S.3       14 UNK        -0.2604 
     58 C58       -54.6350  -23.2190    7.0474 C.3       14 UNK         0.0134 
     59 N         -50.6308  -23.1921    8.5659 N.am      6 UNK        -0.4116 
     60 C         -49.6537  -24.1070    8.6128 C.2       5 UNK         0.5034 
     61 O         -49.5763  -24.9858    9.4733 O.2       5 UNK        -0.5045 
     62 CA        -48.5610  -24.0148    7.5338 C.3       5 UNK         0.0224 
     63 CB        -48.8660  -23.0112    6.3976 C.3       5 UNK        -0.1978 
     64 N         -47.2374  -23.7506    8.1054 N.am      5 UNK        -0.4737 
     65 C         -46.8618  -22.7164    8.8746 C.2       4 UNK         0.5027 
     66 O         -47.6387  -21.8394    9.2559 O.2       4 UNK        -0.5211 
     67 CA        -45.3734  -22.6379    9.2830 C.3       4 UNK         0.0297 
     68 CB        -45.1852  -22.2005   10.7469 C.3       4 UNK        -0.1993 
     69 N         -44.6677  -23.9053    9.0790 N.am      4 UNK        -0.4486 
     70 C         -43.9535  -24.2392    7.9959 C.2       3 UNK         0.4961 
     71 O         -43.7183  -23.4730    7.0618 O.2       3 UNK        -0.5105 
     72 CA        -43.4464  -25.6941    7.9296 C.3       3 UNK         0.0299 
     73 CB        -42.0081  -25.7866    8.4639 C.3       3 UNK        -0.1972 
     74 N         -44.2986  -26.6494    8.6528 N.am      3 UNK        -0.4305 
     75 C         -45.5777  -26.9108    8.3474 C.2       2 UNK         0.5006 
     76 O         -46.1716  -26.3840    7.4043 O.2       2 UNK        -0.5106 
     77 CA        -46.3280  -27.8545    9.3041 C.3       2 UNK         0.0296 
     78 CB        -46.7034  -27.1114   10.5990 C.3       2 UNK        -0.2002 
     79 N         -47.5465  -28.4065    8.7062 N.am      2 UNK        -0.4032 
     80 C         -47.5745  -29.2709    7.6816 C.2       1 UNK         0.5000 
     81 O         -46.5645  -29.7418    7.1528 O.2       1 UNK        -0.5238 
     82 H82       -51.2864  -32.1205   10.2093 H         1 UNK         0.0889 
     83 H83       -51.6165  -30.3926   10.1170 H         1 UNK         0.0889 
     84 H84       -50.3782  -30.9976   11.2231 H         1 UNK         0.0889 
     85 H85       -50.6704  -29.3697    8.3606 H         1 UNK         0.3028 
     86 H86       -48.8025  -30.6523    6.6470 H         1 UNK         0.0864 
     87 H87       -48.7884  -28.3182    5.4911 H         1 UNK         0.0720 
     88 H88       -50.2476  -29.2479    5.4976 H         1 UNK         0.0720 
     89 H89       -52.3829  -28.6288    6.3335 H         1 UNK         0.0814 
     90 H90       -52.1642  -27.3032    5.2177 H         1 UNK         0.0814 
     91 H91       -52.8063  -24.9392    5.9507 H         1 UNK         0.1469 
     92 H92       -55.8587  -24.7295    8.9576 H         1 UNK         0.1381 
     93 H93       -53.7710  -28.4096    8.2761 H         1 UNK         0.1206 
     94 H94       -56.7281  -26.7929    9.8641 H         1 UNK         0.0813 
     95 H95       -56.0316  -28.3346    9.4605 H         1 UNK         0.0813 
     96 H96       -54.0900  -29.3326   10.3730 H         1 UNK         0.0638 
     97 H97       -53.0398  -28.7348   11.6217 H         1 UNK         0.0638 
     98 H98       -55.6985  -30.1369   12.0882 H         1 UNK         0.0568 
     99 H99       -53.3211  -31.5179   14.1498 H         1 UNK         0.3450 
    100 H100      -52.9280  -32.8491   13.0912 H         1 UNK         0.3450 
    101 H101      -53.8850  -28.8766   14.0223 H         1 UNK         0.2987 
    102 H102      -55.8108  -28.3863   16.1607 H         1 UNK         0.0766 
    103 H103      -55.5939  -31.2594   17.2030 H         1 UNK         0.0798 
    104 H104      -55.8670  -29.8340   18.2044 H         1 UNK         0.0798 
    105 H105      -57.0721  -30.3243   17.0278 H         1 UNK         0.0798 
    106 H106      -53.7180  -28.1660   16.7857 H         1 UNK         0.3198 
    107 H107      -51.3742  -29.8262   17.9688 H         1 UNK         0.0843 
    108 H108      -50.3583  -31.1659   16.1604 H         1 UNK         0.0831 
    109 H109      -49.4142  -29.7042   16.3870 H         1 UNK         0.0831 
    110 H110      -50.5211  -29.8382   15.0205 H         1 UNK         0.0831 
    111 H111      -51.4950  -27.6483   15.9306 H         1 UNK         0.3133 
    112 H112      -52.2352  -25.2253   18.3421 H         1 UNK         0.0566 
    113 H113      -50.2485  -23.9457   17.5413 H         1 UNK         0.0814 
    114 H114      -49.7743  -25.1692   18.7094 H         1 UNK         0.0814 
    115 H115      -49.4879  -25.4392   16.9956 H         1 UNK         0.0814 
    116 H116      -51.4953  -25.0290   15.5751 H         1 UNK         0.3091 
    117 H117      -54.4714  -26.3526   14.1809 H         1 UNK         0.0702 
    118 H118      -54.8177  -24.1470   13.1137 H         1 UNK         0.0785 
    119 H119      -53.7987  -23.3650   14.3215 H         1 UNK         0.0785 
    120 H120      -55.3359  -24.0833   14.7911 H         1 UNK         0.0785 
    121 H121      -52.3838  -24.8741   12.9591 H         1 UNK         0.2998 
    122 H122      -49.7081  -27.0724   13.3302 H         1 UNK         0.0697 
    123 H123      -51.3236  -27.1195   10.7216 H         1 UNK         0.0825 
    124 H124      -50.7192  -28.5205   11.6073 H         1 UNK         0.0825 
    125 H125      -49.5938  -27.4169   10.8445 H         1 UNK         0.0825 
    126 H126      -49.9659  -25.0682   11.3799 H         1 UNK         0.3029 
    127 H127      -50.3281  -22.1643   13.3111 H         1 UNK         0.0897 
    128 H128      -48.1549  -21.4150   12.3066 H         1 UNK         0.0792 
    129 H129      -47.8789  -22.4698   13.6862 H         1 UNK         0.0792 
    130 H130      -47.6980  -23.1005   12.0543 H         1 UNK         0.0792 
    131 H131      -49.6127  -22.5191   10.5778 H         1 UNK         0.3086 
    132 H132      -52.3102  -24.1146    9.3004 H         1 UNK         0.0583 
    133 H133      -53.7860  -22.1642    9.4639 H         1 UNK         0.1020 
    134 H134      -52.4673  -21.0677    9.1495 H         1 UNK         0.1020 
    135 H135      -55.4173  -22.7943    7.6784 H         1 UNK         0.0694 
    136 H136      -55.0220  -23.1973    6.0279 H         1 UNK         0.0694 
    137 H137      -50.5944  -22.5024    7.8299 H         1 UNK         0.2989 
    138 H138      -48.5067  -25.0082    7.0860 H         1 UNK         0.1055 
    139 H139      -48.1028  -23.0636    5.6209 H         1 UNK         0.0806 
    140 H140      -48.8998  -21.9801    6.7516 H         1 UNK         0.0806 
    141 H141      -49.8198  -23.2345    5.9168 H         1 UNK         0.0806 
    142 H142      -46.5457  -24.4588    7.8820 H         1 UNK         0.3061 
    143 H143      -44.9287  -21.8656    8.6519 H         1 UNK         0.0734 
    144 H144      -45.7424  -21.2895   10.9698 H         1 UNK         0.0832 
    145 H145      -45.5116  -22.9699   11.4453 H         1 UNK         0.0832 
    146 H146      -44.1366  -21.9904   10.9581 H         1 UNK         0.0832 
    147 H147      -44.8017  -24.6107    9.7886 H         1 UNK         0.3156 
    148 H148      -43.4390  -25.9891    6.8781 H         1 UNK         0.0589 
    149 H149      -41.9509  -25.5262    9.5216 H         1 UNK         0.0808 
    150 H150      -41.6019  -26.7909    8.3414 H         1 UNK         0.0808 
    151 H151      -41.3477  -25.1053    7.9252 H         1 UNK         0.0808 
    152 H152      -43.8799  -27.1213    9.4423 H         1 UNK         0.3098 
    153 H153      -45.6674  -28.6877    9.5530 H         1 UNK         0.0720 
    154 H154      -47.2107  -27.7719   11.3024 H         1 UNK         0.0791 
    155 H155      -47.3586  -26.2616   10.4020 H         1 UNK         0.0791 
    156 H156      -45.8187  -26.7280   11.1085 H         1 UNK         0.0791 
    157 H157      -48.4247  -28.0291    9.0290 H         1 UNK         0.3028 
@<TRIPOS>BOND
     1    1    2 1    
     2    1   82 1    
     3    1   83 1    
     4    1   84 1    
     5    2    3 2    
     6    2    4 am   BACKBONE|DICT|INTERRES
     7    4    5 1    
     8    4   85 1    
     9    5    6 1    
    10    5   80 1    
    11    5   86 1    
    12    6    7 1    
    13    6   87 1    
    14    6   88 1    
    15    7    8 1    
    16    8    9 1    
    17    8   89 1    
    18    8   90 1    
    19    9   10 ar   
    20    9   14 ar   
    21   10   11 ar   
    22   10   91 1    
    23   11   12 ar   
    24   11   58 1    
    25   12   13 ar   
    26   12   92 1    
    27   13   14 ar   
    28   13   15 1    
    29   14   93 1    
    30   15   16 1    
    31   15   94 1    
    32   15   95 1    
    33   16   17 1    
    34   17   18 1    
    35   17   96 1    
    36   17   97 1    
    37   18   19 1    
    38   18   22 1    
    39   18   98 1    
    40   19   20 am   BACKBONE|DICT|INTERRES
    41   19   21 2    
    42   20   99 1    
    43   20  100 1    
    44   22   23 am   BACKBONE|DICT|INTERRES
    45   22  101 1    
    46   23   24 2    
    47   23   25 1    
    48   25   26 1    
    49   25   27 1    
    50   25  102 1    
    51   26  103 1    
    52   26  104 1    
    53   26  105 1    
    54   27   28 am   BACKBONE|DICT|INTERRES
    55   27  106 1    
    56   28   29 2    
    57   28   30 1    
    58   30   31 1    
    59   30   32 1    
    60   30  107 1    
    61   31  108 1    
    62   31  109 1    
    63   31  110 1    
    64   32   33 am   BACKBONE|DICT|INTERRES
    65   32  111 1    
    66   33   34 2    
    67   33   35 1    
    68   35   36 1    
    69   35   37 1    
    70   35  112 1    
    71   36  113 1    
    72   36  114 1    
    73   36  115 1    
    74   37   38 am   BACKBONE|DICT|INTERRES
    75   37  116 1    
    76   38   39 2    
    77   38   40 1    
    78   40   41 1    
    79   40   42 1    
    80   40  117 1    
    81   41  118 1    
    82   41  119 1    
    83   41  120 1    
    84   42   43 am   BACKBONE|DICT|INTERRES
    85   42  121 1    
    86   43   44 2    
    87   43   45 1    
    88   45   46 1    
    89   45   47 1    
    90   45  122 1    
    91   46  123 1    
    92   46  124 1    
    93   46  125 1    
    94   47   48 am   BACKBONE|DICT|INTERRES
    95   47  126 1    
    96   48   49 2    
    97   48   50 1    
    98   50   51 1    
    99   50   52 1    
   100   50  127 1    
   101   51  128 1    
   102   51  129 1    
   103   51  130 1    
   104   52   53 am   BACKBONE|DICT|INTERRES
   105   52  131 1    
   106   53   54 2    
   107   53   55 1    
   108   55   56 1    
   109   55   59 1    
   110   55  132 1    
   111   56   57 1    
   112   56  133 1    
   113   56  134 1    
   114   57   58 1    
   115   58  135 1    
   116   58  136 1    
   117   59   60 am   BACKBONE|DICT|INTERRES
   118   59  137 1    
   119   60   61 2    
   120   60   62 1    
   121   62   63 1    
   122   62   64 1    
   123   62  138 1    
   124   63  139 1    
   125   63  140 1    
   126   63  141 1    
   127   64   65 am   BACKBONE|DICT|INTERRES
   128   64  142 1    
   129   65   66 2    
   130   65   67 1    
   131   67   68 1    
   132   67   69 1    
   133   67  143 1    
   134   68  144 1    
   135   68  145 1    
   136   68  146 1    
   137   69   70 am   BACKBONE|DICT|INTERRES
   138   69  147 1    
   139   70   71 2    
   140   70   72 1    
   141   72   73 1    
   142   72   74 1    
   143   72  148 1    
   144   73  149 1    
   145   73  150 1    
   146   73  151 1    
   147   74   75 am   BACKBONE|DICT|INTERRES
   148   74  152 1    
   149   75   76 2    
   150   75   77 1    
   151   77   78 1    
   152   77   79 1    
   153   77  153 1    
   154   78  154 1    
   155   78  155 1    
   156   78  156 1    
   157   79   80 am   BACKBONE|DICT|INTERRES
   158   79  157 1    
   159   80   81 2    
@<TRIPOS>SUBSTRUCTURE
     1 UNK         1 GROUP             0       ****    0 ROOT    
