@<TRIPOS>MOLECULE
3R207
157   159    1
SMALL
USER_CHARGES


@<TRIPOS>ATOM
      1 CA        -44.2095  -28.7338    7.6550 C.3       0 UNK        -0.1975 
      2 C         -44.8256  -28.9411    6.2792 C.2       0 UNK         0.4852 
      3 O         -44.2439  -28.5243    5.2773 O.2       0 UNK        -0.5216 
      4 N         -46.0025  -29.5785    6.2259 N.am      1 UNK        -0.4461 
      5 CA        -46.7818  -29.8374    5.0065 C.3       1 UNK         0.0864 
      6 C6        -47.8584  -30.9306    5.2362 C.3       14 UNK        -0.0898 
      7 S7        -48.8934  -30.6396    6.7124 S.3       14 UNK        -0.2598 
      8 C8        -50.4624  -30.1170    5.9618 C.3       14 UNK         0.0286 
      9 C9        -51.3222  -29.3756    6.9726 C.ar      14 UNK        -0.0844 
     10 C10       -51.3869  -27.9792    6.9439 C.ar      14 UNK        -0.0881 
     11 C11       -52.1760  -27.2767    7.8591 C.ar      14 UNK        -0.0643 
     12 C12       -52.9089  -28.0005    8.8087 C.ar      14 UNK        -0.0930 
     13 C13       -52.8519  -29.3951    8.8532 C.ar      14 UNK        -0.0827 
     14 C14       -52.0555  -30.0806    7.9320 C.ar      14 UNK        -0.1249 
     15 C15       -53.6890  -30.1449    9.8783 C.3       14 UNK         0.0141 
     16 S16       -53.1019  -29.8418   11.5773 S.3       14 UNK        -0.2313 
     17 C17       -54.6738  -29.8073   12.5070 C.3       14 UNK        -0.0915 
     18 CA        -54.9869  -28.4043   13.1043 C.3       13 UNK         0.0968 
     19 C         -55.4445  -27.3316   12.0749 C.2       13 UNK         0.5732 
     20 N         -55.4696  -26.0657   12.4722 N.am      13 UNK        -0.7310 
     21 O         -55.7995  -27.6301   10.9376 O.2       13 UNK        -0.5035 
     22 N         -55.8931  -28.4743   14.2571 N.am      13 UNK        -0.4233 
     23 C         -57.1888  -28.8106   14.2419 C.2       13 UNK         0.4989 
     24 O         -57.7775  -29.2369   13.2482 O.2       13 UNK        -0.4996 
     25 CA        -57.9891  -28.6117   15.5455 C.3       12 UNK         0.0216 
     26 CB        -57.9363  -29.8714   16.4331 C.3       12 UNK        -0.1964 
     27 N         -57.6386  -27.3912   16.2937 N.am      12 UNK        -0.4276 
     28 C         -56.4952  -27.1034   16.9305 C.2       12 UNK         0.5020 
     29 O         -55.5564  -27.8940   17.0479 O.2       12 UNK        -0.5489 
     30 CA        -56.3730  -25.6801   17.5033 C.3       11 UNK         0.0294 
     31 CB        -56.8198  -25.6536   18.9738 C.3       11 UNK        -0.2019 
     32 N         -55.0091  -25.1495   17.4060 N.am      11 UNK        -0.4493 
     33 C         -54.3117  -24.9898   16.2717 C.2       11 UNK         0.4932 
     34 O         -54.7590  -25.2401   15.1496 O.2       11 UNK        -0.5029 
     35 CA        -52.8748  -24.4463   16.3914 C.3       10 UNK         0.0280 
     36 CB        -52.4975  -23.8988   17.7878 C.3       10 UNK        -0.1976 
     37 N         -51.9029  -25.4375   15.9240 N.am      10 UNK        -0.4242 
     38 C         -51.6616  -26.6469   16.4538 C.2       10 UNK         0.5072 
     39 O         -52.1683  -27.0613   17.4969 O.2       10 UNK        -0.5224 
     40 CA        -50.6840  -27.5589   15.6959 C.3       9 UNK         0.0343 
     41 CB        -51.4165  -28.3330   14.5907 C.3       9 UNK        -0.2003 
     42 N         -49.5457  -26.8401   15.1201 N.am      9 UNK        -0.4272 
     43 C         -48.5259  -26.3525   15.8412 C.2       9 UNK         0.4988 
     44 O         -48.4466  -26.4442   17.0671 O.2       9 UNK        -0.5108 
     45 CA        -47.3882  -25.6651   15.0688 C.3       8 UNK         0.0248 
     46 CB        -46.4803  -26.7099   14.3994 C.3       8 UNK        -0.2001 
     47 N         -47.8692  -24.7101   14.0692 N.am      8 UNK        -0.4140 
     48 C         -48.4780  -23.5516   14.3613 C.2       8 UNK         0.5028 
     49 O         -48.6614  -23.1417   15.5082 O.2       8 UNK        -0.5428 
     50 CA        -48.9802  -22.7065   13.1771 C.3       7 UNK         0.0264 
     51 CB        -47.8361  -21.8762   12.5741 C.3       7 UNK        -0.1988 
     52 N         -49.6212  -23.4979   12.1238 N.am      7 UNK        -0.4454 
     53 C         -50.7242  -24.2429   12.2952 C.2       7 UNK         0.5027 
     54 O         -51.3270  -24.3413   13.3634 O.2       7 UNK        -0.5083 
     55 CA        -51.2198  -25.0429   11.0740 C.3       6 UNK         0.0844 
     56 C56       -51.9244  -24.0971   10.0637 C.3       14 UNK        -0.0967 
     57 S57       -53.1996  -24.9063    9.0490 S.3       14 UNK        -0.2604 
     58 C58       -52.2235  -25.7504    7.7558 C.3       14 UNK         0.0134 
     59 N         -50.1164  -25.8043   10.4737 N.am      6 UNK        -0.4116 
     60 C         -49.3846  -26.7300   11.1151 C.2       5 UNK         0.5034 
     61 O         -49.6113  -27.1201   12.2591 O.2       5 UNK        -0.5045 
     62 CA        -48.1353  -27.2523   10.3933 C.3       5 UNK         0.0224 
     63 CB        -48.4908  -28.3902    9.4283 C.3       5 UNK        -0.1978 
     64 N         -47.4286  -26.1839    9.6826 N.am      5 UNK        -0.4737 
     65 C         -46.7139  -25.2291   10.2977 C.2       4 UNK         0.5027 
     66 O         -46.5547  -25.1825   11.5161 O.2       4 UNK        -0.5211 
     67 CA        -46.1039  -24.1174    9.4235 C.3       4 UNK         0.0297 
     68 CB        -44.7043  -24.5260    8.9393 C.3       4 UNK        -0.1993 
     69 N         -46.9321  -23.7618    8.2698 N.am      4 UNK        -0.4486 
     70 C         -48.1843  -23.2906    8.3416 C.2       3 UNK         0.4961 
     71 O         -48.7447  -23.0101    9.4014 O.2       3 UNK        -0.5105 
     72 CA        -48.9666  -23.1611    7.0190 C.3       3 UNK         0.0299 
     73 CB        -48.9036  -21.7134    6.5083 C.3       3 UNK        -0.1972 
     74 N         -48.5464  -24.0741    5.9433 N.am      3 UNK        -0.4305 
     75 C         -48.4321  -25.4081    6.0320 C.2       2 UNK         0.5006 
     76 O         -48.6349  -26.0387    7.0721 O.2       2 UNK        -0.5106 
     77 CA        -47.9828  -26.1617    4.7704 C.3       2 UNK         0.0296 
     78 CB        -46.8469  -25.4325    4.0181 C.3       2 UNK        -0.2002 
     79 N         -47.5440  -27.4973    5.1682 N.am      2 UNK        -0.4032 
     80 C         -47.3749  -28.5582    4.3697 C.2       1 UNK         0.5000 
     81 O         -47.6460  -28.5557    3.1672 O.2       1 UNK        -0.5238 
     82 H82       -43.9278  -27.6900    7.7878 H         1 UNK         0.0889 
     83 H83       -43.3125  -29.3436    7.7588 H         1 UNK         0.0889 
     84 H84       -44.8989  -29.0016    8.4557 H         1 UNK         0.0889 
     85 H85       -46.4302  -29.9154    7.0775 H         1 UNK         0.3028 
     86 H86       -46.0829  -30.2323    4.2657 H         1 UNK         0.0864 
     87 H87       -48.4857  -31.0617    4.3521 H         1 UNK         0.0720 
     88 H88       -47.3617  -31.8914    5.3795 H         1 UNK         0.0720 
     89 H89       -50.9948  -30.9917    5.5856 H         1 UNK         0.0814 
     90 H90       -50.2645  -29.4798    5.0984 H         1 UNK         0.0814 
     91 H91       -50.8169  -27.4339    6.2045 H         1 UNK         0.1469 
     92 H92       -53.5394  -27.4952    9.5248 H         1 UNK         0.1381 
     93 H93       -52.0068  -31.1607    7.9563 H         1 UNK         0.1206 
     94 H94       -54.7256  -29.8243    9.7693 H         1 UNK         0.0813 
     95 H95       -53.6783  -31.2185    9.6853 H         1 UNK         0.0813 
     96 H96       -54.5680  -30.5320   13.3155 H         1 UNK         0.0638 
     97 H97       -55.5010  -30.1705   11.8956 H         1 UNK         0.0638 
     98 H98       -54.0571  -28.0199   13.5197 H         1 UNK         0.0568 
     99 H99       -55.2000  -25.8048   13.4179 H         1 UNK         0.3450 
    100 H100      -55.7685  -25.3563   11.8234 H         1 UNK         0.3450 
    101 H101      -55.5143  -28.1545   15.1443 H         1 UNK         0.2987 
    102 H102      -59.0296  -28.4747   15.2460 H         1 UNK         0.0766 
    103 H103      -58.5425  -29.7501   17.3308 H         1 UNK         0.0798 
    104 H104      -56.9198  -30.1135   16.7445 H         1 UNK         0.0798 
    105 H105      -58.3220  -30.7390   15.8961 H         1 UNK         0.0798 
    106 H106      -58.3346  -26.6590   16.2440 H         1 UNK         0.3198 
    107 H107      -57.0207  -25.0152   16.9280 H         1 UNK         0.0843 
    108 H108      -56.1865  -26.2861   19.5977 H         1 UNK         0.0831 
    109 H109      -57.8437  -26.0153   19.0790 H         1 UNK         0.0831 
    110 H110      -56.7924  -24.6428   19.3813 H         1 UNK         0.0831 
    111 H111      -54.5339  -24.9668   18.2772 H         1 UNK         0.3133 
    112 H112      -52.8109  -23.6125   15.6910 H         1 UNK         0.0566 
    113 H113      -51.4951  -23.4701   17.7755 H         1 UNK         0.0814 
    114 H114      -53.1787  -23.1044   18.0956 H         1 UNK         0.0814 
    115 H115      -52.5127  -24.6680   18.5603 H         1 UNK         0.0814 
    116 H116      -51.4758  -25.2081   15.0289 H         1 UNK         0.3091 
    117 H117      -50.2956  -28.2886   16.4097 H         1 UNK         0.0702 
    118 H118      -50.7604  -29.0615   14.1141 H         1 UNK         0.0785 
    119 H119      -51.7855  -27.6631   13.8134 H         1 UNK         0.0785 
    120 H120      -52.2705  -28.8797   14.9930 H         1 UNK         0.0785 
    121 H121      -49.5237  -26.7632   14.1054 H         1 UNK         0.2998 
    122 H122      -46.7846  -25.1126   15.7921 H         1 UNK         0.0697 
    123 H123      -47.0104  -27.2722   13.6300 H         1 UNK         0.0825 
    124 H124      -46.1048  -27.4278   15.1297 H         1 UNK         0.0825 
    125 H125      -45.6144  -26.2404   13.9323 H         1 UNK         0.0825 
    126 H126      -47.6818  -24.9350   13.0958 H         1 UNK         0.3029 
    127 H127      -49.7319  -22.0158   13.5654 H         1 UNK         0.0897 
    128 H128      -48.1939  -21.2286   11.7733 H         1 UNK         0.0792 
    129 H129      -47.0497  -22.5105   12.1648 H         1 UNK         0.0792 
    130 H130      -47.3786  -21.2365   13.3299 H         1 UNK         0.0792 
    131 H131      -49.2116  -23.4387   11.1938 H         1 UNK         0.3086 
    132 H132      -51.9505  -25.7660   11.4442 H         1 UNK         0.0583 
    133 H133      -52.4498  -23.2967   10.5900 H         1 UNK         0.1020 
    134 H134      -51.2113  -23.5884    9.4171 H         1 UNK         0.1020 
    135 H135      -52.6526  -25.4866    6.7884 H         1 UNK         0.0694 
    136 H136      -51.2055  -25.3633    7.7534 H         1 UNK         0.0694 
    137 H137      -49.8339  -25.5424    9.5412 H         1 UNK         0.2989 
    138 H138      -47.4632  -27.6584   11.1527 H         1 UNK         0.1055 
    139 H139      -48.9893  -29.2067    9.9527 H         1 UNK         0.0806 
    140 H140      -47.6002  -28.8028    8.9562 H         1 UNK         0.0806 
    141 H141      -49.1660  -28.0583    8.6412 H         1 UNK         0.0806 
    142 H142      -47.5982  -26.1132    8.6832 H         1 UNK         0.3061 
    143 H143      -46.0043  -23.2263   10.0463 H         1 UNK         0.0734 
    144 H144      -44.2135  -23.7104    8.4080 H         1 UNK         0.0832 
    145 H145      -44.0633  -24.7937    9.7807 H         1 UNK         0.0832 
    146 H146      -44.7433  -25.3874    8.2720 H         1 UNK         0.0832 
    147 H147      -46.5512  -23.9565    7.3561 H         1 UNK         0.3156 
    148 H148      -50.0093  -23.3903    7.2416 H         1 UNK         0.0589 
    149 H149      -47.8898  -21.4291    6.2233 H         1 UNK         0.0808 
    150 H150      -49.5506  -21.5674    5.6431 H         1 UNK         0.0808 
    151 H151      -49.2341  -21.0131    7.2770 H         1 UNK         0.0808 
    152 H152      -48.3497  -23.6432    5.0514 H         1 UNK         0.3098 
    153 H153      -48.8521  -26.2579    4.1171 H         1 UNK         0.0720 
    154 H154      -46.5060  -26.0071    3.1568 H         1 UNK         0.0791 
    155 H155      -45.9825  -25.2638    4.6618 H         1 UNK         0.0791 
    156 H156      -47.1706  -24.4648    3.6342 H         1 UNK         0.0791 
    157 H157      -47.3927  -27.6055    6.1625 H         1 UNK         0.3028 
@<TRIPOS>BOND
     1    1    2 1    
     2    1   82 1    
     3    1   83 1    
     4    1   84 1    
     5    2    3 2    
     6    2    4 am   BACKBONE|DICT|INTERRES
     7    4    5 1    
     8    4   85 1    
     9    5    6 1    
    10    5   80 1    
    11    5   86 1    
    12    6    7 1    
    13    6   87 1    
    14    6   88 1    
    15    7    8 1    
    16    8    9 1    
    17    8   89 1    
    18    8   90 1    
    19    9   10 ar   
    20    9   14 ar   
    21   10   11 ar   
    22   10   91 1    
    23   11   12 ar   
    24   11   58 1    
    25   12   13 ar   
    26   12   92 1    
    27   13   14 ar   
    28   13   15 1    
    29   14   93 1    
    30   15   16 1    
    31   15   94 1    
    32   15   95 1    
    33   16   17 1    
    34   17   18 1    
    35   17   96 1    
    36   17   97 1    
    37   18   19 1    
    38   18   22 1    
    39   18   98 1    
    40   19   20 am   BACKBONE|DICT|INTERRES
    41   19   21 2    
    42   20   99 1    
    43   20  100 1    
    44   22   23 am   BACKBONE|DICT|INTERRES
    45   22  101 1    
    46   23   24 2    
    47   23   25 1    
    48   25   26 1    
    49   25   27 1    
    50   25  102 1    
    51   26  103 1    
    52   26  104 1    
    53   26  105 1    
    54   27   28 am   BACKBONE|DICT|INTERRES
    55   27  106 1    
    56   28   29 2    
    57   28   30 1    
    58   30   31 1    
    59   30   32 1    
    60   30  107 1    
    61   31  108 1    
    62   31  109 1    
    63   31  110 1    
    64   32   33 am   BACKBONE|DICT|INTERRES
    65   32  111 1    
    66   33   34 2    
    67   33   35 1    
    68   35   36 1    
    69   35   37 1    
    70   35  112 1    
    71   36  113 1    
    72   36  114 1    
    73   36  115 1    
    74   37   38 am   BACKBONE|DICT|INTERRES
    75   37  116 1    
    76   38   39 2    
    77   38   40 1    
    78   40   41 1    
    79   40   42 1    
    80   40  117 1    
    81   41  118 1    
    82   41  119 1    
    83   41  120 1    
    84   42   43 am   BACKBONE|DICT|INTERRES
    85   42  121 1    
    86   43   44 2    
    87   43   45 1    
    88   45   46 1    
    89   45   47 1    
    90   45  122 1    
    91   46  123 1    
    92   46  124 1    
    93   46  125 1    
    94   47   48 am   BACKBONE|DICT|INTERRES
    95   47  126 1    
    96   48   49 2    
    97   48   50 1    
    98   50   51 1    
    99   50   52 1    
   100   50  127 1    
   101   51  128 1    
   102   51  129 1    
   103   51  130 1    
   104   52   53 am   BACKBONE|DICT|INTERRES
   105   52  131 1    
   106   53   54 2    
   107   53   55 1    
   108   55   56 1    
   109   55   59 1    
   110   55  132 1    
   111   56   57 1    
   112   56  133 1    
   113   56  134 1    
   114   57   58 1    
   115   58  135 1    
   116   58  136 1    
   117   59   60 am   BACKBONE|DICT|INTERRES
   118   59  137 1    
   119   60   61 2    
   120   60   62 1    
   121   62   63 1    
   122   62   64 1    
   123   62  138 1    
   124   63  139 1    
   125   63  140 1    
   126   63  141 1    
   127   64   65 am   BACKBONE|DICT|INTERRES
   128   64  142 1    
   129   65   66 2    
   130   65   67 1    
   131   67   68 1    
   132   67   69 1    
   133   67  143 1    
   134   68  144 1    
   135   68  145 1    
   136   68  146 1    
   137   69   70 am   BACKBONE|DICT|INTERRES
   138   69  147 1    
   139   70   71 2    
   140   70   72 1    
   141   72   73 1    
   142   72   74 1    
   143   72  148 1    
   144   73  149 1    
   145   73  150 1    
   146   73  151 1    
   147   74   75 am   BACKBONE|DICT|INTERRES
   148   74  152 1    
   149   75   76 2    
   150   75   77 1    
   151   77   78 1    
   152   77   79 1    
   153   77  153 1    
   154   78  154 1    
   155   78  155 1    
   156   78  156 1    
   157   79   80 am   BACKBONE|DICT|INTERRES
   158   79  157 1    
   159   80   81 2    
@<TRIPOS>SUBSTRUCTURE
     1 UNK         1 GROUP             0       ****    0 ROOT    
