@<TRIPOS>MOLECULE
3R207
157   159    1
SMALL
USER_CHARGES


@<TRIPOS>ATOM
      1 CA        -49.6060  -29.6576    8.9498 C.3       0 UNK        -0.1975 
      2 C         -49.0257  -29.7067    7.5452 C.2       0 UNK         0.4852 
      3 O         -47.9035  -30.1783    7.3603 O.2       0 UNK        -0.5216 
      4 N         -49.7799  -29.2129    6.5541 N.am      1 UNK        -0.4461 
      5 CA        -49.3806  -29.1624    5.1388 C.3       1 UNK         0.0864 
      6 C6        -50.5981  -28.9609    4.2006 C.3       14 UNK        -0.0898 
      7 S7        -51.7280  -30.3932    4.2043 S.3       14 UNK        -0.2598 
      8 C8        -53.2732  -29.6689    4.8389 C.3       14 UNK         0.0286 
      9 C9        -53.1937  -29.3991    6.3328 C.ar      14 UNK        -0.0844 
     10 C10       -53.0214  -28.0969    6.8120 C.ar      14 UNK        -0.0881 
     11 C11       -52.9334  -27.8558    8.1861 C.ar      14 UNK        -0.0643 
     12 C12       -53.0278  -28.9250    9.0809 C.ar      14 UNK        -0.0930 
     13 C13       -53.2281  -30.2272    8.6138 C.ar      14 UNK        -0.0827 
     14 C14       -53.3025  -30.4587    7.2382 C.ar      14 UNK        -0.1249 
     15 C15       -53.3555  -31.3855    9.5936 C.3       14 UNK         0.0141 
     16 S16       -55.0889  -31.9038    9.8291 S.3       14 UNK        -0.2313 
     17 C17       -55.8186  -30.4430   10.6467 C.3       14 UNK        -0.0915 
     18 CA        -56.0604  -30.5916   12.1714 C.3       13 UNK         0.0968 
     19 C         -54.7299  -30.6954   12.9792 C.2       13 UNK         0.5732 
     20 N         -54.2576  -29.6346   13.6240 N.am      13 UNK        -0.7310 
     21 O         -54.1265  -31.7634   13.0429 O.2       13 UNK        -0.5035 
     22 N         -56.9463  -29.5130   12.6288 N.am      13 UNK        -0.4233 
     23 C         -57.5688  -29.4767   13.8105 C.2       13 UNK         0.4989 
     24 O         -57.5816  -30.4052   14.6213 O.2       13 UNK        -0.4996 
     25 CA        -58.2649  -28.1497   14.1580 C.3       12 UNK         0.0216 
     26 CB        -59.7179  -28.3805   14.6084 C.3       12 UNK        -0.1964 
     27 N         -57.5379  -27.4294   15.2060 N.am      12 UNK        -0.4276 
     28 C         -56.2771  -26.9860   15.1109 C.2       12 UNK         0.5020 
     29 O         -55.5773  -27.0917   14.0978 O.2       12 UNK        -0.5489 
     30 CA        -55.6925  -26.3414   16.3708 C.3       11 UNK         0.0294 
     31 CB        -55.3597  -27.4095   17.4305 C.3       11 UNK        -0.2019 
     32 N         -54.4789  -25.6124   16.0133 N.am      11 UNK        -0.4493 
     33 C         -53.9569  -24.5936   16.7044 C.2       11 UNK         0.4932 
     34 O         -54.4859  -24.1194   17.7121 O.2       11 UNK        -0.5029 
     35 CA        -52.6189  -24.0170   16.1909 C.3       10 UNK         0.0280 
     36 CB        -51.9378  -23.1003   17.2286 C.3       10 UNK        -0.1976 
     37 N         -51.6681  -25.0332   15.7155 N.am      10 UNK        -0.4242 
     38 C         -51.2231  -26.1096   16.3861 C.2       10 UNK         0.5072 
     39 O         -51.5876  -26.4281   17.5189 O.2       10 UNK        -0.5224 
     40 CA        -50.1714  -26.9739   15.6711 C.3       9 UNK         0.0343 
     41 CB        -50.7800  -27.7098   14.4645 C.3       9 UNK        -0.2003 
     42 N         -49.0060  -26.1949   15.2480 N.am      9 UNK        -0.4272 
     43 C         -48.1352  -25.6065   16.0826 C.2       9 UNK         0.4988 
     44 O         -48.1782  -25.7116   17.3089 O.2       9 UNK        -0.5108 
     45 CA        -47.0257  -24.7512   15.4469 C.3       8 UNK         0.0248 
     46 CB        -45.8456  -25.6301   15.0025 C.3       8 UNK        -0.2001 
     47 N         -47.5089  -23.9489   14.3202 N.am      8 UNK        -0.4140 
     48 C         -48.3561  -22.9162   14.4422 C.2       8 UNK         0.5028 
     49 O         -48.7385  -22.4711   15.5241 O.2       8 UNK        -0.5428 
     50 CA        -48.8792  -22.2708   13.1477 C.3       7 UNK         0.0264 
     51 CB        -47.9129  -21.1791   12.6617 C.3       7 UNK        -0.1988 
     52 N         -49.1198  -23.2358   12.0710 N.am      7 UNK        -0.4454 
     53 C         -50.0462  -24.2064   12.1089 C.2       7 UNK         0.5027 
     54 O         -50.8308  -24.3656   13.0459 O.2       7 UNK        -0.5083 
     55 CA        -50.0689  -25.2018   10.9300 C.3       6 UNK         0.0844 
     56 C56       -50.8397  -24.6260    9.7179 C.3       14 UNK        -0.0967 
     57 S57       -51.0418  -25.8723    8.4009 S.3       14 UNK        -0.2604 
     58 C58       -52.7378  -26.4423    8.7078 C.3       14 UNK         0.0134 
     59 N         -48.7191  -25.6473   10.5735 N.am      6 UNK        -0.4116 
     60 C         -47.8961  -26.3268   11.3830 C.2       5 UNK         0.5034 
     61 O         -48.2027  -26.7078   12.5119 O.2       5 UNK        -0.5045 
     62 CA        -46.4694  -26.5689   10.8702 C.3       5 UNK         0.0224 
     63 CB        -46.4130  -27.7828    9.9294 C.3       5 UNK        -0.1978 
     64 N         -45.9287  -25.3860   10.1967 N.am      5 UNK        -0.4737 
     65 C         -45.5736  -24.2596   10.8306 C.2       4 UNK         0.5027 
     66 O         -45.6347  -24.1168   12.0505 O.2       4 UNK        -0.5211 
     67 CA        -45.1022  -23.0847    9.9576 C.3       4 UNK         0.0297 
     68 CB        -43.6068  -23.2216    9.6314 C.3       4 UNK        -0.1993 
     69 N         -45.8669  -22.9528    8.7154 N.am      4 UNK        -0.4486 
     70 C         -47.1682  -22.6370    8.6580 C.2       3 UNK         0.4961 
     71 O         -47.8622  -22.3972    9.6449 O.2       3 UNK        -0.5105 
     72 CA        -47.8204  -22.6440    7.2656 C.3       3 UNK         0.0299 
     73 CB        -47.5726  -21.3088    6.5460 C.3       3 UNK        -0.1972 
     74 N         -47.3943  -23.7572    6.4079 N.am      3 UNK        -0.4305 
     75 C         -47.4953  -25.0526    6.7339 C.2       2 UNK         0.5006 
     76 O         -47.8583  -25.4610    7.8385 O.2       2 UNK        -0.5106 
     77 CA        -47.1019  -26.0739    5.6692 C.3       2 UNK         0.0296 
     78 CB        -45.6577  -26.5612    5.8894 C.3       2 UNK        -0.2002 
     79 N         -48.0411  -27.1837    5.7801 N.am      2 UNK        -0.4032 
     80 C         -48.2930  -28.1030    4.8416 C.2       1 UNK         0.5000 
     81 O         -47.7101  -28.1344    3.7555 O.2       1 UNK        -0.5238 
     82 H82       -50.0995  -28.7044    9.1369 H         1 UNK         0.0889 
     83 H83       -48.8224  -29.7800    9.6963 H         1 UNK         0.0889 
     84 H84       -50.3303  -30.4597    9.0860 H         1 UNK         0.0889 
     85 H85       -50.7128  -28.8792    6.7601 H         1 UNK         0.3028 
     86 H86       -48.9287  -30.1258    4.8924 H         1 UNK         0.0864 
     87 H87       -51.1381  -28.0489    4.4600 H         1 UNK         0.0720 
     88 H88       -50.2718  -28.8304    3.1667 H         1 UNK         0.0720 
     89 H89       -54.0921  -30.3627    4.6433 H         1 UNK         0.0814 
     90 H90       -53.5096  -28.7586    4.2856 H         1 UNK         0.0814 
     91 H91       -52.9464  -27.2689    6.1199 H         1 UNK         0.1469 
     92 H92       -52.9559  -28.7419   10.1445 H         1 UNK         0.1381 
     93 H93       -53.4466  -31.4659    6.8710 H         1 UNK         0.1206 
     94 H94       -52.7830  -32.2366    9.2223 H         1 UNK         0.0813 
     95 H95       -52.9165  -31.1255   10.5577 H         1 UNK         0.0813 
     96 H96       -56.7727  -30.2707   10.1461 H         1 UNK         0.0638 
     97 H97       -55.2270  -29.5516   10.4463 H         1 UNK         0.0638 
     98 H98       -56.5947  -31.5297   12.3328 H         1 UNK         0.0568 
     99 H99       -53.4057  -29.7299   14.1502 H         1 UNK         0.3450 
    100 H100      -54.7584  -28.7506   13.6245 H         1 UNK         0.3450 
    101 H101      -56.9570  -28.6823   12.0558 H         1 UNK         0.2987 
    102 H102      -58.2856  -27.5150   13.2694 H         1 UNK         0.0766 
    103 H103      -60.2328  -27.4368   14.7897 H         1 UNK         0.0798 
    104 H104      -59.7710  -28.9731   15.5227 H         1 UNK         0.0798 
    105 H105      -60.2825  -28.9138   13.8423 H         1 UNK         0.0798 
    106 H106      -58.0182  -27.3240   16.0882 H         1 UNK         0.3198 
    107 H107      -56.4310  -25.6418   16.7688 H         1 UNK         0.0843 
    108 H108      -54.6259  -28.1261   17.0589 H         1 UNK         0.0831 
    109 H109      -56.2472  -27.9718   17.7228 H         1 UNK         0.0831 
    110 H110      -54.9528  -26.9584   18.3358 H         1 UNK         0.0831 
    111 H111      -54.0446  -25.9206   15.1516 H         1 UNK         0.3133 
    112 H112      -52.8656  -23.4053   15.3221 H         1 UNK         0.0566 
    113 H113      -51.0229  -22.6633   16.8312 H         1 UNK         0.0814 
    114 H114      -52.5896  -22.2737   17.5139 H         1 UNK         0.0814 
    115 H115      -51.6806  -23.6440   18.1383 H         1 UNK         0.0814 
    116 H116      -51.3025  -24.8731   14.7777 H         1 UNK         0.3091 
    117 H117      -49.8244  -27.7281   16.3806 H         1 UNK         0.0702 
    118 H118      -50.0605  -28.3962   14.0177 H         1 UNK         0.0785 
    119 H119      -51.1067  -27.0206   13.6857 H         1 UNK         0.0785 
    120 H120      -51.6472  -28.2984   14.7653 H         1 UNK         0.0785 
    121 H121      -48.8438  -26.1234   14.2475 H         1 UNK         0.2998 
    122 H122      -46.6597  -24.0633   16.2122 H         1 UNK         0.0697 
    123 H123      -46.1349  -26.3343   14.2225 H         1 UNK         0.0825 
    124 H124      -45.4566  -26.2122   15.8389 H         1 UNK         0.0825 
    125 H125      -45.0236  -25.0255   14.6190 H         1 UNK         0.0825 
    126 H126      -47.1589  -24.1923   13.3991 H         1 UNK         0.3029 
    127 H127      -49.8347  -21.7973   13.3840 H         1 UNK         0.0897 
    128 H128      -48.3163  -20.6480   11.7993 H         1 UNK         0.0792 
    129 H129      -47.7332  -20.4394   13.4429 H         1 UNK         0.0792 
    130 H130      -46.9462  -21.5952   12.3761 H         1 UNK         0.0792 
    131 H131      -48.5516  -23.1279   11.2329 H         1 UNK         0.3086 
    132 H132      -50.6108  -26.0845   11.2768 H         1 UNK         0.0583 
    133 H133      -51.8215  -24.2545   10.0185 H         1 UNK         0.1020 
    134 H134      -50.3090  -23.7694    9.2987 H         1 UNK         0.1020 
    135 H135      -52.9512  -26.4040    9.7774 H         1 UNK         0.0694 
    136 H136      -53.4426  -25.7640    8.2249 H         1 UNK         0.0694 
    137 H137      -48.4016  -25.4254    9.6324 H         1 UNK         0.2989 
    138 H138      -45.8391  -26.7838   11.7361 H         1 UNK         0.1055 
    139 H139      -46.7441  -28.6853   10.4442 H         1 UNK         0.0806 
    140 H140      -45.3974  -27.9673    9.5794 H         1 UNK         0.0806 
    141 H141      -47.0499  -27.6554    9.0541 H         1 UNK         0.0806 
    142 H142      -45.9326  -25.3943    9.1864 H         1 UNK         0.3061 
    143 H143      -45.2420  -22.1682   10.5351 H         1 UNK         0.0734 
    144 H144      -43.2380  -22.3533    9.0852 H         1 UNK         0.0832 
    145 H145      -43.0159  -23.3017   10.5450 H         1 UNK         0.0832 
    146 H146      -43.4011  -24.1095    9.0322 H         1 UNK         0.0832 
    147 H147      -45.3808  -23.1408    7.8508 H         1 UNK         0.3156 
    148 H148      -48.8968  -22.7510    7.4148 H         1 UNK         0.0589 
    149 H149      -46.5160  -21.1586    6.3209 H         1 UNK         0.0808 
    150 H150      -48.1275  -21.2530    5.6093 H         1 UNK         0.0808 
    151 H151      -47.8971  -20.4684    7.1616 H         1 UNK         0.0808 
    152 H152      -47.0673  -23.5143    5.4834 H         1 UNK         0.3098 
    153 H153      -47.1958  -25.6202    4.6804 H         1 UNK         0.0720 
    154 H154      -45.3591  -27.2788    5.1252 H         1 UNK         0.0791 
    155 H155      -45.5397  -27.0425    6.8613 H         1 UNK         0.0791 
    156 H156      -44.9518  -25.7309    5.8454 H         1 UNK         0.0791 
    157 H157      -48.5682  -27.1969    6.6449 H         1 UNK         0.3028 
@<TRIPOS>BOND
     1    1    2 1    
     2    1   82 1    
     3    1   83 1    
     4    1   84 1    
     5    2    3 2    
     6    2    4 am   BACKBONE|DICT|INTERRES
     7    4    5 1    
     8    4   85 1    
     9    5    6 1    
    10    5   80 1    
    11    5   86 1    
    12    6    7 1    
    13    6   87 1    
    14    6   88 1    
    15    7    8 1    
    16    8    9 1    
    17    8   89 1    
    18    8   90 1    
    19    9   10 ar   
    20    9   14 ar   
    21   10   11 ar   
    22   10   91 1    
    23   11   12 ar   
    24   11   58 1    
    25   12   13 ar   
    26   12   92 1    
    27   13   14 ar   
    28   13   15 1    
    29   14   93 1    
    30   15   16 1    
    31   15   94 1    
    32   15   95 1    
    33   16   17 1    
    34   17   18 1    
    35   17   96 1    
    36   17   97 1    
    37   18   19 1    
    38   18   22 1    
    39   18   98 1    
    40   19   20 am   BACKBONE|DICT|INTERRES
    41   19   21 2    
    42   20   99 1    
    43   20  100 1    
    44   22   23 am   BACKBONE|DICT|INTERRES
    45   22  101 1    
    46   23   24 2    
    47   23   25 1    
    48   25   26 1    
    49   25   27 1    
    50   25  102 1    
    51   26  103 1    
    52   26  104 1    
    53   26  105 1    
    54   27   28 am   BACKBONE|DICT|INTERRES
    55   27  106 1    
    56   28   29 2    
    57   28   30 1    
    58   30   31 1    
    59   30   32 1    
    60   30  107 1    
    61   31  108 1    
    62   31  109 1    
    63   31  110 1    
    64   32   33 am   BACKBONE|DICT|INTERRES
    65   32  111 1    
    66   33   34 2    
    67   33   35 1    
    68   35   36 1    
    69   35   37 1    
    70   35  112 1    
    71   36  113 1    
    72   36  114 1    
    73   36  115 1    
    74   37   38 am   BACKBONE|DICT|INTERRES
    75   37  116 1    
    76   38   39 2    
    77   38   40 1    
    78   40   41 1    
    79   40   42 1    
    80   40  117 1    
    81   41  118 1    
    82   41  119 1    
    83   41  120 1    
    84   42   43 am   BACKBONE|DICT|INTERRES
    85   42  121 1    
    86   43   44 2    
    87   43   45 1    
    88   45   46 1    
    89   45   47 1    
    90   45  122 1    
    91   46  123 1    
    92   46  124 1    
    93   46  125 1    
    94   47   48 am   BACKBONE|DICT|INTERRES
    95   47  126 1    
    96   48   49 2    
    97   48   50 1    
    98   50   51 1    
    99   50   52 1    
   100   50  127 1    
   101   51  128 1    
   102   51  129 1    
   103   51  130 1    
   104   52   53 am   BACKBONE|DICT|INTERRES
   105   52  131 1    
   106   53   54 2    
   107   53   55 1    
   108   55   56 1    
   109   55   59 1    
   110   55  132 1    
   111   56   57 1    
   112   56  133 1    
   113   56  134 1    
   114   57   58 1    
   115   58  135 1    
   116   58  136 1    
   117   59   60 am   BACKBONE|DICT|INTERRES
   118   59  137 1    
   119   60   61 2    
   120   60   62 1    
   121   62   63 1    
   122   62   64 1    
   123   62  138 1    
   124   63  139 1    
   125   63  140 1    
   126   63  141 1    
   127   64   65 am   BACKBONE|DICT|INTERRES
   128   64  142 1    
   129   65   66 2    
   130   65   67 1    
   131   67   68 1    
   132   67   69 1    
   133   67  143 1    
   134   68  144 1    
   135   68  145 1    
   136   68  146 1    
   137   69   70 am   BACKBONE|DICT|INTERRES
   138   69  147 1    
   139   70   71 2    
   140   70   72 1    
   141   72   73 1    
   142   72   74 1    
   143   72  148 1    
   144   73  149 1    
   145   73  150 1    
   146   73  151 1    
   147   74   75 am   BACKBONE|DICT|INTERRES
   148   74  152 1    
   149   75   76 2    
   150   75   77 1    
   151   77   78 1    
   152   77   79 1    
   153   77  153 1    
   154   78  154 1    
   155   78  155 1    
   156   78  156 1    
   157   79   80 am   BACKBONE|DICT|INTERRES
   158   79  157 1    
   159   80   81 2    
@<TRIPOS>SUBSTRUCTURE
     1 UNK         1 GROUP             0       ****    0 ROOT    
