@<TRIPOS>MOLECULE
3R207
157   159    1
SMALL
USER_CHARGES


@<TRIPOS>ATOM
      1 CA        -47.3987  -27.9487    5.6132 C.3       0 UNK        -0.1975 
      2 C         -48.2045  -26.7114    5.9779 C.2       0 UNK         0.4852 
      3 O         -48.2045  -26.3244    7.1480 O.2       0 UNK        -0.5216 
      4 N         -48.8495  -26.0920    4.9746 N.am      1 UNK        -0.4461 
      5 CA        -49.8217  -24.9797    5.0150 C.3       1 UNK         0.0864 
      6 C6        -51.2996  -25.4670    5.0389 C.3       14 UNK        -0.0898 
      7 S7        -51.7675  -26.4855    6.4815 S.3       14 UNK        -0.2598 
      8 C8        -51.9750  -28.1107    5.6906 C.3       14 UNK         0.0286 
      9 C9        -52.3761  -29.1693    6.7045 C.ar      14 UNK        -0.0844 
     10 C10       -51.4069  -29.7382    7.5350 C.ar      14 UNK        -0.0881 
     11 C11       -51.7671  -30.7006    8.4819 C.ar      14 UNK        -0.0643 
     12 C12       -53.0914  -31.1325    8.5577 C.ar      14 UNK        -0.0930 
     13 C13       -54.0772  -30.5357    7.7708 C.ar      14 UNK        -0.0827 
     14 C14       -53.7133  -29.5620    6.8342 C.ar      14 UNK        -0.1249 
     15 C15       -55.5368  -30.9102    7.9777 C.3       14 UNK         0.0141 
     16 S16       -56.2569  -30.0062    9.3903 S.3       14 UNK        -0.2313 
     17 C17       -55.5933  -30.9370   10.8167 C.3       14 UNK        -0.0915 
     18 CA        -56.2615  -30.5253   12.1549 C.3       13 UNK         0.0968 
     19 C         -55.9683  -31.5403   13.3014 C.2       13 UNK         0.5732 
     20 N         -55.6048  -31.1165   14.5071 N.am      13 UNK        -0.7310 
     21 O         -56.0893  -32.7466   13.1005 O.2       13 UNK        -0.5035 
     22 N         -55.9270  -29.1357   12.5004 N.am      13 UNK        -0.4233 
     23 C         -56.7467  -28.2839   13.1209 C.2       13 UNK         0.4989 
     24 O         -57.9105  -28.5486   13.4304 O.2       13 UNK        -0.4996 
     25 CA        -56.1408  -26.9101   13.4612 C.3       12 UNK         0.0216 
     26 CB        -57.1270  -25.9958   14.2187 C.3       12 UNK        -0.1964 
     27 N         -54.8689  -26.9842   14.1953 N.am      12 UNK        -0.4276 
     28 C         -54.6277  -27.6151   15.3570 C.2       12 UNK         0.5020 
     29 O         -55.3948  -28.4352   15.8625 O.2       12 UNK        -0.5489 
     30 CA        -53.3333  -27.2513   16.1161 C.3       11 UNK         0.0294 
     31 CB        -52.3056  -28.3941   16.1017 C.3       11 UNK        -0.2019 
     32 N         -52.7094  -25.9975   15.6725 N.am      11 UNK        -0.4493 
     33 C         -53.2396  -24.7848   15.9042 C.2       11 UNK         0.4932 
     34 O         -54.2912  -24.6145   16.5241 O.2       11 UNK        -0.5029 
     35 CA        -52.4835  -23.5631   15.3449 C.3       10 UNK         0.0280 
     36 CB        -52.9438  -22.2313   15.9744 C.3       10 UNK        -0.1976 
     37 N         -51.0253  -23.6838   15.4186 N.am      10 UNK        -0.4242 
     38 C         -50.2677  -23.9028   16.5070 C.2       10 UNK         0.5072 
     39 O         -50.7191  -24.0116   17.6479 O.2       10 UNK        -0.5224 
     40 CA        -48.7471  -24.0268   16.2925 C.3       9 UNK         0.0343 
     41 CB        -48.1878  -25.2962   16.9613 C.3       9 UNK        -0.2003 
     42 N         -48.4096  -24.0458   14.8659 N.am      9 UNK        -0.4272 
     43 C         -47.7900  -23.0527   14.2147 C.2       9 UNK         0.4988 
     44 O         -47.3396  -22.0467   14.7637 O.2       9 UNK        -0.5108 
     45 CA        -47.6617  -23.1830   12.6878 C.3       8 UNK         0.0248 
     46 CB        -46.3113  -23.8127   12.3090 C.3       8 UNK        -0.2001 
     47 N         -48.7461  -23.9303   12.0421 N.am      8 UNK        -0.4140 
     48 C         -50.0269  -23.5380   11.9796 C.2       8 UNK         0.5028 
     49 O         -50.4743  -22.5765   12.6031 O.2       8 UNK        -0.5428 
     50 CA        -50.9694  -24.3540   11.0844 C.3       7 UNK         0.0264 
     51 CB        -50.6727  -24.0775    9.6031 C.3       7 UNK        -0.1988 
     52 N         -50.8307  -25.7850   11.3354 N.am      7 UNK        -0.4454 
     53 C         -51.7487  -26.5525   11.9378 C.2       7 UNK         0.5027 
     54 O         -52.8426  -26.1452   12.3326 O.2       7 UNK        -0.5083 
     55 CA        -51.3548  -28.0234   12.1975 C.3       6 UNK         0.0844 
     56 C56       -51.5838  -28.8765   10.9293 C.3       14 UNK        -0.0967 
     57 S57       -51.1881  -30.6464   11.1869 S.3       14 UNK        -0.2604 
     58 C58       -50.7554  -31.1999    9.4993 C.3       14 UNK         0.0134 
     59 N         -49.9803  -28.1712   12.6796 N.am      6 UNK        -0.4116 
     60 C         -49.3499  -27.4568   13.6198 C.2       5 UNK         0.5034 
     61 O         -49.8941  -26.6200   14.3421 O.2       5 UNK        -0.5045 
     62 CA        -47.8236  -27.6496   13.6930 C.3       5 UNK         0.0224 
     63 CB        -47.4705  -28.6804   14.7759 C.3       5 UNK        -0.1978 
     64 N         -47.1938  -28.0420   12.4180 N.am      5 UNK        -0.4737 
     65 C         -47.3108  -27.3907   11.2503 C.2       4 UNK         0.5027 
     66 O         -48.0203  -26.3951   11.0876 O.2       4 UNK        -0.5211 
     67 CA        -46.5792  -27.9857   10.0429 C.3       4 UNK         0.0297 
     68 CB        -47.4897  -28.9883    9.3186 C.3       4 UNK        -0.1993 
     69 N         -46.2112  -26.9171    9.1149 N.am      4 UNK        -0.4486 
     70 C         -45.1289  -26.1424    9.2690 C.2       3 UNK         0.4961 
     71 O         -44.2866  -26.3213   10.1497 O.2       3 UNK        -0.5105 
     72 CA        -44.9394  -24.9694    8.2987 C.3       3 UNK         0.0299 
     73 CB        -44.1597  -25.4111    7.0480 C.3       3 UNK        -0.1972 
     74 N         -46.2052  -24.3461    7.9012 N.am      3 UNK        -0.4305 
     75 C         -46.3735  -23.0268    7.7288 C.2       2 UNK         0.5006 
     76 O         -45.4908  -22.1930    7.9392 O.2       2 UNK        -0.5106 
     77 CA        -47.7395  -22.5653    7.1942 C.3       2 UNK         0.0296 
     78 CB        -47.7116  -21.1448    6.5939 C.3       2 UNK        -0.2002 
     79 N         -48.2347  -23.5201    6.2035 N.am      2 UNK        -0.4032 
     80 C         -49.5225  -23.8163    5.9946 C.2       1 UNK         0.5000 
     81 O         -50.4489  -23.1950    6.5193 O.2       1 UNK        -0.5238 
     82 H82       -47.2977  -28.0681    4.5347 H         1 UNK         0.0889 
     83 H83       -47.8872  -28.8382    6.0096 H         1 UNK         0.0889 
     84 H84       -46.3989  -27.8921    6.0416 H         1 UNK         0.0889 
     85 H85       -48.7240  -26.4755    4.0480 H         1 UNK         0.3028 
     86 H86       -49.6990  -24.5006    4.0421 H         1 UNK         0.0864 
     87 H87       -51.4970  -26.0356    4.1292 H         1 UNK         0.0720 
     88 H88       -51.9863  -24.6201    4.9874 H         1 UNK         0.0720 
     89 H89       -51.0417  -28.4001    5.2049 H         1 UNK         0.0814 
     90 H90       -52.7261  -28.0382    4.9025 H         1 UNK         0.0814 
     91 H91       -50.3824  -29.3978    7.4700 H         1 UNK         0.1469 
     92 H92       -53.3629  -31.8807    9.2888 H         1 UNK         0.1381 
     93 H93       -54.4725  -29.0960    6.2208 H         1 UNK         0.1206 
     94 H94       -55.6369  -31.9858    8.1308 H         1 UNK         0.0813 
     95 H95       -56.1128  -30.6756    7.0813 H         1 UNK         0.0813 
     96 H96       -54.5172  -30.7776   10.8846 H         1 UNK         0.0638 
     97 H97       -55.7428  -31.9990   10.6139 H         1 UNK         0.0638 
     98 H98       -57.3402  -30.5922   12.0022 H         1 UNK         0.0568 
     99 H99       -55.5631  -30.1299   14.7355 H         1 UNK         0.3450 
    100 H100      -55.4298  -31.7989   15.2269 H         1 UNK         0.3450 
    101 H101      -54.9825  -28.8434   12.3031 H         1 UNK         0.2987 
    102 H102      -55.9161  -26.4309   12.5068 H         1 UNK         0.0766 
    103 H103      -57.4097  -26.4200   15.1830 H         1 UNK         0.0798 
    104 H104      -58.0430  -25.8451   13.6460 H         1 UNK         0.0798 
    105 H105      -56.6940  -25.0122   14.4020 H         1 UNK         0.0798 
    106 H106      -54.1172  -26.4255   13.7995 H         1 UNK         0.3198 
    107 H107      -53.6304  -27.1107   17.1579 H         1 UNK         0.0843 
    108 H108      -51.9033  -28.5805   15.1108 H         1 UNK         0.0831 
    109 H109      -52.7536  -29.3257   16.4503 H         1 UNK         0.0831 
    110 H110      -51.4656  -28.1743   16.7609 H         1 UNK         0.0831 
    111 H111      -51.8270  -26.0665   15.1765 H         1 UNK         0.3133 
    112 H112      -52.7266  -23.5248   14.2819 H         1 UNK         0.0566 
    113 H113      -54.0099  -22.0675   15.8126 H         1 UNK         0.0814 
    114 H114      -52.7707  -22.2130   17.0510 H         1 UNK         0.0814 
    115 H115      -52.4182  -21.3835   15.5350 H         1 UNK         0.0814 
    116 H116      -50.5476  -23.5439   14.5366 H         1 UNK         0.3091 
    117 H117      -48.2913  -23.1638   16.7817 H         1 UNK         0.0702 
    118 H118      -47.1224  -25.4143   16.7638 H         1 UNK         0.0785 
    119 H119      -48.6966  -26.1959   16.6171 H         1 UNK         0.0785 
    120 H120      -48.3124  -25.2516   18.0439 H         1 UNK         0.0785 
    121 H121      -48.7722  -24.8340   14.3427 H         1 UNK         0.2998 
    122 H122      -47.6838  -22.1707   12.2786 H         1 UNK         0.0697 
    123 H123      -46.2216  -24.8345   12.6782 H         1 UNK         0.0825 
    124 H124      -45.4821  -23.2415   12.7286 H         1 UNK         0.0825 
    125 H125      -46.1729  -23.8347   11.2278 H         1 UNK         0.0825 
    126 H126      -48.4686  -24.7792   11.5494 H         1 UNK         0.3029 
    127 H127      -51.9901  -24.0248   11.2918 H         1 UNK         0.0897 
    128 H128      -49.6830  -24.4309    9.3096 H         1 UNK         0.0792 
    129 H129      -50.7200  -23.0101    9.3834 H         1 UNK         0.0792 
    130 H130      -51.4002  -24.5702    8.9578 H         1 UNK         0.0792 
    131 H131      -49.9269  -26.1926   11.1102 H         1 UNK         0.3086 
    132 H132      -52.0213  -28.4026   12.9697 H         1 UNK         0.0583 
    133 H133      -50.9767  -28.4939   10.1061 H         1 UNK         0.1020 
    134 H134      -52.6225  -28.8058   10.5988 H         1 UNK         0.1020 
    135 H135      -50.7201  -32.2899    9.4765 H         1 UNK         0.0694 
    136 H136      -49.7530  -30.8527    9.2506 H         1 UNK         0.0694 
    137 H137      -49.4262  -28.8458   12.1739 H         1 UNK         0.2989 
    138 H138      -47.3936  -26.6897   13.9840 H         1 UNK         0.1055 
    139 H139      -47.9157  -28.4113   15.7349 H         1 UNK         0.0806 
    140 H140      -46.3930  -28.7421   14.9296 H         1 UNK         0.0806 
    141 H141      -47.8317  -29.6771   14.5189 H         1 UNK         0.0806 
    142 H142      -46.6008  -28.8598   12.4496 H         1 UNK         0.3061 
    143 H143      -45.6799  -28.5047   10.3820 H         1 UNK         0.0734 
    144 H144      -46.9966  -29.4109    8.4433 H         1 UNK         0.0832 
    145 H145      -47.7483  -29.8193    9.9754 H         1 UNK         0.0832 
    146 H146      -48.4208  -28.5245    8.9888 H         1 UNK         0.0832 
    147 H147      -46.9057  -26.6929    8.4075 H         1 UNK         0.3156 
    148 H148      -44.3296  -24.2376    8.8332 H         1 UNK         0.0589 
    149 H149      -44.7280  -26.1208    6.4467 H         1 UNK         0.0808 
    150 H150      -43.9127  -24.5587    6.4150 H         1 UNK         0.0808 
    151 H151      -43.2199  -25.8924    7.3221 H         1 UNK         0.0808 
    152 H152      -46.9975  -24.9637    7.7435 H         1 UNK         0.3098 
    153 H153      -48.4122  -22.5605    8.0543 H         1 UNK         0.0720 
    154 H154      -48.7014  -20.8367    6.2568 H         1 UNK         0.0791 
    155 H155      -47.0329  -21.0830    5.7425 H         1 UNK         0.0791 
    156 H156      -47.3822  -20.4120    7.3316 H         1 UNK         0.0791 
    157 H157      -47.5331  -24.0627    5.7190 H         1 UNK         0.3028 
@<TRIPOS>BOND
     1    1    2 1    
     2    1   82 1    
     3    1   83 1    
     4    1   84 1    
     5    2    3 2    
     6    2    4 am   BACKBONE|DICT|INTERRES
     7    4    5 1    
     8    4   85 1    
     9    5    6 1    
    10    5   80 1    
    11    5   86 1    
    12    6    7 1    
    13    6   87 1    
    14    6   88 1    
    15    7    8 1    
    16    8    9 1    
    17    8   89 1    
    18    8   90 1    
    19    9   10 ar   
    20    9   14 ar   
    21   10   11 ar   
    22   10   91 1    
    23   11   12 ar   
    24   11   58 1    
    25   12   13 ar   
    26   12   92 1    
    27   13   14 ar   
    28   13   15 1    
    29   14   93 1    
    30   15   16 1    
    31   15   94 1    
    32   15   95 1    
    33   16   17 1    
    34   17   18 1    
    35   17   96 1    
    36   17   97 1    
    37   18   19 1    
    38   18   22 1    
    39   18   98 1    
    40   19   20 am   BACKBONE|DICT|INTERRES
    41   19   21 2    
    42   20   99 1    
    43   20  100 1    
    44   22   23 am   BACKBONE|DICT|INTERRES
    45   22  101 1    
    46   23   24 2    
    47   23   25 1    
    48   25   26 1    
    49   25   27 1    
    50   25  102 1    
    51   26  103 1    
    52   26  104 1    
    53   26  105 1    
    54   27   28 am   BACKBONE|DICT|INTERRES
    55   27  106 1    
    56   28   29 2    
    57   28   30 1    
    58   30   31 1    
    59   30   32 1    
    60   30  107 1    
    61   31  108 1    
    62   31  109 1    
    63   31  110 1    
    64   32   33 am   BACKBONE|DICT|INTERRES
    65   32  111 1    
    66   33   34 2    
    67   33   35 1    
    68   35   36 1    
    69   35   37 1    
    70   35  112 1    
    71   36  113 1    
    72   36  114 1    
    73   36  115 1    
    74   37   38 am   BACKBONE|DICT|INTERRES
    75   37  116 1    
    76   38   39 2    
    77   38   40 1    
    78   40   41 1    
    79   40   42 1    
    80   40  117 1    
    81   41  118 1    
    82   41  119 1    
    83   41  120 1    
    84   42   43 am   BACKBONE|DICT|INTERRES
    85   42  121 1    
    86   43   44 2    
    87   43   45 1    
    88   45   46 1    
    89   45   47 1    
    90   45  122 1    
    91   46  123 1    
    92   46  124 1    
    93   46  125 1    
    94   47   48 am   BACKBONE|DICT|INTERRES
    95   47  126 1    
    96   48   49 2    
    97   48   50 1    
    98   50   51 1    
    99   50   52 1    
   100   50  127 1    
   101   51  128 1    
   102   51  129 1    
   103   51  130 1    
   104   52   53 am   BACKBONE|DICT|INTERRES
   105   52  131 1    
   106   53   54 2    
   107   53   55 1    
   108   55   56 1    
   109   55   59 1    
   110   55  132 1    
   111   56   57 1    
   112   56  133 1    
   113   56  134 1    
   114   57   58 1    
   115   58  135 1    
   116   58  136 1    
   117   59   60 am   BACKBONE|DICT|INTERRES
   118   59  137 1    
   119   60   61 2    
   120   60   62 1    
   121   62   63 1    
   122   62   64 1    
   123   62  138 1    
   124   63  139 1    
   125   63  140 1    
   126   63  141 1    
   127   64   65 am   BACKBONE|DICT|INTERRES
   128   64  142 1    
   129   65   66 2    
   130   65   67 1    
   131   67   68 1    
   132   67   69 1    
   133   67  143 1    
   134   68  144 1    
   135   68  145 1    
   136   68  146 1    
   137   69   70 am   BACKBONE|DICT|INTERRES
   138   69  147 1    
   139   70   71 2    
   140   70   72 1    
   141   72   73 1    
   142   72   74 1    
   143   72  148 1    
   144   73  149 1    
   145   73  150 1    
   146   73  151 1    
   147   74   75 am   BACKBONE|DICT|INTERRES
   148   74  152 1    
   149   75   76 2    
   150   75   77 1    
   151   77   78 1    
   152   77   79 1    
   153   77  153 1    
   154   78  154 1    
   155   78  155 1    
   156   78  156 1    
   157   79   80 am   BACKBONE|DICT|INTERRES
   158   79  157 1    
   159   80   81 2    
@<TRIPOS>SUBSTRUCTURE
     1 UNK         1 GROUP             0       ****    0 ROOT    
