@<TRIPOS>MOLECULE
3R207
157   159    1
SMALL
USER_CHARGES


@<TRIPOS>ATOM
      1 CA        -45.4244  -27.5612   10.7264 C.3       0 UNK        -0.1975 
      2 C         -46.7682  -28.2694   10.6347 C.2       0 UNK         0.4852 
      3 O         -46.8265  -29.4952   10.7438 O.2       0 UNK        -0.5216 
      4 N         -47.8428  -27.5014   10.4380 N.am      1 UNK        -0.4461 
      5 CA        -49.2079  -27.9833   10.2291 C.3       1 UNK         0.0864 
      6 C6        -50.2440  -26.9313   10.6889 C.3       14 UNK        -0.0898 
      7 S7        -50.0855  -26.4774   12.4501 S.3       14 UNK        -0.2598 
      8 C8        -51.7794  -25.9644   12.8816 C.3       14 UNK         0.0286 
      9 C9        -52.3273  -24.9360   11.9064 C.ar      14 UNK        -0.0844 
     10 C10       -52.0211  -23.5812   12.0503 C.ar      14 UNK        -0.0881 
     11 C11       -52.4591  -22.6561   11.0984 C.ar      14 UNK        -0.0643 
     12 C12       -53.2174  -23.0966   10.0078 C.ar      14 UNK        -0.0930 
     13 C13       -53.5487  -24.4482    9.8609 C.ar      14 UNK        -0.0827 
     14 C14       -53.1168  -25.3552   10.8342 C.ar      14 UNK        -0.1249 
     15 C15       -54.3590  -24.8827    8.6374 C.3       14 UNK         0.0141 
     16 S16       -54.2439  -26.6575    8.2128 S.3       14 UNK        -0.2313 
     17 C17       -55.6467  -27.3428    9.1628 C.3       14 UNK        -0.0915 
     18 CA        -55.7224  -28.8983    9.3035 C.3       13 UNK         0.0968 
     19 C         -55.4489  -29.7324    8.0117 C.2       13 UNK         0.5732 
     20 N         -55.8613  -29.2490    6.8474 N.am      13 UNK        -0.7310 
     21 O         -54.9277  -30.8456    8.0566 O.2       13 UNK        -0.5035 
     22 N         -55.0612  -29.4069   10.5173 N.am      13 UNK        -0.4233 
     23 C         -53.7471  -29.5542   10.7297 C.2       13 UNK         0.4989 
     24 O         -52.8691  -29.1904    9.9493 O.2       13 UNK        -0.4996 
     25 CA        -53.3526  -30.2317   12.0506 C.3       12 UNK         0.0216 
     26 CB        -51.8524  -30.1081   12.3835 C.3       12 UNK        -0.1964 
     27 N         -54.1520  -29.7070   13.1581 N.am      12 UNK        -0.4276 
     28 C         -54.6451  -30.4343   14.1659 C.2       12 UNK         0.5020 
     29 O         -54.4890  -31.6525   14.2716 O.2       12 UNK        -0.5489 
     30 CA        -55.4245  -29.6575   15.2430 C.3       11 UNK         0.0294 
     31 CB        -56.0256  -30.5765   16.3229 C.3       11 UNK        -0.2019 
     32 N         -54.5671  -28.6669   15.8936 N.am      11 UNK        -0.4493 
     33 C         -54.2744  -27.4511   15.4221 C.2       11 UNK         0.4932 
     34 O         -54.7055  -27.0200   14.3526 O.2       11 UNK        -0.5029 
     35 CA        -53.3253  -26.5831   16.2682 C.3       10 UNK         0.0280 
     36 CB        -53.9078  -26.2955   17.6668 C.3       10 UNK        -0.1976 
     37 N         -51.9551  -27.1085   16.3560 N.am      10 UNK        -0.4242 
     38 C         -51.5332  -28.2642   16.8955 C.2       10 UNK         0.5072 
     39 O         -52.2728  -29.1001   17.4178 O.2       10 UNK        -0.5224 
     40 CA        -50.0168  -28.5298   16.8631 C.3       9 UNK         0.0343 
     41 CB        -49.6318  -29.2564   15.5636 C.3       9 UNK        -0.2003 
     42 N         -49.2028  -27.3181   16.9994 N.am      9 UNK        -0.4272 
     43 C         -49.2059  -26.4929   18.0576 C.2       9 UNK         0.4988 
     44 O         -49.8675  -26.6995   19.0758 O.2       9 UNK        -0.5108 
     45 CA        -48.3283  -25.2248   17.9913 C.3       8 UNK         0.0248 
     46 CB        -47.2723  -25.2378   19.1109 C.3       8 UNK        -0.2001 
     47 N         -47.6503  -24.9909   16.7101 N.am      8 UNK        -0.4140 
     48 C         -48.2464  -24.6839   15.5511 C.2       8 UNK         0.5028 
     49 O         -49.4703  -24.6223   15.4006 O.2       8 UNK        -0.5428 
     50 CA        -47.3079  -24.4339   14.3638 C.3       7 UNK         0.0264 
     51 CB        -46.5899  -25.7251   13.9235 C.3       7 UNK        -0.1988 
     52 N         -48.0816  -23.9059   13.2461 N.am      7 UNK        -0.4454 
     53 C         -47.6261  -23.0636   12.3158 C.2       7 UNK         0.5027 
     54 O         -46.4805  -22.6049   12.3055 O.2       7 UNK        -0.5083 
     55 CA        -48.6278  -22.6385   11.2236 C.3       6 UNK         0.0844 
     56 C56       -49.2964  -21.2924   11.5956 C.3       14 UNK        -0.0967 
     57 S57       -50.5586  -20.7648   10.3854 S.3       14 UNK        -0.2604 
     58 C58       -52.1132  -21.1811   11.2399 C.3       14 UNK         0.0134 
     59 N         -47.9651  -22.5918    9.9173 N.am      6 UNK        -0.4116 
     60 C         -47.5550  -23.6783    9.2552 C.2       5 UNK         0.5034 
     61 O         -47.7273  -24.8324    9.6535 O.2       5 UNK        -0.5045 
     62 CA        -46.8130  -23.4564    7.9359 C.3       5 UNK         0.0224 
     63 CB        -45.2915  -23.4066    8.1724 C.3       5 UNK        -0.1978 
     64 N         -47.1608  -24.5658    7.0548 N.am      5 UNK        -0.4737 
     65 C         -46.9764  -24.6219    5.7326 C.2       4 UNK         0.5027 
     66 O         -46.4194  -23.7434    5.0740 O.2       4 UNK        -0.5211 
     67 CA        -47.5437  -25.8623    5.0274 C.3       4 UNK         0.0297 
     68 CB        -46.6277  -27.0796    5.2357 C.3       4 UNK        -0.1993 
     69 N         -48.8948  -26.1701    5.5037 N.am      4 UNK        -0.4486 
     70 C         -49.9991  -25.5181    5.1053 C.2       3 UNK         0.4961 
     71 O         -49.9788  -24.6158    4.2664 O.2       3 UNK        -0.5105 
     72 CA        -51.3510  -25.9038    5.7477 C.3       3 UNK         0.0299 
     73 CB        -52.5088  -25.8949    4.7271 C.3       3 UNK        -0.1972 
     74 N         -51.3305  -27.1605    6.5036 N.am      3 UNK        -0.4305 
     75 C         -51.0825  -28.3985    6.0497 C.2       2 UNK         0.5006 
     76 O         -50.9159  -28.6744    4.8605 O.2       2 UNK        -0.5106 
     77 CA        -50.9606  -29.5066    7.1179 C.3       2 UNK         0.0296 
     78 CB        -50.0518  -30.6664    6.6585 C.3       2 UNK        -0.2002 
     79 N         -50.5337  -29.0245    8.4415 N.am      2 UNK        -0.4032 
     80 C         -49.4182  -28.3389    8.7409 C.2       1 UNK         0.5000 
     81 O         -48.6128  -27.9497    7.8878 O.2       1 UNK        -0.5238 
     82 H82       -44.9669  -27.7478   11.6975 H         1 UNK         0.0889 
     83 H83       -45.5259  -26.4830   10.5998 H         1 UNK         0.0889 
     84 H84       -44.7519  -27.9309    9.9530 H         1 UNK         0.0889 
     85 H85       -47.7267  -26.5005   10.2839 H         1 UNK         0.3028 
     86 H86       -49.3553  -28.8935   10.8140 H         1 UNK         0.0864 
     87 H87       -50.1670  -26.0190   10.0939 H         1 UNK         0.0720 
     88 H88       -51.2492  -27.3162   10.5330 H         1 UNK         0.0720 
     89 H89       -51.7727  -25.5465   13.8876 H         1 UNK         0.0814 
     90 H90       -52.4243  -26.8427   12.9121 H         1 UNK         0.0814 
     91 H91       -51.4230  -23.2529   12.8889 H         1 UNK         0.1469 
     92 H92       -53.5451  -22.3815    9.2655 H         1 UNK         0.1381 
     93 H93       -53.3586  -26.4042   10.7492 H         1 UNK         0.1206 
     94 H94       -55.4043  -24.6069    8.7820 H         1 UNK         0.0813 
     95 H95       -54.0119  -24.3214    7.7687 H         1 UNK         0.0813 
     96 H96       -56.5545  -26.9899    8.6712 H         1 UNK         0.0638 
     97 H97       -55.6626  -26.8802   10.1507 H         1 UNK         0.0638 
     98 H98       -56.7710  -29.1173    9.5074 H         1 UNK         0.0568 
     99 H99       -56.2819  -28.3355    6.7882 H         1 UNK         0.3450 
    100 H100      -55.7144  -29.7915    6.0114 H         1 UNK         0.3450 
    101 H101      -55.6874  -29.7740   11.2182 H         1 UNK         0.2987 
    102 H102      -53.5756  -31.2916   11.9105 H         1 UNK         0.0766 
    103 H103      -51.5553  -29.0704   12.5247 H         1 UNK         0.0798 
    104 H104      -51.2356  -30.5236   11.5860 H         1 UNK         0.0798 
    105 H105      -51.6055  -30.6517   13.2953 H         1 UNK         0.0798 
    106 H106      -54.3277  -28.7064   13.1666 H         1 UNK         0.3198 
    107 H107      -56.2503  -29.1449   14.7445 H         1 UNK         0.0843 
    108 H108      -55.2518  -31.1169   16.8698 H         1 UNK         0.0831 
    109 H109      -56.6912  -31.3181   15.8791 H         1 UNK         0.0831 
    110 H110      -56.6117  -30.0084   17.0454 H         1 UNK         0.0831 
    111 H111      -54.0346  -28.9796   16.7022 H         1 UNK         0.3133 
    112 H112      -53.2437  -25.6224   15.7579 H         1 UNK         0.0566 
    113 H113      -54.0004  -27.1973   18.2725 H         1 UNK         0.0814 
    114 H114      -54.9019  -25.8530   17.5908 H         1 UNK         0.0814 
    115 H115      -53.2817  -25.5919   18.2155 H         1 UNK         0.0814 
    116 H116      -51.2406  -26.5067   15.9665 H         1 UNK         0.3091 
    117 H117      -49.7796  -29.1827   17.7056 H         1 UNK         0.0702 
    118 H118      -48.5766  -29.5297   15.5578 H         1 UNK         0.0785 
    119 H119      -49.8246  -28.6425   14.6828 H         1 UNK         0.0785 
    120 H120      -50.2038  -30.1783   15.4490 H         1 UNK         0.0785 
    121 H121      -48.6299  -27.0652   16.2084 H         1 UNK         0.2998 
    122 H122      -48.9954  -24.3781   18.1664 H         1 UNK         0.0697 
    123 H123      -46.5661  -26.0601   18.9893 H         1 UNK         0.0825 
    124 H124      -47.7382  -25.3521   20.0908 H         1 UNK         0.0825 
    125 H125      -46.7054  -24.3069   19.1350 H         1 UNK         0.0825 
    126 H126      -46.6413  -25.0378   16.7307 H         1 UNK         0.3029 
    127 H127      -46.5686  -23.6932   14.6771 H         1 UNK         0.0897 
    128 H128      -47.2970  -26.4996   13.6244 H         1 UNK         0.0792 
    129 H129      -45.9738  -26.1349   14.7244 H         1 UNK         0.0792 
    130 H130      -45.9288  -25.5373   13.0774 H         1 UNK         0.0792 
    131 H131      -49.0439  -24.2233   13.2281 H         1 UNK         0.3086 
    132 H132      -49.4055  -23.4025   11.1635 H         1 UNK         0.0583 
    133 H133      -49.7503  -21.3491   12.5866 H         1 UNK         0.1020 
    134 H134      -48.5455  -20.5023   11.6618 H         1 UNK         0.1020 
    135 H135      -52.0546  -20.8974   12.2918 H         1 UNK         0.0694 
    136 H136      -52.9148  -20.5767   10.8126 H         1 UNK         0.0694 
    137 H137      -47.7715  -21.6739    9.5461 H         1 UNK         0.2989 
    138 H138      -47.1521  -22.5223    7.4827 H         1 UNK         0.1055 
    139 H139      -44.9214  -24.3404    8.5979 H         1 UNK         0.0806 
    140 H140      -45.0295  -22.6058    8.8653 H         1 UNK         0.0806 
    141 H141      -44.7469  -23.2220    7.2465 H         1 UNK         0.0806 
    142 H142      -47.6314  -25.3320    7.5232 H         1 UNK         0.3061 
    143 H143      -47.5868  -25.6539    3.9560 H         1 UNK         0.0734 
    144 H144      -46.5198  -27.3340    6.2908 H         1 UNK         0.0832 
    145 H145      -47.0132  -27.9583    4.7184 H         1 UNK         0.0832 
    146 H146      -45.6282  -26.8845    4.8448 H         1 UNK         0.0832 
    147 H147      -48.9719  -26.8834    6.2236 H         1 UNK         0.3156 
    148 H148      -51.5606  -25.1259    6.4834 H         1 UNK         0.0589 
    149 H149      -53.4563  -26.1544    5.1992 H         1 UNK         0.0808 
    150 H150      -52.6319  -24.9071    4.2816 H         1 UNK         0.0808 
    151 H151      -52.3360  -26.5983    3.9122 H         1 UNK         0.0808 
    152 H152      -51.4835  -27.0636    7.4977 H         1 UNK         0.3098 
    153 H153      -51.9678  -29.9045    7.2526 H         1 UNK         0.0720 
    154 H154      -49.0365  -30.3247    6.4535 H         1 UNK         0.0791 
    155 H155      -50.4318  -31.1272    5.7459 H         1 UNK         0.0791 
    156 H156      -49.9963  -31.4494    7.4146 H         1 UNK         0.0791 
    157 H157      -51.2183  -29.1924    9.1786 H         1 UNK         0.3028 
@<TRIPOS>BOND
     1    1    2 1    
     2    1   82 1    
     3    1   83 1    
     4    1   84 1    
     5    2    3 2    
     6    2    4 am   BACKBONE|DICT|INTERRES
     7    4    5 1    
     8    4   85 1    
     9    5    6 1    
    10    5   80 1    
    11    5   86 1    
    12    6    7 1    
    13    6   87 1    
    14    6   88 1    
    15    7    8 1    
    16    8    9 1    
    17    8   89 1    
    18    8   90 1    
    19    9   10 ar   
    20    9   14 ar   
    21   10   11 ar   
    22   10   91 1    
    23   11   12 ar   
    24   11   58 1    
    25   12   13 ar   
    26   12   92 1    
    27   13   14 ar   
    28   13   15 1    
    29   14   93 1    
    30   15   16 1    
    31   15   94 1    
    32   15   95 1    
    33   16   17 1    
    34   17   18 1    
    35   17   96 1    
    36   17   97 1    
    37   18   19 1    
    38   18   22 1    
    39   18   98 1    
    40   19   20 am   BACKBONE|DICT|INTERRES
    41   19   21 2    
    42   20   99 1    
    43   20  100 1    
    44   22   23 am   BACKBONE|DICT|INTERRES
    45   22  101 1    
    46   23   24 2    
    47   23   25 1    
    48   25   26 1    
    49   25   27 1    
    50   25  102 1    
    51   26  103 1    
    52   26  104 1    
    53   26  105 1    
    54   27   28 am   BACKBONE|DICT|INTERRES
    55   27  106 1    
    56   28   29 2    
    57   28   30 1    
    58   30   31 1    
    59   30   32 1    
    60   30  107 1    
    61   31  108 1    
    62   31  109 1    
    63   31  110 1    
    64   32   33 am   BACKBONE|DICT|INTERRES
    65   32  111 1    
    66   33   34 2    
    67   33   35 1    
    68   35   36 1    
    69   35   37 1    
    70   35  112 1    
    71   36  113 1    
    72   36  114 1    
    73   36  115 1    
    74   37   38 am   BACKBONE|DICT|INTERRES
    75   37  116 1    
    76   38   39 2    
    77   38   40 1    
    78   40   41 1    
    79   40   42 1    
    80   40  117 1    
    81   41  118 1    
    82   41  119 1    
    83   41  120 1    
    84   42   43 am   BACKBONE|DICT|INTERRES
    85   42  121 1    
    86   43   44 2    
    87   43   45 1    
    88   45   46 1    
    89   45   47 1    
    90   45  122 1    
    91   46  123 1    
    92   46  124 1    
    93   46  125 1    
    94   47   48 am   BACKBONE|DICT|INTERRES
    95   47  126 1    
    96   48   49 2    
    97   48   50 1    
    98   50   51 1    
    99   50   52 1    
   100   50  127 1    
   101   51  128 1    
   102   51  129 1    
   103   51  130 1    
   104   52   53 am   BACKBONE|DICT|INTERRES
   105   52  131 1    
   106   53   54 2    
   107   53   55 1    
   108   55   56 1    
   109   55   59 1    
   110   55  132 1    
   111   56   57 1    
   112   56  133 1    
   113   56  134 1    
   114   57   58 1    
   115   58  135 1    
   116   58  136 1    
   117   59   60 am   BACKBONE|DICT|INTERRES
   118   59  137 1    
   119   60   61 2    
   120   60   62 1    
   121   62   63 1    
   122   62   64 1    
   123   62  138 1    
   124   63  139 1    
   125   63  140 1    
   126   63  141 1    
   127   64   65 am   BACKBONE|DICT|INTERRES
   128   64  142 1    
   129   65   66 2    
   130   65   67 1    
   131   67   68 1    
   132   67   69 1    
   133   67  143 1    
   134   68  144 1    
   135   68  145 1    
   136   68  146 1    
   137   69   70 am   BACKBONE|DICT|INTERRES
   138   69  147 1    
   139   70   71 2    
   140   70   72 1    
   141   72   73 1    
   142   72   74 1    
   143   72  148 1    
   144   73  149 1    
   145   73  150 1    
   146   73  151 1    
   147   74   75 am   BACKBONE|DICT|INTERRES
   148   74  152 1    
   149   75   76 2    
   150   75   77 1    
   151   77   78 1    
   152   77   79 1    
   153   77  153 1    
   154   78  154 1    
   155   78  155 1    
   156   78  156 1    
   157   79   80 am   BACKBONE|DICT|INTERRES
   158   79  157 1    
   159   80   81 2    
@<TRIPOS>SUBSTRUCTURE
     1 UNK         1 GROUP             0       ****    0 ROOT    
