@<TRIPOS>MOLECULE
3R207
157   159    1
SMALL
USER_CHARGES


@<TRIPOS>ATOM
      1 CA        -54.2671  -22.6691    7.4217 C.3       0 UNK        -0.1975 
      2 C         -53.0410  -23.4339    7.8950 C.2       0 UNK         0.4852 
      3 O         -52.1007  -22.8283    8.4105 O.2       0 UNK        -0.5216 
      4 N         -53.0342  -24.7629    7.7143 N.am      1 UNK        -0.4461 
      5 CA        -51.9583  -25.6580    8.1574 C.3       1 UNK         0.0864 
      6 C6        -52.3912  -27.1408    8.1436 C.3       14 UNK        -0.0898 
      7 S7        -52.7088  -27.8537    6.4904 S.3       14 UNK        -0.2598 
      8 C8        -51.2359  -28.9191    6.2507 C.3       14 UNK         0.0286 
      9 C9        -50.9963  -29.9339    7.3705 C.ar      14 UNK        -0.0844 
     10 C10       -49.6915  -30.2044    7.7975 C.ar      14 UNK        -0.0881 
     11 C11       -49.4503  -31.1051    8.8414 C.ar      14 UNK        -0.0643 
     12 C12       -50.5325  -31.7334    9.4689 C.ar      14 UNK        -0.0930 
     13 C13       -51.8440  -31.4697    9.0573 C.ar      14 UNK        -0.0827 
     14 C14       -52.0621  -30.5944    7.9896 C.ar      14 UNK        -0.1249 
     15 C15       -53.0303  -32.1347    9.7471 C.3       14 UNK         0.0141 
     16 S16       -54.2571  -30.9195   10.3456 S.3       14 UNK        -0.2313 
     17 C17       -53.9904  -30.9373   12.1494 C.3       14 UNK        -0.0915 
     18 CA        -54.9300  -29.9473   12.9012 C.3       13 UNK         0.0968 
     19 C         -54.9801  -30.2314   14.4290 C.2       13 UNK         0.5732 
     20 N         -54.9822  -29.2337   15.3019 N.am      13 UNK        -0.7310 
     21 O         -55.0467  -31.3868   14.8419 O.2       13 UNK        -0.5035 
     22 N         -54.6253  -28.5415   12.5689 N.am      13 UNK        -0.4233 
     23 C         -55.3732  -27.7582   11.7811 C.2       13 UNK         0.4989 
     24 O         -56.4808  -28.0722   11.3406 O.2       13 UNK        -0.4996 
     25 CA        -54.7492  -26.4043   11.4027 C.3       12 UNK         0.0216 
     26 CB        -55.4896  -25.6791   10.2569 C.3       12 UNK        -0.1964 
     27 N         -54.5613  -25.5323   12.5650 N.am      12 UNK        -0.4276 
     28 C         -55.4962  -24.9041   13.2914 C.2       12 UNK         0.5020 
     29 O         -56.7089  -25.0011   13.0946 O.2       12 UNK        -0.5489 
     30 CA        -54.9713  -23.9794   14.4096 C.3       11 UNK         0.0294 
     31 CB        -56.0790  -23.5087   15.3774 C.3       11 UNK        -0.2019 
     32 N         -53.8312  -24.5369   15.1484 N.am      11 UNK        -0.4493 
     33 C         -53.8208  -25.6537   15.8945 C.2       11 UNK         0.4932 
     34 O         -54.8022  -26.3831   16.0343 O.2       11 UNK        -0.5029 
     35 CA        -52.4999  -26.0303   16.5956 C.3       10 UNK         0.0280 
     36 CB        -52.2620  -27.5514   16.5906 C.3       10 UNK        -0.1976 
     37 N         -51.3546  -25.3812   15.9599 N.am      10 UNK        -0.4242 
     38 C         -50.6186  -24.3891   16.4795 C.2       10 UNK         0.5072 
     39 O         -50.7968  -23.9202   17.6041 O.2       10 UNK        -0.5224 
     40 CA        -49.4952  -23.8058   15.5965 C.3       9 UNK         0.0343 
     41 CB        -48.1211  -24.3001   16.0787 C.3       9 UNK        -0.2003 
     42 N         -49.6349  -24.1206   14.1719 N.am      9 UNK        -0.4272 
     43 C         -50.6200  -23.6856   13.3734 C.2       9 UNK         0.4988 
     44 O         -51.5115  -22.9173   13.7344 O.2       9 UNK        -0.5108 
     45 CA        -50.6630  -24.2934   11.9624 C.3       8 UNK         0.0248 
     46 CB        -49.7690  -23.4953   11.0040 C.3       8 UNK        -0.2001 
     47 N         -50.2813  -25.7136   11.9463 N.am      8 UNK        -0.4140 
     48 C         -50.9846  -26.6732   12.5655 C.2       8 UNK         0.5028 
     49 O         -52.0006  -26.4400   13.2193 O.2       8 UNK        -0.5428 
     50 CA        -50.5172  -28.1245   12.4753 C.3       7 UNK         0.0264 
     51 CB        -51.0784  -28.8023   11.2228 C.3       7 UNK        -0.1988 
     52 N         -49.0672  -28.3000   12.5090 N.am      7 UNK        -0.4454 
     53 C         -48.4786  -29.3879   13.0324 C.2       7 UNK         0.5027 
     54 O         -49.0864  -30.2619   13.6540 O.2       7 UNK        -0.5083 
     55 CA        -46.9615  -29.5678   12.8080 C.3       6 UNK         0.0844 
     56 C56       -46.6854  -30.5798   11.6646 C.3       14 UNK        -0.0967 
     57 S57       -47.1763  -29.9797   10.0040 S.3       14 UNK        -0.2604 
     58 C58       -48.0198  -31.4199    9.2653 C.3       14 UNK         0.0134 
     59 N         -46.2518  -28.3048   12.6013 N.am      6 UNK        -0.4116 
     60 C         -46.1313  -27.3218   13.5032 C.2       5 UNK         0.5034 
     61 O         -46.5154  -27.4120   14.6691 O.2       5 UNK        -0.5045 
     62 CA        -45.5011  -25.9996   13.0246 C.3       5 UNK         0.0224 
     63 CB        -44.0885  -25.8367   13.6087 C.3       5 UNK        -0.1978 
     64 N         -45.4391  -25.8256   11.5661 N.am      5 UNK        -0.4737 
     65 C         -46.4919  -25.7871   10.7396 C.2       4 UNK         0.5027 
     66 O         -47.6533  -25.9950   11.1007 O.2       4 UNK        -0.5211 
     67 CA        -46.1860  -25.5298    9.2609 C.3       4 UNK         0.0297 
     68 CB        -46.3551  -26.8185    8.4422 C.3       4 UNK        -0.1993 
     69 N         -47.0891  -24.5116    8.7350 N.am      4 UNK        -0.4486 
     70 C         -46.8305  -23.1953    8.7173 C.2       3 UNK         0.4961 
     71 O         -45.8012  -22.7057    9.1859 O.2       3 UNK        -0.5105 
     72 CA        -47.8848  -22.2629    8.0728 C.3       3 UNK         0.0299 
     73 CB        -47.2534  -21.0138    7.4219 C.3       3 UNK        -0.1972 
     74 N         -48.7823  -22.9470    7.1328 N.am      3 UNK        -0.4305 
     75 C         -48.4393  -23.6115    6.0157 C.2       2 UNK         0.5006 
     76 O         -47.3097  -23.5860    5.5247 O.2       2 UNK        -0.5106 
     77 CA        -49.5299  -24.4836    5.3530 C.3       2 UNK         0.0296 
     78 CB        -48.9410  -25.7723    4.7391 C.3       2 UNK        -0.2002 
     79 N         -50.6597  -24.8219    6.2322 N.am      2 UNK        -0.4032 
     80 C         -50.6175  -25.4470    7.4219 C.2       1 UNK         0.5000 
     81 O         -49.5758  -25.8185    7.9626 O.2       1 UNK        -0.5238 
     82 H82       -53.9856  -21.9438    6.6580 H         1 UNK         0.0889 
     83 H83       -54.7154  -22.1293    8.2564 H         1 UNK         0.0889 
     84 H84       -55.0238  -23.3319    7.0008 H         1 UNK         0.0889 
     85 H85       -53.8173  -25.2136    7.2612 H         1 UNK         0.3028 
     86 H86       -51.7609  -25.4030    9.2010 H         1 UNK         0.0864 
     87 H87       -53.2965  -27.2706    8.7362 H         1 UNK         0.0720 
     88 H88       -51.6346  -27.7333    8.6502 H         1 UNK         0.0720 
     89 H89       -50.3643  -28.2727    6.1378 H         1 UNK         0.0814 
     90 H90       -51.3438  -29.4584    5.3091 H         1 UNK         0.0814 
     91 H91       -48.8553  -29.7091    7.3227 H         1 UNK         0.1469 
     92 H92       -50.3536  -32.4229   10.2823 H         1 UNK         0.1381 
     93 H93       -53.0748  -30.4013    7.6639 H         1 UNK         0.1206 
     94 H94       -52.7008  -32.7671   10.5723 H         1 UNK         0.0813 
     95 H95       -53.5191  -32.7967    9.0317 H         1 UNK         0.0813 
     96 H96       -54.1628  -31.9633   12.4793 H         1 UNK         0.0638 
     97 H97       -52.9456  -30.7187   12.3691 H         1 UNK         0.0638 
     98 H98       -55.9477  -30.1723   12.5786 H         1 UNK         0.0568 
     99 H99       -54.9790  -28.2624   15.0229 H         1 UNK         0.3450 
    100 H100      -55.0329  -29.4576   16.2820 H         1 UNK         0.3450 
    101 H101      -53.7567  -28.1785   12.9359 H         1 UNK         0.2987 
    102 H102      -53.7468  -26.6233   11.0346 H         1 UNK         0.0766 
    103 H103      -56.5242  -25.4521   10.5147 H         1 UNK         0.0798 
    104 H104      -54.9968  -24.7426    9.9981 H         1 UNK         0.0798 
    105 H105      -55.5130  -26.2961    9.3582 H         1 UNK         0.0798 
    106 H106      -53.6012  -25.4878   12.8997 H         1 UNK         0.3198 
    107 H107      -54.5891  -23.0926   13.9010 H         1 UNK         0.0843 
    108 H108      -56.8602  -22.9669   14.8427 H         1 UNK         0.0831 
    109 H109      -55.6831  -22.8359   16.1379 H         1 UNK         0.0831 
    110 H110      -56.5570  -24.3468   15.8853 H         1 UNK         0.0831 
    111 H111      -52.9652  -24.0190   15.0567 H         1 UNK         0.3133 
    112 H112      -52.5908  -25.7064   17.6340 H         1 UNK         0.0566 
    113 H113      -51.3126  -27.8063   17.0615 H         1 UNK         0.0814 
    114 H114      -53.0434  -28.0723   17.1448 H         1 UNK         0.0814 
    115 H115      -52.2525  -27.9556   15.5777 H         1 UNK         0.0814 
    116 H116      -51.1766  -25.6717   15.0058 H         1 UNK         0.3091 
    117 H117      -49.5285  -22.7196   15.7042 H         1 UNK         0.0702 
    118 H118      -47.3108  -23.8372   15.5153 H         1 UNK         0.0785 
    119 H119      -48.0240  -25.3824   15.9810 H         1 UNK         0.0785 
    120 H120      -47.9637  -24.0532   17.1297 H         1 UNK         0.0785 
    121 H121      -48.9596  -24.7612   13.7810 H         1 UNK         0.2998 
    122 H122      -51.6913  -24.2218   11.6011 H         1 UNK         0.0697 
    123 H123      -48.7272  -23.4924   11.3260 H         1 UNK         0.0825 
    124 H124      -50.0965  -22.4567   10.9421 H         1 UNK         0.0825 
    125 H125      -49.8080  -23.9055    9.9963 H         1 UNK         0.0825 
    126 H126      -49.4162  -25.9405   11.4575 H         1 UNK         0.3029 
    127 H127      -50.9564  -28.6178   13.3455 H         1 UNK         0.0897 
    128 H128      -50.4918  -28.5484   10.3407 H         1 UNK         0.0792 
    129 H129      -52.1177  -28.5354   11.0314 H         1 UNK         0.0792 
    130 H130      -51.0391  -29.8828   11.3372 H         1 UNK         0.0792 
    131 H131      -48.4983  -27.6210   12.0133 H         1 UNK         0.3086 
    132 H132      -46.5649  -30.0019   13.7284 H         1 UNK         0.0583 
    133 H133      -45.6200  -30.8118   11.6339 H         1 UNK         0.1020 
    134 H134      -47.1780  -31.5277   11.8863 H         1 UNK         0.1020 
    135 H135      -47.4556  -31.7339    8.3870 H         1 UNK         0.0694 
    136 H136      -48.0024  -32.2697    9.9468 H         1 UNK         0.0694 
    137 H137      -45.9207  -28.1331   11.6635 H         1 UNK         0.2989 
    138 H138      -46.1275  -25.1969   13.4197 H         1 UNK         0.1055 
    139 H139      -44.1014  -25.9242   14.6963 H         1 UNK         0.0806 
    140 H140      -43.6702  -24.8582   13.3720 H         1 UNK         0.0806 
    141 H141      -43.4047  -26.5969   13.2292 H         1 UNK         0.0806 
    142 H142      -44.5203  -25.6656   11.1768 H         1 UNK         0.3061 
    143 H143      -45.1527  -25.1928    9.1533 H         1 UNK         0.0734 
    144 H144      -46.1808  -26.6403    7.3811 H         1 UNK         0.0832 
    145 H145      -45.6462  -27.5819    8.7642 H         1 UNK         0.0832 
    146 H146      -47.3571  -27.2372    8.5485 H         1 UNK         0.0832 
    147 H147      -47.9864  -24.8545    8.3984 H         1 UNK         0.3156 
    148 H148      -48.5174  -21.9159    8.8900 H         1 UNK         0.0589 
    149 H149      -46.5401  -21.2793    6.6414 H         1 UNK         0.0808 
    150 H150      -48.0130  -20.3701    6.9784 H         1 UNK         0.0808 
    151 H151      -46.7168  -20.4166    8.1599 H         1 UNK         0.0808 
    152 H152      -49.7452  -23.0199    7.4356 H         1 UNK         0.3098 
    153 H153      -49.9424  -23.8841    4.5403 H         1 UNK         0.0720 
    154 H154      -49.7148  -26.3752    4.2637 H         1 UNK         0.0791 
    155 H155      -48.4507  -26.3896    5.4931 H         1 UNK         0.0791 
    156 H156      -48.1984  -25.5418    3.9743 H         1 UNK         0.0791 
    157 H157      -51.5715  -24.5483    5.8936 H         1 UNK         0.3028 
@<TRIPOS>BOND
     1    1    2 1    
     2    1   82 1    
     3    1   83 1    
     4    1   84 1    
     5    2    3 2    
     6    2    4 am   BACKBONE|DICT|INTERRES
     7    4    5 1    
     8    4   85 1    
     9    5    6 1    
    10    5   80 1    
    11    5   86 1    
    12    6    7 1    
    13    6   87 1    
    14    6   88 1    
    15    7    8 1    
    16    8    9 1    
    17    8   89 1    
    18    8   90 1    
    19    9   10 ar   
    20    9   14 ar   
    21   10   11 ar   
    22   10   91 1    
    23   11   12 ar   
    24   11   58 1    
    25   12   13 ar   
    26   12   92 1    
    27   13   14 ar   
    28   13   15 1    
    29   14   93 1    
    30   15   16 1    
    31   15   94 1    
    32   15   95 1    
    33   16   17 1    
    34   17   18 1    
    35   17   96 1    
    36   17   97 1    
    37   18   19 1    
    38   18   22 1    
    39   18   98 1    
    40   19   20 am   BACKBONE|DICT|INTERRES
    41   19   21 2    
    42   20   99 1    
    43   20  100 1    
    44   22   23 am   BACKBONE|DICT|INTERRES
    45   22  101 1    
    46   23   24 2    
    47   23   25 1    
    48   25   26 1    
    49   25   27 1    
    50   25  102 1    
    51   26  103 1    
    52   26  104 1    
    53   26  105 1    
    54   27   28 am   BACKBONE|DICT|INTERRES
    55   27  106 1    
    56   28   29 2    
    57   28   30 1    
    58   30   31 1    
    59   30   32 1    
    60   30  107 1    
    61   31  108 1    
    62   31  109 1    
    63   31  110 1    
    64   32   33 am   BACKBONE|DICT|INTERRES
    65   32  111 1    
    66   33   34 2    
    67   33   35 1    
    68   35   36 1    
    69   35   37 1    
    70   35  112 1    
    71   36  113 1    
    72   36  114 1    
    73   36  115 1    
    74   37   38 am   BACKBONE|DICT|INTERRES
    75   37  116 1    
    76   38   39 2    
    77   38   40 1    
    78   40   41 1    
    79   40   42 1    
    80   40  117 1    
    81   41  118 1    
    82   41  119 1    
    83   41  120 1    
    84   42   43 am   BACKBONE|DICT|INTERRES
    85   42  121 1    
    86   43   44 2    
    87   43   45 1    
    88   45   46 1    
    89   45   47 1    
    90   45  122 1    
    91   46  123 1    
    92   46  124 1    
    93   46  125 1    
    94   47   48 am   BACKBONE|DICT|INTERRES
    95   47  126 1    
    96   48   49 2    
    97   48   50 1    
    98   50   51 1    
    99   50   52 1    
   100   50  127 1    
   101   51  128 1    
   102   51  129 1    
   103   51  130 1    
   104   52   53 am   BACKBONE|DICT|INTERRES
   105   52  131 1    
   106   53   54 2    
   107   53   55 1    
   108   55   56 1    
   109   55   59 1    
   110   55  132 1    
   111   56   57 1    
   112   56  133 1    
   113   56  134 1    
   114   57   58 1    
   115   58  135 1    
   116   58  136 1    
   117   59   60 am   BACKBONE|DICT|INTERRES
   118   59  137 1    
   119   60   61 2    
   120   60   62 1    
   121   62   63 1    
   122   62   64 1    
   123   62  138 1    
   124   63  139 1    
   125   63  140 1    
   126   63  141 1    
   127   64   65 am   BACKBONE|DICT|INTERRES
   128   64  142 1    
   129   65   66 2    
   130   65   67 1    
   131   67   68 1    
   132   67   69 1    
   133   67  143 1    
   134   68  144 1    
   135   68  145 1    
   136   68  146 1    
   137   69   70 am   BACKBONE|DICT|INTERRES
   138   69  147 1    
   139   70   71 2    
   140   70   72 1    
   141   72   73 1    
   142   72   74 1    
   143   72  148 1    
   144   73  149 1    
   145   73  150 1    
   146   73  151 1    
   147   74   75 am   BACKBONE|DICT|INTERRES
   148   74  152 1    
   149   75   76 2    
   150   75   77 1    
   151   77   78 1    
   152   77   79 1    
   153   77  153 1    
   154   78  154 1    
   155   78  155 1    
   156   78  156 1    
   157   79   80 am   BACKBONE|DICT|INTERRES
   158   79  157 1    
   159   80   81 2    
@<TRIPOS>SUBSTRUCTURE
     1 UNK         1 GROUP             0       ****    0 ROOT    
