@<TRIPOS>MOLECULE
3R207
157   159    1
SMALL
USER_CHARGES


@<TRIPOS>ATOM
      1 CA        -45.4810  -30.0736    4.4792 C.3       0 UNK        -0.1975 
      2 C         -45.8823  -30.5629    5.8692 C.2       0 UNK         0.4852 
      3 O         -45.0894  -31.2424    6.5195 O.2       0 UNK        -0.5216 
      4 N         -47.0935  -30.2677    6.3630 N.am      1 UNK        -0.4461 
      5 CA        -48.1205  -29.4158    5.7506 C.3       1 UNK         0.0864 
      6 C6        -49.5157  -29.7156    6.3616 C.3       14 UNK        -0.0898 
      7 S7        -50.8916  -29.2734    5.2464 S.3       14 UNK        -0.2598 
      8 C8        -52.3152  -29.9882    6.1254 C.3       14 UNK         0.0286 
      9 C9        -52.5369  -29.3476    7.4889 C.ar      14 UNK        -0.0844 
     10 C10       -53.1224  -28.0818    7.5919 C.ar      14 UNK        -0.0881 
     11 C11       -53.3654  -27.5042    8.8434 C.ar      14 UNK        -0.0643 
     12 C12       -53.0256  -28.2210    9.9973 C.ar      14 UNK        -0.0930 
     13 C13       -52.4254  -29.4803    9.9092 C.ar      14 UNK        -0.0827 
     14 C14       -52.1791  -30.0350    8.6511 C.ar      14 UNK        -0.1249 
     15 C15       -52.0293  -30.2452   11.1642 C.3       14 UNK         0.0141 
     16 S16       -53.0798  -31.7150   11.4131 S.3       14 UNK        -0.2313 
     17 C17       -54.2397  -31.1554   12.7044 C.3       14 UNK        -0.0915 
     18 CA        -55.4258  -30.3016   12.1631 C.3       13 UNK         0.0968 
     19 C         -56.5800  -31.1536   11.5707 C.2       13 UNK         0.5732 
     20 N         -56.3181  -31.9099   10.5149 N.am      13 UNK        -0.7310 
     21 O         -57.7107  -31.1376   12.0575 O.2       13 UNK        -0.5035 
     22 N         -55.9384  -29.3718   13.1760 N.am      13 UNK        -0.4233 
     23 C         -55.2904  -28.2945   13.6243 C.2       13 UNK         0.4989 
     24 O         -54.1689  -27.9664   13.2359 O.2       13 UNK        -0.4996 
     25 CA        -55.9969  -27.4642   14.7074 C.3       12 UNK         0.0216 
     26 CB        -55.9629  -28.1910   16.0624 C.3       12 UNK        -0.1964 
     27 N         -55.3203  -26.1742   14.8401 N.am      12 UNK        -0.4276 
     28 C         -55.6206  -25.0877   14.1170 C.2       12 UNK         0.5020 
     29 O         -56.6372  -24.9976   13.4255 O.2       12 UNK        -0.5489 
     30 CA        -54.6143  -23.9194   14.1161 C.3       11 UNK         0.0294 
     31 CB        -55.3030  -22.5460   14.2652 C.3       11 UNK        -0.2019 
     32 N         -53.4956  -24.0709   15.0553 N.am      11 UNK        -0.4493 
     33 C         -53.5232  -24.0073   16.3942 C.2       11 UNK         0.4932 
     34 O         -54.5440  -23.7994   17.0517 O.2       11 UNK        -0.5029 
     35 CA        -52.1753  -24.2223   17.1116 C.3       10 UNK         0.0280 
     36 CB        -52.3308  -24.4571   18.6294 C.3       10 UNK        -0.1976 
     37 N         -51.3510  -25.2772   16.5072 N.am      10 UNK        -0.4242 
     38 C         -51.6704  -26.5739   16.3613 C.2       10 UNK         0.5072 
     39 O         -52.7574  -27.0395   16.7046 O.2       10 UNK        -0.5224 
     40 CA        -50.6269  -27.5220   15.7299 C.3       9 UNK         0.0343 
     41 CB        -51.2366  -28.3295   14.5730 C.3       9 UNK        -0.2003 
     42 N         -49.4287  -26.8414   15.2367 N.am      9 UNK        -0.4272 
     43 C         -48.3807  -26.4674   15.9819 C.2       9 UNK         0.4988 
     44 O         -48.2653  -26.7213   17.1810 O.2       9 UNK        -0.5108 
     45 CA        -47.3029  -25.6200   15.2792 C.3       8 UNK         0.0248 
     46 CB        -46.2582  -26.5211   14.6026 C.3       8 UNK        -0.2001 
     47 N         -47.8572  -24.6759   14.2997 N.am      8 UNK        -0.4140 
     48 C         -48.7172  -23.6907   14.6033 C.2       8 UNK         0.5028 
     49 O         -49.0987  -23.4467   15.7481 O.2       8 UNK        -0.5428 
     50 CA        -49.2976  -22.8750   13.4382 C.3       7 UNK         0.0264 
     51 CB        -48.2920  -21.8170   12.9577 C.3       7 UNK        -0.1988 
     52 N         -49.7171  -23.7149   12.3144 N.am      7 UNK        -0.4454 
     53 C         -50.6978  -24.6287   12.3644 C.2       7 UNK         0.5027 
     54 O         -51.3920  -24.8186   13.3628 O.2       7 UNK        -0.5083 
     55 CA        -50.8981  -25.5190   11.1183 C.3       6 UNK         0.0844 
     56 C56       -51.7598  -24.8370   10.0260 C.3       14 UNK        -0.0967 
     57 S57       -53.5424  -25.0816   10.3273 S.3       14 UNK        -0.2604 
     58 C58       -54.0370  -26.1308    8.9126 C.3       14 UNK         0.0134 
     59 N         -49.6268  -26.0090   10.5859 N.am      6 UNK        -0.4116 
     60 C         -48.7937  -26.8210   11.2513 C.2       5 UNK         0.5034 
     61 O         -49.0206  -27.2767   12.3709 O.2       5 UNK        -0.5045 
     62 CA        -47.4590  -27.1444   10.5685 C.3       5 UNK         0.0224 
     63 CB        -47.6295  -28.3204    9.5988 C.3       5 UNK        -0.1978 
     64 N         -46.9060  -25.9843    9.8638 N.am      5 UNK        -0.4737 
     65 C         -46.4496  -24.8883   10.4883 C.2       4 UNK         0.5027 
     66 O         -46.4160  -24.7641   11.7130 O.2       4 UNK        -0.5211 
     67 CA        -46.0030  -23.7174    9.5981 C.3       4 UNK         0.0297 
     68 CB        -44.6338  -24.0062    8.9622 C.3       4 UNK        -0.1993 
     69 N         -46.9761  -23.3954    8.5511 N.am      4 UNK        -0.4486 
     70 C         -48.2337  -22.9858    8.7735 C.2       3 UNK         0.4961 
     71 O         -48.7090  -22.8120    9.8924 O.2       3 UNK        -0.5105 
     72 CA        -49.1336  -22.7570    7.5486 C.3       3 UNK         0.0299 
     73 CB        -49.0890  -21.2822    7.1193 C.3       3 UNK        -0.1972 
     74 N         -48.8039  -23.6100    6.4048 N.am      3 UNK        -0.4305 
     75 C         -48.8581  -24.9489    6.4041 C.2       2 UNK         0.5006 
     76 O         -49.2034  -25.6154    7.3850 O.2       2 UNK        -0.5106 
     77 CA        -48.4717  -25.6237    5.0722 C.3       2 UNK         0.0296 
     78 CB        -47.0990  -25.1442    4.5459 C.3       2 UNK        -0.2002 
     79 N         -48.5266  -27.0877    5.1289 N.am      2 UNK        -0.4032 
     80 C         -47.7535  -27.9149    5.8454 C.2       1 UNK         0.5000 
     81 O         -46.8020  -27.5450    6.5403 O.2       1 UNK        -0.5238 
     82 H82       -44.5001  -30.4634    4.2078 H         1 UNK         0.0889 
     83 H83       -45.4219  -28.9863    4.4494 H         1 UNK         0.0889 
     84 H84       -46.1882  -30.4125    3.7231 H         1 UNK         0.0889 
     85 H85       -47.3103  -30.5898    7.2945 H         1 UNK         0.3028 
     86 H86       -48.1629  -29.6719    4.6905 H         1 UNK         0.0864 
     87 H87       -49.6097  -30.7830    6.5698 H         1 UNK         0.0720 
     88 H88       -49.6516  -29.2105    7.3189 H         1 UNK         0.0720 
     89 H89       -52.1738  -31.0658    6.2225 H         1 UNK         0.0814 
     90 H90       -53.2093  -29.8551    5.5147 H         1 UNK         0.0814 
     91 H91       -53.3968  -27.5500    6.6909 H         1 UNK         0.1469 
     92 H92       -53.2268  -27.7961   10.9684 H         1 UNK         0.1381 
     93 H93       -51.7211  -31.0122    8.5801 H         1 UNK         0.1206 
     94 H94       -50.9913  -30.5668   11.0694 H         1 UNK         0.0813 
     95 H95       -52.0655  -29.5973   12.0409 H         1 UNK         0.0813 
     96 H96       -54.6105  -32.0304   13.2412 H         1 UNK         0.0638 
     97 H97       -53.6559  -30.6016   13.4403 H         1 UNK         0.0638 
     98 H98       -55.0704  -29.6796   11.3406 H         1 UNK         0.0568 
     99 H99       -55.3851  -31.9444   10.1325 H         1 UNK         0.3450 
    100 H100      -57.0521  -32.4718   10.1138 H         1 UNK         0.3450 
    101 H101      -56.8717  -29.5860   13.5029 H         1 UNK         0.2987 
    102 H102      -57.0381  -27.3130   14.4147 H         1 UNK         0.0766 
    103 H103      -56.3841  -27.5727   16.8554 H         1 UNK         0.0798 
    104 H104      -54.9468  -28.4601   16.3525 H         1 UNK         0.0798 
    105 H105      -56.5440  -29.1131   16.0283 H         1 UNK         0.0798 
    106 H106      -54.4385  -26.1896   15.3384 H         1 UNK         0.3198 
    107 H107      -54.1545  -23.9406   13.1271 H         1 UNK         0.0843 
    108 H108      -55.8636  -22.4700   15.1970 H         1 UNK         0.0831 
    109 H109      -56.0086  -22.3744   13.4515 H         1 UNK         0.0831 
    110 H110      -54.5780  -21.7326   14.2393 H         1 UNK         0.0831 
    111 H111      -52.6103  -24.3098   14.6062 H         1 UNK         0.3133 
    112 H112      -51.6168  -23.2945   16.9810 H         1 UNK         0.0566 
    113 H113      -51.3614  -24.5772   19.1131 H         1 UNK         0.0814 
    114 H114      -52.8274  -23.6119   19.1076 H         1 UNK         0.0814 
    115 H115      -52.9252  -25.3462   18.8428 H         1 UNK         0.0814 
    116 H116      -50.4491  -24.9641   16.1638 H         1 UNK         0.3091 
    117 H117      -50.3310  -28.2272   16.5090 H         1 UNK         0.0702 
    118 H118      -52.1096  -28.8962   14.8992 H         1 UNK         0.0785 
    119 H119      -51.5555  -27.6768   13.7594 H         1 UNK         0.0785 
    120 H120      -50.5209  -29.0438   14.1658 H         1 UNK         0.0785 
    121 H121      -49.4049  -26.6502   14.2395 H         1 UNK         0.2998 
    122 H122      -46.7962  -25.0315   16.0469 H         1 UNK         0.0697 
    123 H123      -46.7018  -27.1354   13.8193 H         1 UNK         0.0825 
    124 H124      -45.7991  -27.1966   15.3256 H         1 UNK         0.0825 
    125 H125      -45.4573  -25.9332   14.1537 H         1 UNK         0.0825 
    126 H126      -47.5504  -24.7806   13.3359 H         1 UNK         0.3029 
    127 H127      -50.1839  -22.3560   13.8098 H         1 UNK         0.0897 
    128 H128      -47.3994  -22.2729   12.5274 H         1 UNK         0.0792 
    129 H129      -47.9702  -21.1794   13.7822 H         1 UNK         0.0792 
    130 H130      -48.7326  -21.1691   12.1998 H         1 UNK         0.0792 
    131 H131      -49.2293  -23.5614   11.4322 H         1 UNK         0.3086 
    132 H132      -51.4246  -26.4102   11.4637 H         1 UNK         0.0583 
    133 H133      -51.5469  -23.7687    9.9503 H         1 UNK         0.1020 
    134 H134      -51.5217  -25.2497    9.0437 H         1 UNK         0.1020 
    135 H135      -55.1159  -26.2824    8.9612 H         1 UNK         0.0694 
    136 H136      -53.8463  -25.5727    7.9946 H         1 UNK         0.0694 
    137 H137      -49.3631  -25.7006    9.6581 H         1 UNK         0.2989 
    138 H138      -46.7503  -27.4409   11.3448 H         1 UNK         0.1055 
    139 H139      -48.0158  -29.2013   10.1134 H         1 UNK         0.0806 
    140 H140      -46.6811  -28.5992    9.1390 H         1 UNK         0.0806 
    141 H141      -48.3310  -28.0714    8.8037 H         1 UNK         0.0806 
    142 H142      -46.9297  -26.0063    8.8523 H         1 UNK         0.3061 
    143 H143      -45.9030  -22.8378   10.2377 H         1 UNK         0.0734 
    144 H144      -44.2630  -23.1432    8.4089 H         1 UNK         0.0832 
    145 H145      -43.8919  -24.2409    9.7269 H         1 UNK         0.0832 
    146 H146      -44.6736  -24.8537    8.2765 H         1 UNK         0.0832 
    147 H147      -46.6768  -23.5142    7.5947 H         1 UNK         0.3156 
    148 H148      -50.1568  -22.9927    7.8483 H         1 UNK         0.0589 
    149 H149      -48.0951  -20.9887    6.7791 H         1 UNK         0.0808 
    150 H150      -49.7948  -21.0806    6.3133 H         1 UNK         0.0808 
    151 H151      -49.3550  -20.6269    7.9502 H         1 UNK         0.0808 
    152 H152      -48.5291  -23.1374    5.5557 H         1 UNK         0.3098 
    153 H153      -49.2310  -25.3293    4.3462 H         1 UNK         0.0720 
    154 H154      -46.8081  -25.6905    3.6485 H         1 UNK         0.0791 
    155 H155      -46.3085  -25.2775    5.2853 H         1 UNK         0.0791 
    156 H156      -47.1178  -24.0876    4.2782 H         1 UNK         0.0791 
    157 H157      -49.3203  -27.5034    4.6582 H         1 UNK         0.3028 
@<TRIPOS>BOND
     1    1    2 1    
     2    1   82 1    
     3    1   83 1    
     4    1   84 1    
     5    2    3 2    
     6    2    4 am   BACKBONE|DICT|INTERRES
     7    4    5 1    
     8    4   85 1    
     9    5    6 1    
    10    5   80 1    
    11    5   86 1    
    12    6    7 1    
    13    6   87 1    
    14    6   88 1    
    15    7    8 1    
    16    8    9 1    
    17    8   89 1    
    18    8   90 1    
    19    9   10 ar   
    20    9   14 ar   
    21   10   11 ar   
    22   10   91 1    
    23   11   12 ar   
    24   11   58 1    
    25   12   13 ar   
    26   12   92 1    
    27   13   14 ar   
    28   13   15 1    
    29   14   93 1    
    30   15   16 1    
    31   15   94 1    
    32   15   95 1    
    33   16   17 1    
    34   17   18 1    
    35   17   96 1    
    36   17   97 1    
    37   18   19 1    
    38   18   22 1    
    39   18   98 1    
    40   19   20 am   BACKBONE|DICT|INTERRES
    41   19   21 2    
    42   20   99 1    
    43   20  100 1    
    44   22   23 am   BACKBONE|DICT|INTERRES
    45   22  101 1    
    46   23   24 2    
    47   23   25 1    
    48   25   26 1    
    49   25   27 1    
    50   25  102 1    
    51   26  103 1    
    52   26  104 1    
    53   26  105 1    
    54   27   28 am   BACKBONE|DICT|INTERRES
    55   27  106 1    
    56   28   29 2    
    57   28   30 1    
    58   30   31 1    
    59   30   32 1    
    60   30  107 1    
    61   31  108 1    
    62   31  109 1    
    63   31  110 1    
    64   32   33 am   BACKBONE|DICT|INTERRES
    65   32  111 1    
    66   33   34 2    
    67   33   35 1    
    68   35   36 1    
    69   35   37 1    
    70   35  112 1    
    71   36  113 1    
    72   36  114 1    
    73   36  115 1    
    74   37   38 am   BACKBONE|DICT|INTERRES
    75   37  116 1    
    76   38   39 2    
    77   38   40 1    
    78   40   41 1    
    79   40   42 1    
    80   40  117 1    
    81   41  118 1    
    82   41  119 1    
    83   41  120 1    
    84   42   43 am   BACKBONE|DICT|INTERRES
    85   42  121 1    
    86   43   44 2    
    87   43   45 1    
    88   45   46 1    
    89   45   47 1    
    90   45  122 1    
    91   46  123 1    
    92   46  124 1    
    93   46  125 1    
    94   47   48 am   BACKBONE|DICT|INTERRES
    95   47  126 1    
    96   48   49 2    
    97   48   50 1    
    98   50   51 1    
    99   50   52 1    
   100   50  127 1    
   101   51  128 1    
   102   51  129 1    
   103   51  130 1    
   104   52   53 am   BACKBONE|DICT|INTERRES
   105   52  131 1    
   106   53   54 2    
   107   53   55 1    
   108   55   56 1    
   109   55   59 1    
   110   55  132 1    
   111   56   57 1    
   112   56  133 1    
   113   56  134 1    
   114   57   58 1    
   115   58  135 1    
   116   58  136 1    
   117   59   60 am   BACKBONE|DICT|INTERRES
   118   59  137 1    
   119   60   61 2    
   120   60   62 1    
   121   62   63 1    
   122   62   64 1    
   123   62  138 1    
   124   63  139 1    
   125   63  140 1    
   126   63  141 1    
   127   64   65 am   BACKBONE|DICT|INTERRES
   128   64  142 1    
   129   65   66 2    
   130   65   67 1    
   131   67   68 1    
   132   67   69 1    
   133   67  143 1    
   134   68  144 1    
   135   68  145 1    
   136   68  146 1    
   137   69   70 am   BACKBONE|DICT|INTERRES
   138   69  147 1    
   139   70   71 2    
   140   70   72 1    
   141   72   73 1    
   142   72   74 1    
   143   72  148 1    
   144   73  149 1    
   145   73  150 1    
   146   73  151 1    
   147   74   75 am   BACKBONE|DICT|INTERRES
   148   74  152 1    
   149   75   76 2    
   150   75   77 1    
   151   77   78 1    
   152   77   79 1    
   153   77  153 1    
   154   78  154 1    
   155   78  155 1    
   156   78  156 1    
   157   79   80 am   BACKBONE|DICT|INTERRES
   158   79  157 1    
   159   80   81 2    
@<TRIPOS>SUBSTRUCTURE
     1 UNK         1 GROUP             0       ****    0 ROOT    
