@<TRIPOS>MOLECULE
3R207
157   159    1
SMALL
USER_CHARGES


@<TRIPOS>ATOM
      1 CA        -52.2897  -27.3512    4.4290 C.3       0 UNK        -0.1975 
      2 C         -51.0000  -27.3612    5.2354 C.2       0 UNK         0.4852 
      3 O         -50.6268  -26.3357    5.8064 O.2       0 UNK        -0.5216 
      4 N         -50.3222  -28.5150    5.3009 N.am      1 UNK        -0.4461 
      5 CA        -49.0537  -28.6967    6.0124 C.3       1 UNK         0.0864 
      6 C6        -48.6753  -30.1895    6.1865 C.3       14 UNK        -0.0898 
      7 S7        -49.9624  -31.1693    7.0351 S.3       14 UNK        -0.2598 
      8 C8        -49.6362  -30.7785    8.7888 C.3       14 UNK         0.0286 
      9 C9        -50.8323  -30.1355    9.4851 C.ar      14 UNK        -0.0844 
     10 C10       -51.5068  -29.0570    8.9019 C.ar      14 UNK        -0.0881 
     11 C11       -52.5689  -28.4355    9.5607 C.ar      14 UNK        -0.0643 
     12 C12       -52.9604  -28.8993   10.8181 C.ar      14 UNK        -0.0930 
     13 C13       -52.2983  -29.9738   11.4162 C.ar      14 UNK        -0.0827 
     14 C14       -51.2383  -30.5916   10.7446 C.ar      14 UNK        -0.1249 
     15 C15       -52.6979  -30.4151   12.8143 C.3       14 UNK         0.0141 
     16 S16       -54.3311  -31.2190   12.8382 S.3       14 UNK        -0.2313 
     17 C17       -55.0507  -30.5450   14.3778 C.3       14 UNK        -0.0915 
     18 CA        -56.3466  -29.7335   14.1171 C.3       13 UNK         0.0968 
     19 C         -56.9996  -29.2803   15.4492 C.2       13 UNK         0.5732 
     20 N         -57.8036  -30.1374   16.0644 N.am      13 UNK        -0.7310 
     21 O         -56.7608  -28.1844   15.9522 O.2       13 UNK        -0.5035 
     22 N         -56.1192  -28.6026   13.2059 N.am      13 UNK        -0.4233 
     23 C         -57.0565  -28.0962   12.3932 C.2       13 UNK         0.4989 
     24 O         -58.2075  -28.5343   12.3343 O.2       13 UNK        -0.4996 
     25 CA        -56.6403  -26.9466   11.4493 C.3       12 UNK         0.0216 
     26 CB        -57.8381  -26.1052   10.9571 C.3       12 UNK        -0.1964 
     27 N         -55.5791  -26.0855   11.9812 N.am      12 UNK        -0.4276 
     28 C         -55.6296  -25.3177   13.0777 C.2       12 UNK         0.5020 
     29 O         -56.6218  -25.1782   13.7959 O.2       12 UNK        -0.5489 
     30 CA        -54.3237  -24.5891   13.4372 C.3       11 UNK         0.0294 
     31 CB        -54.5457  -23.0691   13.5226 C.3       11 UNK        -0.2019 
     32 N         -53.7327  -25.0687   14.6892 N.am      11 UNK        -0.4493 
     33 C         -53.4326  -26.3434   14.9794 C.2       11 UNK         0.4932 
     34 O         -53.6983  -27.3030   14.2528 O.2       11 UNK        -0.5029 
     35 CA        -52.6762  -26.5614   16.2972 C.3       10 UNK         0.0280 
     36 CB        -53.4685  -27.4274   17.2979 C.3       10 UNK        -0.1976 
     37 N         -51.3248  -27.0574   16.0138 N.am      10 UNK        -0.4242 
     38 C         -50.9125  -28.3062   15.7381 C.2       10 UNK         0.5072 
     39 O         -51.6011  -29.3161   15.8890 O.2       10 UNK        -0.5224 
     40 CA        -49.4723  -28.4809   15.2102 C.3       9 UNK         0.0343 
     41 CB        -49.4536  -29.3100   13.9145 C.3       9 UNK        -0.2003 
     42 N         -48.7952  -27.2091   14.9508 N.am      9 UNK        -0.4272 
     43 C         -48.0448  -26.5396   15.8355 C.2       9 UNK         0.4988 
     44 O         -47.8041  -26.9436   16.9733 O.2       9 UNK        -0.5108 
     45 CA        -47.4808  -25.1773   15.3890 C.3       8 UNK         0.0248 
     46 CB        -46.0679  -25.3509   14.8106 C.3       8 UNK        -0.2001 
     47 N         -48.3210  -24.4741   14.4137 N.am      8 UNK        -0.4140 
     48 C         -49.5782  -24.0645   14.6367 C.2       8 UNK         0.5028 
     49 O         -50.1731  -24.2227   15.7035 O.2       8 UNK        -0.5428 
     50 CA        -50.3199  -23.4259   13.4509 C.3       7 UNK         0.0264 
     51 CB        -49.9166  -21.9537   13.2729 C.3       7 UNK        -0.1988 
     52 N         -50.1278  -24.1500   12.1913 N.am      7 UNK        -0.4454 
     53 C         -50.4883  -25.4265   11.9860 C.2       7 UNK         0.5027 
     54 O         -50.9952  -26.1394   12.8483 O.2       7 UNK        -0.5083 
     55 CA        -50.1795  -26.0212   10.5991 C.3       6 UNK         0.0844 
     56 C56       -51.1226  -25.4835    9.4875 C.3       14 UNK        -0.0967 
     57 S57       -52.9096  -25.7038    9.8172 S.3       14 UNK        -0.2604 
     58 C58       -53.2735  -27.2472    8.9262 C.3       14 UNK         0.0134 
     59 N         -48.7650  -25.8143   10.2733 N.am      6 UNK        -0.4116 
     60 C         -47.7482  -26.4088   10.9220 C.2       5 UNK         0.5034 
     61 O         -47.8986  -27.2804   11.7763 O.2       5 UNK        -0.5045 
     62 CA        -46.3173  -25.9347   10.6034 C.3       5 UNK         0.0224 
     63 CB        -45.6637  -26.8551    9.5628 C.3       5 UNK        -0.1978 
     64 N         -46.2468  -24.5419   10.1513 N.am      5 UNK        -0.4737 
     65 C         -46.6002  -23.4891   10.9050 C.2       4 UNK         0.5027 
     66 O         -46.9432  -23.5855   12.0828 O.2       4 UNK        -0.5211 
     67 CA        -46.6390  -22.1049   10.2319 C.3       4 UNK         0.0297 
     68 CB        -45.3657  -21.3138   10.5679 C.3       4 UNK        -0.1993 
     69 N         -46.8188  -22.1404    8.7764 N.am      4 UNK        -0.4486 
     70 C         -47.8353  -22.7218    8.1233 C.2       3 UNK         0.4961 
     71 O         -48.7609  -23.3081    8.6853 O.2       3 UNK        -0.5105 
     72 CA        -47.7903  -22.6989    6.5841 C.3       3 UNK         0.0299 
     73 CB        -46.8560  -21.6141    6.0005 C.3       3 UNK        -0.1972 
     74 N         -47.4551  -24.0158    6.0270 N.am      3 UNK        -0.4305 
     75 C         -46.3691  -24.7573    6.2957 C.2       2 UNK         0.5006 
     76 O         -45.5104  -24.4539    7.1266 O.2       2 UNK        -0.5106 
     77 CA        -46.2659  -26.0872    5.5397 C.3       2 UNK         0.0296 
     78 CB        -44.8888  -26.7674    5.6819 C.3       2 UNK        -0.2002 
     79 N         -47.3198  -26.9718    6.0252 N.am      2 UNK        -0.4032 
     80 C         -47.9294  -27.9173    5.3031 C.2       1 UNK         0.5000 
     81 O         -47.6501  -28.1819    4.1308 O.2       1 UNK        -0.5238 
     82 H82       -53.1259  -27.0602    5.0642 H         1 UNK         0.0889 
     83 H83       -52.5116  -28.3293    4.0027 H         1 UNK         0.0889 
     84 H84       -52.2152  -26.6333    3.6128 H         1 UNK         0.0889 
     85 H85       -50.6627  -29.3267    4.8055 H         1 UNK         0.3028 
     86 H86       -49.1734  -28.2723    7.0110 H         1 UNK         0.0864 
     87 H87       -48.5012  -30.6515    5.2126 H         1 UNK         0.0720 
     88 H88       -47.7372  -30.2900    6.7359 H         1 UNK         0.0720 
     89 H89       -48.7817  -30.1074    8.8817 H         1 UNK         0.0814 
     90 H90       -49.3523  -31.7032    9.2936 H         1 UNK         0.0814 
     91 H91       -51.2026  -28.6913    7.9344 H         1 UNK         0.1469 
     92 H92       -53.7661  -28.4108   11.3466 H         1 UNK         0.1381 
     93 H93       -50.7141  -31.4124   11.2146 H         1 UNK         0.1206 
     94 H94       -51.9644  -31.1029   13.2358 H         1 UNK         0.0813 
     95 H95       -52.6906  -29.5343   13.4540 H         1 UNK         0.0813 
     96 H96       -55.2621  -31.3927   15.0317 H         1 UNK         0.0638 
     97 H97       -54.3183  -29.9361   14.9100 H         1 UNK         0.0638 
     98 H98       -57.0497  -30.4139   13.6318 H         1 UNK         0.0568 
     99 H99       -58.0002  -31.0446   15.6711 H         1 UNK         0.3450 
    100 H100      -58.2267  -29.8682   16.9387 H         1 UNK         0.3450 
    101 H101      -55.2255  -28.1314   13.3105 H         1 UNK         0.2987 
    102 H102      -56.2119  -27.4357   10.5738 H         1 UNK         0.0766 
    103 H103      -57.5168  -25.3179   10.2753 H         1 UNK         0.0798 
    104 H104      -58.3707  -25.6362   11.7850 H         1 UNK         0.0798 
    105 H105      -58.5572  -26.7232   10.4180 H         1 UNK         0.0798 
    106 H106      -54.7023  -26.1171   11.4758 H         1 UNK         0.3198 
    107 H107      -53.5882  -24.7748   12.6521 H         1 UNK         0.0843 
    108 H108      -55.2337  -22.8073   14.3276 H         1 UNK         0.0831 
    109 H109      -54.9726  -22.6872   12.5942 H         1 UNK         0.0831 
    110 H110      -53.6122  -22.5328   13.6909 H         1 UNK         0.0831 
    111 H111      -53.4934  -24.3598   15.3666 H         1 UNK         0.3133 
    112 H112      -52.5248  -25.5903   16.7713 H         1 UNK         0.0566 
    113 H113      -52.8862  -27.6389   18.1944 H         1 UNK         0.0814 
    114 H114      -54.3790  -26.9147   17.6101 H         1 UNK         0.0814 
    115 H115      -53.7790  -28.3772   16.8619 H         1 UNK         0.0814 
    116 H116      -50.6592  -26.3150   15.8300 H         1 UNK         0.3091 
    117 H117      -48.9190  -29.0372   15.9694 H         1 UNK         0.0702 
    118 H118      -49.8646  -30.3060   14.0788 H         1 UNK         0.0785 
    119 H119      -48.4381  -29.4402   13.5405 H         1 UNK         0.0785 
    120 H120      -50.0396  -28.8340   13.1266 H         1 UNK         0.0785 
    121 H121      -48.9512  -26.8054   14.0352 H         1 UNK         0.2998 
    122 H122      -47.4124  -24.5444   16.2761 H         1 UNK         0.0697 
    123 H123      -46.0752  -25.9806   13.9206 H         1 UNK         0.0825 
    124 H124      -45.4028  -25.8200   15.5369 H         1 UNK         0.0825 
    125 H125      -45.6273  -24.3912   14.5393 H         1 UNK         0.0825 
    126 H126      -47.8927  -24.2547   13.5152 H         1 UNK         0.3029 
    127 H127      -51.3854  -23.4600   13.6830 H         1 UNK         0.0897 
    128 H128      -50.5060  -21.4721   12.4925 H         1 UNK         0.0792 
    129 H129      -48.8630  -21.8492   13.0116 H         1 UNK         0.0792 
    130 H130      -50.0804  -21.3920   14.1937 H         1 UNK         0.0792 
    131 H131      -49.6787  -23.6469   11.4396 H         1 UNK         0.3086 
    132 H132      -50.3368  -27.0988   10.6740 H         1 UNK         0.0583 
    133 H133      -50.9607  -24.4159    9.3370 H         1 UNK         0.1020 
    134 H134      -50.8756  -25.9524    8.5339 H         1 UNK         0.1020 
    135 H135      -54.3501  -27.4200    8.9355 H         1 UNK         0.0694 
    136 H136      -52.9913  -27.1343    7.8781 H         1 UNK         0.0694 
    137 H137      -48.5611  -25.0600    9.6253 H         1 UNK         0.2989 
    138 H138      -45.7394  -26.0073   11.5268 H         1 UNK         0.1055 
    139 H139      -45.6271  -27.8846    9.9220 H         1 UNK         0.0806 
    140 H140      -44.6394  -26.5499    9.3478 H         1 UNK         0.0806 
    141 H141      -46.2175  -26.8582    8.6263 H         1 UNK         0.0806 
    142 H142      -45.9677  -24.3798    9.1884 H         1 UNK         0.3061 
    143 H143      -47.4943  -21.5707   10.6504 H         1 UNK         0.0734 
    144 H144      -45.4190  -20.2929   10.1894 H         1 UNK         0.0832 
    145 H145      -45.2204  -21.2491   11.6474 H         1 UNK         0.0832 
    146 H146      -44.4758  -21.7843   10.1475 H         1 UNK         0.0832 
    147 H147      -46.0822  -21.7291    8.2214 H         1 UNK         0.3156 
    148 H148      -48.8052  -22.4706    6.2550 H         1 UNK         0.0589 
    149 H149      -45.8043  -21.8086    6.2143 H         1 UNK         0.0808 
    150 H150      -46.9605  -21.5554    4.9170 H         1 UNK         0.0808 
    151 H151      -47.1009  -20.6271    6.3957 H         1 UNK         0.0808 
    152 H152      -48.1376  -24.3971    5.3853 H         1 UNK         0.3098 
    153 H153      -46.4303  -25.8665    4.4825 H         1 UNK         0.0720 
    154 H154      -44.8293  -27.6714    5.0756 H         1 UNK         0.0791 
    155 H155      -44.6745  -27.0439    6.7142 H         1 UNK         0.0791 
    156 H156      -44.0905  -26.1025    5.3498 H         1 UNK         0.0791 
    157 H157      -47.6545  -26.7798    6.9584 H         1 UNK         0.3028 
@<TRIPOS>BOND
     1    1    2 1    
     2    1   82 1    
     3    1   83 1    
     4    1   84 1    
     5    2    3 2    
     6    2    4 am   BACKBONE|DICT|INTERRES
     7    4    5 1    
     8    4   85 1    
     9    5    6 1    
    10    5   80 1    
    11    5   86 1    
    12    6    7 1    
    13    6   87 1    
    14    6   88 1    
    15    7    8 1    
    16    8    9 1    
    17    8   89 1    
    18    8   90 1    
    19    9   10 ar   
    20    9   14 ar   
    21   10   11 ar   
    22   10   91 1    
    23   11   12 ar   
    24   11   58 1    
    25   12   13 ar   
    26   12   92 1    
    27   13   14 ar   
    28   13   15 1    
    29   14   93 1    
    30   15   16 1    
    31   15   94 1    
    32   15   95 1    
    33   16   17 1    
    34   17   18 1    
    35   17   96 1    
    36   17   97 1    
    37   18   19 1    
    38   18   22 1    
    39   18   98 1    
    40   19   20 am   BACKBONE|DICT|INTERRES
    41   19   21 2    
    42   20   99 1    
    43   20  100 1    
    44   22   23 am   BACKBONE|DICT|INTERRES
    45   22  101 1    
    46   23   24 2    
    47   23   25 1    
    48   25   26 1    
    49   25   27 1    
    50   25  102 1    
    51   26  103 1    
    52   26  104 1    
    53   26  105 1    
    54   27   28 am   BACKBONE|DICT|INTERRES
    55   27  106 1    
    56   28   29 2    
    57   28   30 1    
    58   30   31 1    
    59   30   32 1    
    60   30  107 1    
    61   31  108 1    
    62   31  109 1    
    63   31  110 1    
    64   32   33 am   BACKBONE|DICT|INTERRES
    65   32  111 1    
    66   33   34 2    
    67   33   35 1    
    68   35   36 1    
    69   35   37 1    
    70   35  112 1    
    71   36  113 1    
    72   36  114 1    
    73   36  115 1    
    74   37   38 am   BACKBONE|DICT|INTERRES
    75   37  116 1    
    76   38   39 2    
    77   38   40 1    
    78   40   41 1    
    79   40   42 1    
    80   40  117 1    
    81   41  118 1    
    82   41  119 1    
    83   41  120 1    
    84   42   43 am   BACKBONE|DICT|INTERRES
    85   42  121 1    
    86   43   44 2    
    87   43   45 1    
    88   45   46 1    
    89   45   47 1    
    90   45  122 1    
    91   46  123 1    
    92   46  124 1    
    93   46  125 1    
    94   47   48 am   BACKBONE|DICT|INTERRES
    95   47  126 1    
    96   48   49 2    
    97   48   50 1    
    98   50   51 1    
    99   50   52 1    
   100   50  127 1    
   101   51  128 1    
   102   51  129 1    
   103   51  130 1    
   104   52   53 am   BACKBONE|DICT|INTERRES
   105   52  131 1    
   106   53   54 2    
   107   53   55 1    
   108   55   56 1    
   109   55   59 1    
   110   55  132 1    
   111   56   57 1    
   112   56  133 1    
   113   56  134 1    
   114   57   58 1    
   115   58  135 1    
   116   58  136 1    
   117   59   60 am   BACKBONE|DICT|INTERRES
   118   59  137 1    
   119   60   61 2    
   120   60   62 1    
   121   62   63 1    
   122   62   64 1    
   123   62  138 1    
   124   63  139 1    
   125   63  140 1    
   126   63  141 1    
   127   64   65 am   BACKBONE|DICT|INTERRES
   128   64  142 1    
   129   65   66 2    
   130   65   67 1    
   131   67   68 1    
   132   67   69 1    
   133   67  143 1    
   134   68  144 1    
   135   68  145 1    
   136   68  146 1    
   137   69   70 am   BACKBONE|DICT|INTERRES
   138   69  147 1    
   139   70   71 2    
   140   70   72 1    
   141   72   73 1    
   142   72   74 1    
   143   72  148 1    
   144   73  149 1    
   145   73  150 1    
   146   73  151 1    
   147   74   75 am   BACKBONE|DICT|INTERRES
   148   74  152 1    
   149   75   76 2    
   150   75   77 1    
   151   77   78 1    
   152   77   79 1    
   153   77  153 1    
   154   78  154 1    
   155   78  155 1    
   156   78  156 1    
   157   79   80 am   BACKBONE|DICT|INTERRES
   158   79  157 1    
   159   80   81 2    
@<TRIPOS>SUBSTRUCTURE
     1 UNK         1 GROUP             0       ****    0 ROOT    
