@<TRIPOS>MOLECULE
3R207
157   159    1
SMALL
USER_CHARGES


@<TRIPOS>ATOM
      1 CA        -50.9338  -25.1852    2.9415 C.3       0 UNK        -0.1975 
      2 C         -50.2777  -25.4330    4.2908 C.2       0 UNK         0.4852 
      3 O         -49.0508  -25.5070    4.3675 O.2       0 UNK        -0.5216 
      4 N         -51.0829  -25.5337    5.3601 N.am      1 UNK        -0.4461 
      5 CA        -50.6747  -25.8571    6.7397 C.3       1 UNK         0.0864 
      6 C6        -50.2604  -27.3454    6.9048 C.3       14 UNK        -0.0898 
      7 S7        -51.6346  -28.4742    6.5060 S.3       14 UNK        -0.2598 
      8 C8        -51.0135  -30.0562    7.1634 C.3       14 UNK         0.0286 
      9 C9        -50.9620  -30.0921    8.6867 C.ar      14 UNK        -0.0844 
     10 C10       -49.7566  -30.3569    9.3442 C.ar      14 UNK        -0.0881 
     11 C11       -49.7066  -30.4338   10.7402 C.ar      14 UNK        -0.0643 
     12 C12       -50.8752  -30.2341   11.4815 C.ar      14 UNK        -0.0930 
     13 C13       -52.0872  -29.9666   10.8360 C.ar      14 UNK        -0.0827 
     14 C14       -52.1248  -29.9021    9.4401 C.ar      14 UNK        -0.1249 
     15 C15       -53.3529  -29.7255   11.6431 C.3       14 UNK         0.0141 
     16 S16       -54.4425  -31.1812   11.6530 S.3       14 UNK        -0.2313 
     17 C17       -55.4288  -30.9148   13.1683 C.3       14 UNK        -0.0915 
     18 CA        -56.5978  -29.9096   12.9761 C.3       13 UNK         0.0968 
     19 C         -57.6792  -30.0430   14.0897 C.2       13 UNK         0.5732 
     20 N         -58.0886  -28.9781   14.7716 N.am      13 UNK        -0.7310 
     21 O         -58.1835  -31.1388   14.3251 O.2       13 UNK        -0.5035 
     22 N         -56.0897  -28.5389   12.8423 N.am      13 UNK        -0.4233 
     23 C         -56.5255  -27.6325   11.9599 C.2       13 UNK         0.4989 
     24 O         -57.3692  -27.8717   11.0943 O.2       13 UNK        -0.4996 
     25 CA        -55.9009  -26.2232   12.0471 C.3       12 UNK         0.0216 
     26 CB        -56.8543  -25.1207   11.5397 C.3       12 UNK        -0.1964 
     27 N         -55.3751  -25.8782   13.3754 N.am      12 UNK        -0.4276 
     28 C         -56.0529  -25.8319   14.5306 C.2       12 UNK         0.5020 
     29 O         -57.2510  -26.1067   14.6309 O.2       12 UNK        -0.5489 
     30 CA        -55.2359  -25.4647   15.7853 C.3       11 UNK         0.0294 
     31 CB        -56.0612  -25.5884   17.0831 C.3       11 UNK        -0.2019 
     32 N         -53.9804  -26.2160   15.9251 N.am      11 UNK        -0.4493 
     33 C         -53.8100  -27.5479   15.9051 C.2       11 UNK         0.4932 
     34 O         -54.7055  -28.3436   15.6196 O.2       11 UNK        -0.5029 
     35 CA        -52.4138  -28.1000   16.2661 C.3       10 UNK         0.0280 
     36 CB        -51.9650  -29.2119   15.3042 C.3       10 UNK        -0.1976 
     37 N         -51.3650  -27.0796   16.3117 N.am      10 UNK        -0.4242 
     38 C         -51.0812  -26.2922   17.3568 C.2       10 UNK         0.5072 
     39 O         -51.6753  -26.3357   18.4341 O.2       10 UNK        -0.5224 
     40 CA        -49.9664  -25.2545   17.1441 C.3       9 UNK         0.0343 
     41 CB        -48.5815  -25.8931   17.3389 C.3       9 UNK        -0.2003 
     42 N         -50.0343  -24.6270   15.8215 N.am      9 UNK        -0.4272 
     43 C         -50.9998  -23.7840   15.4265 C.2       9 UNK         0.4988 
     44 O         -51.9289  -23.4170   16.1461 O.2       9 UNK        -0.5108 
     45 CA        -50.9354  -23.3017   13.9685 C.3       8 UNK         0.0248 
     46 CB        -49.8873  -22.1897   13.8017 C.3       8 UNK        -0.2001 
     47 N         -50.6516  -24.4038   13.0460 N.am      8 UNK        -0.4140 
     48 C         -51.5366  -25.3712   12.7593 C.2       8 UNK         0.5028 
     49 O         -52.6909  -25.3811   13.1834 O.2       8 UNK        -0.5428 
     50 CA        -51.0739  -26.5419   11.8763 C.3       7 UNK         0.0264 
     51 CB        -51.4723  -26.2957   10.4152 C.3       7 UNK        -0.1988 
     52 N         -49.6398  -26.8253   11.9531 N.am      7 UNK        -0.4454 
     53 C         -48.9863  -27.1742   13.0713 C.2       7 UNK         0.5027 
     54 O         -49.5415  -27.3398   14.1571 O.2       7 UNK        -0.5083 
     55 CA        -47.4500  -27.2879   12.9975 C.3       6 UNK         0.0844 
     56 C56       -46.9893  -28.7631   12.9021 C.3       14 UNK        -0.0967 
     57 S57       -47.1367  -29.4895   11.2296 S.3       14 UNK        -0.2604 
     58 C58       -48.3989  -30.7872   11.4355 C.3       14 UNK         0.0134 
     59 N         -46.8359  -26.4423   11.9668 N.am      6 UNK        -0.4116 
     60 C         -46.9693  -25.1160   11.8403 C.2       5 UNK         0.5034 
     61 O         -47.6370  -24.4247   12.6107 O.2       5 UNK        -0.5045 
     62 CA        -46.3064  -24.4451   10.6262 C.3       5 UNK         0.0224 
     63 CB        -44.9350  -23.8474   10.9929 C.3       5 UNK        -0.1978 
     64 N         -46.2323  -25.2900    9.4248 N.am      5 UNK        -0.4737 
     65 C         -45.4643  -26.3600    9.1702 C.2       4 UNK         0.5027 
     66 O         -44.6887  -26.8569    9.9856 O.2       4 UNK        -0.5211 
     67 CA        -45.6056  -26.9965    7.7763 C.3       4 UNK         0.0297 
     68 CB        -46.6321  -28.1398    7.8050 C.3       4 UNK        -0.1993 
     69 N         -46.0040  -26.0111    6.7680 N.am      4 UNK        -0.4486 
     70 C         -45.1554  -25.1737    6.1541 C.2       3 UNK         0.4961 
     71 O         -43.9328  -25.2092    6.2967 O.2       3 UNK        -0.5105 
     72 CA        -45.7713  -24.1059    5.2334 C.3       3 UNK         0.0299 
     73 CB        -45.8738  -24.6286    3.7917 C.3       3 UNK        -0.1972 
     74 N         -47.0891  -23.6640    5.6995 N.am      3 UNK        -0.4305 
     75 C         -47.2705  -22.8394    6.7447 C.2       2 UNK         0.5006 
     76 O         -46.3452  -22.3131    7.3632 O.2       2 UNK        -0.5106 
     77 CA        -48.7147  -22.5569    7.2047 C.3       2 UNK         0.0296 
     78 CB        -49.2100  -21.2225    6.6243 C.3       2 UNK        -0.2002 
     79 N         -49.6751  -23.6118    6.8716 N.am      2 UNK        -0.4032 
     80 C         -49.6135  -24.8808    7.3012 C.2       1 UNK         0.5000 
     81 O         -48.7423  -25.2857    8.0730 O.2       1 UNK        -0.5238 
     82 H82       -52.0192  -25.1267    3.0195 H         1 UNK         0.0889 
     83 H83       -50.6861  -25.9925    2.2530 H         1 UNK         0.0889 
     84 H84       -50.5720  -24.2501    2.5147 H         1 UNK         0.0889 
     85 H85       -52.0811  -25.4537    5.2224 H         1 UNK         0.3028 
     86 H86       -51.5574  -25.6948    7.3601 H         1 UNK         0.0864 
     87 H87       -49.4067  -27.5856    6.2690 H         1 UNK         0.0720 
     88 H88       -49.9491  -27.5507    7.9294 H         1 UNK         0.0720 
     89 H89       -50.0315  -30.2572    6.7321 H         1 UNK         0.0814 
     90 H90       -51.6681  -30.8578    6.8191 H         1 UNK         0.0814 
     91 H91       -48.8533  -30.5190    8.7721 H         1 UNK         0.1469 
     92 H92       -50.8422  -30.2951   12.5603 H         1 UNK         0.1381 
     93 H93       -53.0615  -29.7019    8.9380 H         1 UNK         0.1206 
     94 H94       -53.8878  -28.8764   11.2175 H         1 UNK         0.0813 
     95 H95       -53.1082  -29.4512   12.6662 H         1 UNK         0.0813 
     96 H96       -54.7764  -30.6044   13.9856 H         1 UNK         0.0638 
     97 H97       -55.8104  -31.8970   13.4524 H         1 UNK         0.0638 
     98 H98       -57.1145  -30.1897   12.0566 H         1 UNK         0.0568 
     99 H99       -58.7950  -29.0954   15.4795 H         1 UNK         0.3450 
    100 H100      -57.7017  -28.0559   14.5989 H         1 UNK         0.3450 
    101 H101      -55.4599  -28.2430   13.5783 H         1 UNK         0.2987 
    102 H102      -55.0362  -26.2411   11.3822 H         1 UNK         0.0766 
    103 H103      -56.3845  -24.1383   11.5869 H         1 UNK         0.0798 
    104 H104      -57.7736  -25.0818   12.1251 H         1 UNK         0.0798 
    105 H105      -57.1373  -25.2919   10.5004 H         1 UNK         0.0798 
    106 H106      -54.3728  -25.6677   13.4015 H         1 UNK         0.3198 
    107 H107      -54.9547  -24.4168   15.6685 H         1 UNK         0.0843 
    108 H108      -56.3911  -26.6141   17.2530 H         1 UNK         0.0831 
    109 H109      -56.9529  -24.9614   17.0426 H         1 UNK         0.0831 
    110 H110      -55.4840  -25.2732   17.9524 H         1 UNK         0.0831 
    111 H111      -53.1629  -25.6506   16.1104 H         1 UNK         0.3133 
    112 H112      -52.5097  -28.5456   17.2581 H         1 UNK         0.0566 
    113 H113      -51.7758  -28.8142   14.3094 H         1 UNK         0.0814 
    114 H114      -51.0434  -29.6805   15.6496 H         1 UNK         0.0814 
    115 H115      -52.7129  -30.0007   15.2178 H         1 UNK         0.0814 
    116 H116      -50.7762  -27.0090   15.4833 H         1 UNK         0.3091 
    117 H117      -50.0902  -24.4726   17.8965 H         1 UNK         0.0702 
    118 H118      -47.7875  -25.1507   17.2570 H         1 UNK         0.0785 
    119 H119      -48.3869  -26.6752   16.6039 H         1 UNK         0.0785 
    120 H120      -48.4984  -26.3473   18.3273 H         1 UNK         0.0785 
    121 H121      -49.3274  -24.8964   15.1525 H         1 UNK         0.2998 
    122 H122      -51.9113  -22.8842   13.7105 H         1 UNK         0.0697 
    123 H123      -48.8849  -22.5299   14.0641 H         1 UNK         0.0825 
    124 H124      -50.1192  -21.3385   14.4433 H         1 UNK         0.0825 
    125 H125      -49.8576  -21.8231   12.7756 H         1 UNK         0.0825 
    126 H126      -49.7051  -24.4701   12.6867 H         1 UNK         0.3029 
    127 H127      -51.6000  -27.4290   12.2297 H         1 UNK         0.0897 
    128 H128      -50.9442  -25.4399    9.9944 H         1 UNK         0.0792 
    129 H129      -52.5416  -26.0986   10.3273 H         1 UNK         0.0792 
    130 H130      -51.2568  -27.1673    9.7994 H         1 UNK         0.0792 
    131 H131      -49.1068  -26.7243   11.1015 H         1 UNK         0.3086 
    132 H132      -47.0852  -26.9024   13.9518 H         1 UNK         0.0583 
    133 H133      -45.9349  -28.8183   13.1774 H         1 UNK         0.1020 
    134 H134      -47.5031  -29.3796   13.6420 H         1 UNK         0.1020 
    135 H135      -48.0138  -31.7105   11.0007 H         1 UNK         0.0694 
    136 H136      -48.5645  -31.0036   12.4913 H         1 UNK         0.0694 
    137 H137      -46.2404  -26.9156   11.2956 H         1 UNK         0.2989 
    138 H138      -46.9579  -23.6141   10.3499 H         1 UNK         0.1055 
    139 H139      -45.0308  -23.1304   11.8094 H         1 UNK         0.0806 
    140 H140      -44.4967  -23.3181   10.1466 H         1 UNK         0.0806 
    141 H141      -44.2271  -24.6109   11.3162 H         1 UNK         0.0806 
    142 H142      -46.9395  -25.0771    8.7263 H         1 UNK         0.3061 
    143 H143      -44.6372  -27.4174    7.4971 H         1 UNK         0.0734 
    144 H144      -46.2728  -28.9609    8.4256 H         1 UNK         0.0832 
    145 H145      -46.8118  -28.5449    6.8091 H         1 UNK         0.0832 
    146 H146      -47.5879  -27.8171    8.2177 H         1 UNK         0.0832 
    147 H147      -46.9962  -25.8935    6.6136 H         1 UNK         0.3156 
    148 H148      -45.1013  -23.2432    5.2278 H         1 UNK         0.0589 
    149 H149      -46.4842  -25.5299    3.7284 H         1 UNK         0.0808 
    150 H150      -46.3073  -23.8816    3.1266 H         1 UNK         0.0808 
    151 H151      -44.8872  -24.8788    3.3996 H         1 UNK         0.0808 
    152 H152      -47.8939  -24.0878    5.2469 H         1 UNK         0.3098 
    153 H153      -48.6931  -22.4688    8.2931 H         1 UNK         0.0720 
    154 H154      -50.1914  -20.9572    7.0178 H         1 UNK         0.0791 
    155 H155      -49.2804  -21.2567    5.5363 H         1 UNK         0.0791 
    156 H156      -48.5302  -20.4086    6.8812 H         1 UNK         0.0791 
    157 H157      -50.4143  -23.3658    6.2292 H         1 UNK         0.3028 
@<TRIPOS>BOND
     1    1    2 1    
     2    1   82 1    
     3    1   83 1    
     4    1   84 1    
     5    2    3 2    
     6    2    4 am   BACKBONE|DICT|INTERRES
     7    4    5 1    
     8    4   85 1    
     9    5    6 1    
    10    5   80 1    
    11    5   86 1    
    12    6    7 1    
    13    6   87 1    
    14    6   88 1    
    15    7    8 1    
    16    8    9 1    
    17    8   89 1    
    18    8   90 1    
    19    9   10 ar   
    20    9   14 ar   
    21   10   11 ar   
    22   10   91 1    
    23   11   12 ar   
    24   11   58 1    
    25   12   13 ar   
    26   12   92 1    
    27   13   14 ar   
    28   13   15 1    
    29   14   93 1    
    30   15   16 1    
    31   15   94 1    
    32   15   95 1    
    33   16   17 1    
    34   17   18 1    
    35   17   96 1    
    36   17   97 1    
    37   18   19 1    
    38   18   22 1    
    39   18   98 1    
    40   19   20 am   BACKBONE|DICT|INTERRES
    41   19   21 2    
    42   20   99 1    
    43   20  100 1    
    44   22   23 am   BACKBONE|DICT|INTERRES
    45   22  101 1    
    46   23   24 2    
    47   23   25 1    
    48   25   26 1    
    49   25   27 1    
    50   25  102 1    
    51   26  103 1    
    52   26  104 1    
    53   26  105 1    
    54   27   28 am   BACKBONE|DICT|INTERRES
    55   27  106 1    
    56   28   29 2    
    57   28   30 1    
    58   30   31 1    
    59   30   32 1    
    60   30  107 1    
    61   31  108 1    
    62   31  109 1    
    63   31  110 1    
    64   32   33 am   BACKBONE|DICT|INTERRES
    65   32  111 1    
    66   33   34 2    
    67   33   35 1    
    68   35   36 1    
    69   35   37 1    
    70   35  112 1    
    71   36  113 1    
    72   36  114 1    
    73   36  115 1    
    74   37   38 am   BACKBONE|DICT|INTERRES
    75   37  116 1    
    76   38   39 2    
    77   38   40 1    
    78   40   41 1    
    79   40   42 1    
    80   40  117 1    
    81   41  118 1    
    82   41  119 1    
    83   41  120 1    
    84   42   43 am   BACKBONE|DICT|INTERRES
    85   42  121 1    
    86   43   44 2    
    87   43   45 1    
    88   45   46 1    
    89   45   47 1    
    90   45  122 1    
    91   46  123 1    
    92   46  124 1    
    93   46  125 1    
    94   47   48 am   BACKBONE|DICT|INTERRES
    95   47  126 1    
    96   48   49 2    
    97   48   50 1    
    98   50   51 1    
    99   50   52 1    
   100   50  127 1    
   101   51  128 1    
   102   51  129 1    
   103   51  130 1    
   104   52   53 am   BACKBONE|DICT|INTERRES
   105   52  131 1    
   106   53   54 2    
   107   53   55 1    
   108   55   56 1    
   109   55   59 1    
   110   55  132 1    
   111   56   57 1    
   112   56  133 1    
   113   56  134 1    
   114   57   58 1    
   115   58  135 1    
   116   58  136 1    
   117   59   60 am   BACKBONE|DICT|INTERRES
   118   59  137 1    
   119   60   61 2    
   120   60   62 1    
   121   62   63 1    
   122   62   64 1    
   123   62  138 1    
   124   63  139 1    
   125   63  140 1    
   126   63  141 1    
   127   64   65 am   BACKBONE|DICT|INTERRES
   128   64  142 1    
   129   65   66 2    
   130   65   67 1    
   131   67   68 1    
   132   67   69 1    
   133   67  143 1    
   134   68  144 1    
   135   68  145 1    
   136   68  146 1    
   137   69   70 am   BACKBONE|DICT|INTERRES
   138   69  147 1    
   139   70   71 2    
   140   70   72 1    
   141   72   73 1    
   142   72   74 1    
   143   72  148 1    
   144   73  149 1    
   145   73  150 1    
   146   73  151 1    
   147   74   75 am   BACKBONE|DICT|INTERRES
   148   74  152 1    
   149   75   76 2    
   150   75   77 1    
   151   77   78 1    
   152   77   79 1    
   153   77  153 1    
   154   78  154 1    
   155   78  155 1    
   156   78  156 1    
   157   79   80 am   BACKBONE|DICT|INTERRES
   158   79  157 1    
   159   80   81 2    
@<TRIPOS>SUBSTRUCTURE
     1 UNK         1 GROUP             0       ****    0 ROOT    
