@<TRIPOS>MOLECULE
3R207
157   159    1
SMALL
USER_CHARGES


@<TRIPOS>ATOM
      1 CA        -48.8947  -24.4965    4.7524 C.3       0 UNK        -0.1975 
      2 C         -49.0641  -25.9162    5.2738 C.2       0 UNK         0.4852 
      3 O         -48.6181  -26.8579    4.6191 O.2       0 UNK        -0.5216 
      4 N         -49.7174  -26.0539    6.4345 N.am      1 UNK        -0.4461 
      5 CA        -50.0019  -27.2851    7.1777 C.3       1 UNK         0.0864 
      6 C6        -50.6781  -28.3878    6.3216 C.3       14 UNK        -0.0898 
      7 S7        -51.7223  -29.4894    7.3292 S.3       14 UNK        -0.2598 
      8 C8        -53.3714  -28.7771    7.0345 C.3       14 UNK         0.0286 
      9 C9        -53.5272  -27.3979    7.6617 C.ar      14 UNK        -0.0844 
     10 C10       -53.5570  -26.2478    6.8640 C.ar      14 UNK        -0.0881 
     11 C11       -53.7604  -24.9894    7.4412 C.ar      14 UNK        -0.0643 
     12 C12       -53.9552  -24.8941    8.8219 C.ar      14 UNK        -0.0930 
     13 C13       -53.8795  -26.0271    9.6331 C.ar      14 UNK        -0.0827 
     14 C14       -53.6613  -27.2766    9.0476 C.ar      14 UNK        -0.1249 
     15 C15       -54.0036  -25.8814   11.1410 C.3       14 UNK         0.0141 
     16 S16       -55.7143  -26.1124   11.7212 S.3       14 UNK        -0.2313 
     17 C17       -55.7653  -27.9174   11.9676 C.3       14 UNK        -0.0915 
     18 CA        -55.1444  -28.3415   13.3335 C.3       13 UNK         0.0968 
     19 C         -56.1137  -28.2616   14.5437 C.2       13 UNK         0.5732 
     20 N         -55.6442  -28.5675   15.7448 N.am      13 UNK        -0.7310 
     21 O         -57.2972  -27.9598   14.4062 O.2       13 UNK        -0.5035 
     22 N         -54.5059  -29.6611   13.2758 N.am      13 UNK        -0.4233 
     23 C         -53.3542  -29.9400   12.6572 C.2       13 UNK         0.4989 
     24 O         -52.6924  -29.1174   12.0241 O.2       13 UNK        -0.4996 
     25 CA        -52.8274  -31.3751   12.8245 C.3       12 UNK         0.0216 
     26 CB        -51.7630  -31.7404   11.7720 C.3       12 UNK        -0.1964 
     27 N         -52.2466  -31.5033   14.1583 N.am      12 UNK        -0.4276 
     28 C         -52.9387  -31.7724   15.2727 C.2       12 UNK         0.5020 
     29 O         -54.1171  -32.1308   15.2785 O.2       12 UNK        -0.5489 
     30 CA        -52.2064  -31.5328   16.6059 C.3       11 UNK         0.0294 
     31 CB        -51.4295  -32.7885   17.0329 C.3       11 UNK        -0.2019 
     32 N         -51.2972  -30.3788   16.5595 N.am      11 UNK        -0.4493 
     33 C         -51.6861  -29.1148   16.3354 C.2       11 UNK         0.4932 
     34 O         -52.8617  -28.7792   16.1790 O.2       11 UNK        -0.5029 
     35 CA        -50.5637  -28.0725   16.2053 C.3       10 UNK         0.0280 
     36 CB        -49.9486  -28.1347   14.7977 C.3       10 UNK        -0.1976 
     37 N         -51.0515  -26.7137   16.4539 N.am      10 UNK        -0.4242 
     38 C         -51.3713  -26.2379   17.6682 C.2       10 UNK         0.5072 
     39 O         -51.2245  -26.8831   18.7082 O.2       10 UNK        -0.5224 
     40 CA        -51.9188  -24.7990   17.7692 C.3       9 UNK         0.0343 
     41 CB        -50.8463  -23.8563   18.3407 C.3       9 UNK        -0.2003 
     42 N         -52.3902  -24.2560   16.4953 N.am      9 UNK        -0.4272 
     43 C         -53.5292  -24.6059   15.8819 C.2       9 UNK         0.4988 
     44 O         -54.3709  -25.3510   16.3818 O.2       9 UNK        -0.5108 
     45 CA        -53.7731  -24.0404   14.4679 C.3       8 UNK         0.0248 
     46 CB        -54.8686  -22.9627   14.4915 C.3       8 UNK        -0.2001 
     47 N         -52.5785  -23.5007   13.8018 N.am      8 UNK        -0.4140 
     48 C         -51.4948  -24.2171   13.4757 C.2       8 UNK         0.5028 
     49 O         -51.3880  -25.4235   13.6963 O.2       8 UNK        -0.5428 
     50 CA        -50.3340  -23.4562   12.8207 C.3       7 UNK         0.0264 
     51 CB        -48.9689  -24.0123   13.2667 C.3       7 UNK        -0.1988 
     52 N         -50.4194  -23.5416   11.3671 N.am      7 UNK        -0.4454 
     53 C         -51.1866  -22.7799   10.5770 C.2       7 UNK         0.5027 
     54 O         -51.9460  -21.9077   11.0021 O.2       7 UNK        -0.5083 
     55 CA        -51.0366  -23.0227    9.0574 C.3       6 UNK         0.0844 
     56 C56       -52.0152  -22.1949    8.1858 C.3       14 UNK        -0.0967 
     57 S57       -52.1559  -22.9101    6.5091 S.3       14 UNK        -0.2604 
     58 C58       -53.7839  -23.7340    6.5780 C.3       14 UNK         0.0134 
     59 N         -49.6425  -22.8110    8.6461 N.am      6 UNK        -0.4116 
     60 C         -48.6750  -23.7220    8.7816 C.2       5 UNK         0.5034 
     61 O         -48.8824  -24.8498    9.2288 O.2       5 UNK        -0.5045 
     62 CA        -47.2536  -23.3048    8.3980 C.3       5 UNK         0.0224 
     63 CB        -46.5117  -22.7468    9.6233 C.3       5 UNK        -0.1978 
     64 N         -46.5434  -24.4821    7.9068 N.am      5 UNK        -0.4737 
     65 C         -45.8172  -24.5343    6.7841 C.2       4 UNK         0.5027 
     66 O         -45.6079  -23.5535    6.0688 O.2       4 UNK        -0.5211 
     67 CA        -45.2639  -25.9110    6.3644 C.3       4 UNK         0.0297 
     68 CB        -44.0074  -25.8116    5.4725 C.3       4 UNK        -0.1993 
     69 N         -45.0560  -26.8280    7.4904 N.am      4 UNK        -0.4486 
     70 C         -44.1649  -26.7106    8.4882 C.2       3 UNK         0.4961 
     71 O         -43.3370  -25.8017    8.5665 O.2       3 UNK        -0.5105 
     72 CA        -44.2056  -27.8031    9.5803 C.3       3 UNK         0.0299 
     73 CB        -43.5810  -27.3389   10.9141 C.3       3 UNK        -0.1972 
     74 N         -45.5472  -28.3637    9.7973 N.am      3 UNK        -0.4305 
     75 C         -46.6413  -27.6920   10.1852 C.2       2 UNK         0.5006 
     76 O         -46.6514  -26.4953   10.4745 O.2       2 UNK        -0.5106 
     77 CA        -47.9532  -28.4955   10.2196 C.3       2 UNK         0.0296 
     78 CB        -48.5647  -28.4814   11.6304 C.3       2 UNK        -0.2002 
     79 N         -48.9461  -27.9900    9.2685 N.am      2 UNK        -0.4032 
     80 C         -48.7727  -27.8121    7.9498 C.2       1 UNK         0.5000 
     81 O         -47.7233  -28.0747    7.3550 O.2       1 UNK        -0.5238 
     82 H82       -49.5439  -24.3346    3.8924 H         1 UNK         0.0889 
     83 H83       -47.8653  -24.3292    4.4367 H         1 UNK         0.0889 
     84 H84       -49.1404  -23.7508    5.5084 H         1 UNK         0.0889 
     85 H85       -50.0400  -25.2182    6.9011 H         1 UNK         0.3028 
     86 H86       -50.7285  -26.9543    7.9218 H         1 UNK         0.0864 
     87 H87       -49.9369  -28.9878    5.7902 H         1 UNK         0.0720 
     88 H88       -51.2996  -27.9383    5.5459 H         1 UNK         0.0720 
     89 H89       -54.1212  -29.4467    7.4584 H         1 UNK         0.0814 
     90 H90       -53.5698  -28.7437    5.9621 H         1 UNK         0.0814 
     91 H91       -53.4294  -26.3312    5.7933 H         1 UNK         0.1469 
     92 H92       -54.1435  -23.9323    9.2761 H         1 UNK         0.1381 
     93 H93       -53.5959  -28.1603    9.6664 H         1 UNK         0.1206 
     94 H94       -53.3293  -26.5731   11.6473 H         1 UNK         0.0813 
     95 H95       -53.6763  -24.8836   11.4345 H         1 UNK         0.0813 
     96 H96       -55.2410  -28.3841   11.1363 H         1 UNK         0.0638 
     97 H97       -56.7964  -28.2614   11.8734 H         1 UNK         0.0638 
     98 H98       -54.3472  -27.6355   13.5761 H         1 UNK         0.0568 
     99 H99       -56.2605  -28.5250   16.5396 H         1 UNK         0.3450 
    100 H100      -54.6482  -28.7313   15.8841 H         1 UNK         0.3450 
    101 H101      -54.9415  -30.3770   13.8442 H         1 UNK         0.2987 
    102 H102      -53.6657  -32.0660   12.7108 H         1 UNK         0.0766 
    103 H103      -52.1577  -31.6209   10.7619 H         1 UNK         0.0798 
    104 H104      -51.4451  -32.7780   11.8753 H         1 UNK         0.0798 
    105 H105      -50.8767  -31.1102   11.8509 H         1 UNK         0.0798 
    106 H106      -51.2953  -31.1833   14.2641 H         1 UNK         0.3198 
    107 H107      -52.9660  -31.3255   17.3629 H         1 UNK         0.0843 
    108 H108      -50.6351  -33.0351   16.3273 H         1 UNK         0.0831 
    109 H109      -52.0917  -33.6535   17.0922 H         1 UNK         0.0831 
    110 H110      -50.9785  -32.6614   18.0172 H         1 UNK         0.0831 
    111 H111      -50.3130  -30.5694   16.6865 H         1 UNK         0.3133 
    112 H112      -49.7856  -28.2989   16.9373 H         1 UNK         0.0566 
    113 H113      -50.7040  -27.9963   14.0219 H         1 UNK         0.0814 
    114 H114      -49.4712  -29.0981   14.6170 H         1 UNK         0.0814 
    115 H115      -49.1875  -27.3663   14.6603 H         1 UNK         0.0814 
    116 H116      -51.2446  -26.1521   15.6307 H         1 UNK         0.3091 
    117 H117      -52.7602  -24.8203   18.4652 H         1 UNK         0.0702 
    118 H118      -51.2383  -22.8494   18.4855 H         1 UNK         0.0785 
    119 H119      -49.9766  -23.7892   17.6856 H         1 UNK         0.0785 
    120 H120      -50.4954  -24.2073   19.3123 H         1 UNK         0.0785 
    121 H121      -51.7682  -23.6232   16.0152 H         1 UNK         0.2998 
    122 H122      -54.1328  -24.8764   13.8680 H         1 UNK         0.0697 
    123 H123      -54.5601  -22.0851   15.0610 H         1 UNK         0.0825 
    124 H124      -55.7823  -23.3445   14.9495 H         1 UNK         0.0825 
    125 H125      -55.1275  -22.6385   13.4833 H         1 UNK         0.0825 
    126 H126      -52.6010  -22.5208   13.5533 H         1 UNK         0.3029 
    127 H127      -50.3843  -22.4079   13.1236 H         1 UNK         0.0897 
    128 H128      -48.8269  -25.0464   12.9482 H         1 UNK         0.0792 
    129 H129      -48.8723  -23.9898   14.3529 H         1 UNK         0.0792 
    130 H130      -48.1484  -23.4241   12.8551 H         1 UNK         0.0792 
    131 H131      -49.8389  -24.2437   10.9183 H         1 UNK         0.3086 
    132 H132      -51.2868  -24.0756    8.9110 H         1 UNK         0.0583 
    133 H133      -53.0079  -22.1338    8.6317 H         1 UNK         0.1020 
    134 H134      -51.6766  -21.1608    8.1033 H         1 UNK         0.1020 
    135 H135      -54.5362  -23.0348    6.9463 H         1 UNK         0.0694 
    136 H136      -54.0855  -23.9907    5.5614 H         1 UNK         0.0694 
    137 H137      -49.4122  -21.8877    8.3080 H         1 UNK         0.2989 
    138 H138      -47.3110  -22.5366    7.6235 H         1 UNK         0.1055 
    139 H139      -46.4498  -23.4853   10.4247 H         1 UNK         0.0806 
    140 H140      -47.0175  -21.8680   10.0252 H         1 UNK         0.0806 
    141 H141      -45.4950  -22.4486    9.3667 H         1 UNK         0.0806 
    142 H142      -46.6999  -25.3270    8.4472 H         1 UNK         0.3061 
    143 H143      -46.0478  -26.3694    5.7603 H         1 UNK         0.0734 
    144 H144      -43.1959  -25.2803    5.9703 H         1 UNK         0.0832 
    145 H145      -43.6411  -26.7984    5.1897 H         1 UNK         0.0832 
    146 H146      -44.2264  -25.2730    4.5498 H         1 UNK         0.0832 
    147 H147      -45.7444  -27.5734    7.5501 H         1 UNK         0.3156 
    148 H148      -43.5941  -28.6237    9.2023 H         1 UNK         0.0589 
    149 H149      -43.6140  -28.1284   11.6647 H         1 UNK         0.0808 
    150 H150      -42.5339  -27.0639   10.7816 H         1 UNK         0.0808 
    151 H151      -44.0953  -26.4673   11.3203 H         1 UNK         0.0808 
    152 H152      -45.6497  -29.3421    9.5635 H         1 UNK         0.3098 
    153 H153      -47.7443  -29.5323    9.9492 H         1 UNK         0.0720 
    154 H154      -48.8296  -27.4699   11.9426 H         1 UNK         0.0791 
    155 H155      -47.8623  -28.8761   12.3656 H         1 UNK         0.0791 
    156 H156      -49.4668  -29.0911   11.6818 H         1 UNK         0.0791 
    157 H157      -49.8321  -27.7196    9.6688 H         1 UNK         0.3028 
@<TRIPOS>BOND
     1    1    2 1    
     2    1   82 1    
     3    1   83 1    
     4    1   84 1    
     5    2    3 2    
     6    2    4 am   BACKBONE|DICT|INTERRES
     7    4    5 1    
     8    4   85 1    
     9    5    6 1    
    10    5   80 1    
    11    5   86 1    
    12    6    7 1    
    13    6   87 1    
    14    6   88 1    
    15    7    8 1    
    16    8    9 1    
    17    8   89 1    
    18    8   90 1    
    19    9   10 ar   
    20    9   14 ar   
    21   10   11 ar   
    22   10   91 1    
    23   11   12 ar   
    24   11   58 1    
    25   12   13 ar   
    26   12   92 1    
    27   13   14 ar   
    28   13   15 1    
    29   14   93 1    
    30   15   16 1    
    31   15   94 1    
    32   15   95 1    
    33   16   17 1    
    34   17   18 1    
    35   17   96 1    
    36   17   97 1    
    37   18   19 1    
    38   18   22 1    
    39   18   98 1    
    40   19   20 am   BACKBONE|DICT|INTERRES
    41   19   21 2    
    42   20   99 1    
    43   20  100 1    
    44   22   23 am   BACKBONE|DICT|INTERRES
    45   22  101 1    
    46   23   24 2    
    47   23   25 1    
    48   25   26 1    
    49   25   27 1    
    50   25  102 1    
    51   26  103 1    
    52   26  104 1    
    53   26  105 1    
    54   27   28 am   BACKBONE|DICT|INTERRES
    55   27  106 1    
    56   28   29 2    
    57   28   30 1    
    58   30   31 1    
    59   30   32 1    
    60   30  107 1    
    61   31  108 1    
    62   31  109 1    
    63   31  110 1    
    64   32   33 am   BACKBONE|DICT|INTERRES
    65   32  111 1    
    66   33   34 2    
    67   33   35 1    
    68   35   36 1    
    69   35   37 1    
    70   35  112 1    
    71   36  113 1    
    72   36  114 1    
    73   36  115 1    
    74   37   38 am   BACKBONE|DICT|INTERRES
    75   37  116 1    
    76   38   39 2    
    77   38   40 1    
    78   40   41 1    
    79   40   42 1    
    80   40  117 1    
    81   41  118 1    
    82   41  119 1    
    83   41  120 1    
    84   42   43 am   BACKBONE|DICT|INTERRES
    85   42  121 1    
    86   43   44 2    
    87   43   45 1    
    88   45   46 1    
    89   45   47 1    
    90   45  122 1    
    91   46  123 1    
    92   46  124 1    
    93   46  125 1    
    94   47   48 am   BACKBONE|DICT|INTERRES
    95   47  126 1    
    96   48   49 2    
    97   48   50 1    
    98   50   51 1    
    99   50   52 1    
   100   50  127 1    
   101   51  128 1    
   102   51  129 1    
   103   51  130 1    
   104   52   53 am   BACKBONE|DICT|INTERRES
   105   52  131 1    
   106   53   54 2    
   107   53   55 1    
   108   55   56 1    
   109   55   59 1    
   110   55  132 1    
   111   56   57 1    
   112   56  133 1    
   113   56  134 1    
   114   57   58 1    
   115   58  135 1    
   116   58  136 1    
   117   59   60 am   BACKBONE|DICT|INTERRES
   118   59  137 1    
   119   60   61 2    
   120   60   62 1    
   121   62   63 1    
   122   62   64 1    
   123   62  138 1    
   124   63  139 1    
   125   63  140 1    
   126   63  141 1    
   127   64   65 am   BACKBONE|DICT|INTERRES
   128   64  142 1    
   129   65   66 2    
   130   65   67 1    
   131   67   68 1    
   132   67   69 1    
   133   67  143 1    
   134   68  144 1    
   135   68  145 1    
   136   68  146 1    
   137   69   70 am   BACKBONE|DICT|INTERRES
   138   69  147 1    
   139   70   71 2    
   140   70   72 1    
   141   72   73 1    
   142   72   74 1    
   143   72  148 1    
   144   73  149 1    
   145   73  150 1    
   146   73  151 1    
   147   74   75 am   BACKBONE|DICT|INTERRES
   148   74  152 1    
   149   75   76 2    
   150   75   77 1    
   151   77   78 1    
   152   77   79 1    
   153   77  153 1    
   154   78  154 1    
   155   78  155 1    
   156   78  156 1    
   157   79   80 am   BACKBONE|DICT|INTERRES
   158   79  157 1    
   159   80   81 2    
@<TRIPOS>SUBSTRUCTURE
     1 UNK         1 GROUP             0       ****    0 ROOT    
