@<TRIPOS>MOLECULE
3R207
157   159    1
SMALL
USER_CHARGES


@<TRIPOS>ATOM
      1 CA        -44.6046  -30.5964    7.6350 C.3       0 UNK        -0.1975 
      2 C         -45.2561  -30.2995    6.2925 C.2       0 UNK         0.4852 
      3 O         -44.5592  -30.2214    5.2803 O.2       0 UNK        -0.5216 
      4 N         -46.5870  -30.1439    6.2771 N.am      1 UNK        -0.4461 
      5 CA        -47.3932  -29.8431    5.0869 C.3       1 UNK         0.0864 
      6 C6        -48.9060  -30.0567    5.3480 C.3       14 UNK        -0.0898 
      7 S7        -49.5426  -29.1178    6.7787 S.3       14 UNK        -0.2598 
      8 C8        -51.3329  -29.2899    6.5291 C.3       14 UNK         0.0286 
      9 C9        -52.0875  -28.3651    7.4682 C.ar      14 UNK        -0.0844 
     10 C10       -52.3071  -27.0342    7.1021 C.ar      14 UNK        -0.0881 
     11 C11       -52.9780  -26.1631    7.9640 C.ar      14 UNK        -0.0643 
     12 C12       -53.4434  -26.6372    9.1934 C.ar      14 UNK        -0.0930 
     13 C13       -53.2111  -27.9600    9.5784 C.ar      14 UNK        -0.0827 
     14 C14       -52.5405  -28.8250    8.7088 C.ar      14 UNK        -0.1249 
     15 C15       -53.6269  -28.4212   10.9635 C.3       14 UNK         0.0141 
     16 S16       -55.3734  -28.9117   11.0387 S.3       14 UNK        -0.2313 
     17 C17       -55.5974  -28.8182   12.8441 C.3       14 UNK        -0.0915 
     18 CA        -56.8109  -29.6204   13.3743 C.3       13 UNK         0.0968 
     19 C         -56.5220  -31.1470   13.4194 C.2       13 UNK         0.5732 
     20 N         -56.8990  -31.8849   12.3843 N.am      13 UNK        -0.7310 
     21 O         -55.9333  -31.6596   14.3702 O.2       13 UNK        -0.5035 
     22 N         -57.2222  -29.0907   14.6805 N.am      13 UNK        -0.4233 
     23 C         -58.3567  -29.4073   15.3202 C.2       13 UNK         0.4989 
     24 O         -59.2210  -30.1485   14.8500 O.2       13 UNK        -0.4996 
     25 CA        -58.5840  -28.7996   16.7200 C.3       12 UNK         0.0216 
     26 CB        -58.3167  -29.8525   17.8086 C.3       12 UNK        -0.1964 
     27 N         -57.7663  -27.6148   16.9943 N.am      12 UNK        -0.4276 
     28 C         -57.9003  -26.4254   16.3914 C.2       12 UNK         0.5020 
     29 O         -58.8048  -26.1624   15.5979 O.2       12 UNK        -0.5489 
     30 CA        -56.8426  -25.3482   16.7072 C.3       11 UNK         0.0294 
     31 CB        -57.4314  -24.2800   17.6438 C.3       11 UNK        -0.2019 
     32 N         -55.5865  -25.8503   17.2840 N.am      11 UNK        -0.4493 
     33 C         -54.7415  -26.7059   16.6925 C.2       11 UNK         0.4932 
     34 O         -54.9658  -27.2571   15.6130 O.2       11 UNK        -0.5029 
     35 CA        -53.4702  -27.0561   17.4825 C.3       10 UNK         0.0280 
     36 CB        -53.7558  -28.2072   18.4616 C.3       10 UNK        -0.1976 
     37 N         -52.3746  -27.4488   16.5950 N.am      10 UNK        -0.4242 
     38 C         -51.6812  -26.6093   15.8150 C.2       10 UNK         0.5072 
     39 O         -51.8453  -25.3867   15.7999 O.2       10 UNK        -0.5224 
     40 CA        -50.6605  -27.2714   14.8706 C.3       9 UNK         0.0343 
     41 CB        -51.3466  -27.6964   13.5642 C.3       9 UNK        -0.2003 
     42 N         -49.5176  -26.4144   14.5466 N.am      9 UNK        -0.4272 
     43 C         -48.6027  -25.9852   15.4266 C.2       9 UNK         0.4988 
     44 O         -48.6135  -26.2771   16.6238 O.2       9 UNK        -0.5108 
     45 CA        -47.4540  -25.1157   14.8850 C.3       8 UNK         0.0248 
     46 CB        -46.2680  -26.0020   14.4721 C.3       8 UNK        -0.2001 
     47 N         -47.8356  -24.2534   13.7620 N.am      8 UNK        -0.4140 
     48 C         -48.6176  -23.1696   13.8733 C.2       8 UNK         0.5028 
     49 O         -49.0932  -22.7759   14.9391 O.2       8 UNK        -0.5428 
     50 CA        -48.9046  -22.3699   12.5892 C.3       7 UNK         0.0264 
     51 CB        -47.7638  -21.3807   12.3009 C.3       7 UNK        -0.1988 
     52 N         -49.1275  -23.2109   11.4117 N.am      7 UNK        -0.4454 
     53 C         -50.1844  -24.0199   11.2419 C.2       7 UNK         0.5027 
     54 O         -51.1035  -24.1224   12.0550 O.2       7 UNK        -0.5083 
     55 CA        -50.1943  -24.8928    9.9654 C.3       6 UNK         0.0844 
     56 C56       -50.6357  -24.0915    8.7117 C.3       14 UNK        -0.0967 
     57 S57       -52.3847  -23.5638    8.7607 S.3       14 UNK        -0.2604 
     58 C58       -53.1750  -24.7042    7.5784 C.3       14 UNK         0.0134 
     59 N         -48.9042  -25.5585    9.7535 N.am      6 UNK        -0.4116 
     60 C         -48.2982  -26.3732   10.6311 C.2       5 UNK         0.5034 
     61 O         -48.7908  -26.7299   11.7000 O.2       5 UNK        -0.5045 
     62 CA        -46.8644  -26.8073   10.2935 C.3       5 UNK         0.0224 
     63 CB        -46.8556  -28.0267    9.3601 C.3       5 UNK        -0.1978 
     64 N         -46.0914  -25.7126    9.7016 N.am      5 UNK        -0.4737 
     65 C         -45.6700  -24.6390   10.3851 C.2       4 UNK         0.5027 
     66 O         -45.8496  -24.4862   11.5921 O.2       4 UNK        -0.5211 
     67 CA        -44.9734  -23.5299    9.5785 C.3       4 UNK         0.0297 
     68 CB        -43.4914  -23.8709    9.3573 C.3       4 UNK        -0.1993 
     69 N         -45.6207  -23.2796    8.2882 N.am      4 UNK        -0.4486 
     70 C         -46.8673  -22.8067    8.1474 C.2       3 UNK         0.4961 
     71 O         -47.5799  -22.4707    9.0924 O.2       3 UNK        -0.5105 
     72 CA        -47.4363  -22.7436    6.7176 C.3       3 UNK         0.0299 
     73 CB        -47.1245  -21.3819    6.0778 C.3       3 UNK        -0.1972 
     74 N         -46.9696  -23.8205    5.8350 N.am      3 UNK        -0.4305 
     75 C         -47.1138  -25.1320    6.0717 C.2       2 UNK         0.5006 
     76 O         -47.6474  -25.5903    7.0860 O.2       2 UNK        -0.5106 
     77 CA        -46.5208  -26.0808    5.0225 C.3       2 UNK         0.0296 
     78 CB        -44.9858  -25.9595    4.9614 C.3       2 UNK        -0.2002 
     79 N         -46.8754  -27.4559    5.3593 N.am      2 UNK        -0.4032 
     80 C         -47.0946  -28.4489    4.4894 C.2       1 UNK         0.5000 
     81 O         -47.0445  -28.3118    3.2650 O.2       1 UNK        -0.5238 
     82 H82       -43.9586  -29.7698    7.9294 H         1 UNK         0.0889 
     83 H83       -43.9947  -31.4967    7.5646 H         1 UNK         0.0889 
     84 H84       -45.3427  -30.7515    8.4217 H         1 UNK         0.0889 
     85 H85       -47.1112  -30.2295    7.1365 H         1 UNK         0.3028 
     86 H86       -47.0990  -30.5654    4.3220 H         1 UNK         0.0864 
     87 H87       -49.4853  -29.8009    4.4584 H         1 UNK         0.0720 
     88 H88       -49.0976  -31.1152    5.5313 H         1 UNK         0.0720 
     89 H89       -51.6264  -30.3279    6.6928 H         1 UNK         0.0814 
     90 H90       -51.5875  -29.0534    5.4948 H         1 UNK         0.0814 
     91 H91       -51.9367  -26.6743    6.1518 H         1 UNK         0.1469 
     92 H92       -53.9520  -25.9622    9.8684 H         1 UNK         0.1381 
     93 H93       -52.3507  -29.8475    9.0059 H         1 UNK         0.1206 
     94 H94       -53.0009  -29.2494   11.2992 H         1 UNK         0.0813 
     95 H95       -53.4625  -27.6034   11.6653 H         1 UNK         0.0813 
     96 H96       -54.6812  -29.1251   13.3530 H         1 UNK         0.0638 
     97 H97       -55.7242  -27.7587   13.0735 H         1 UNK         0.0638 
     98 H98       -57.6514  -29.4525   12.6978 H         1 UNK         0.0568 
     99 H99       -56.7094  -32.8746   12.3917 H         1 UNK         0.3450 
    100 H100      -57.3573  -31.4669   11.5897 H         1 UNK         0.3450 
    101 H101      -56.5501  -28.4847   15.1376 H         1 UNK         0.2987 
    102 H102      -59.6338  -28.5043   16.7785 H         1 UNK         0.0766 
    103 H103      -58.5466  -29.4659   18.8018 H         1 UNK         0.0798 
    104 H104      -57.2763  -30.1809   17.8064 H         1 UNK         0.0798 
    105 H105      -58.9369  -30.7372   17.6568 H         1 UNK         0.0798 
    106 H106      -56.9979  -27.7295   17.6386 H         1 UNK         0.3198 
    107 H107      -56.5921  -24.8687   15.7585 H         1 UNK         0.0843 
    108 H108      -57.6757  -24.6922   18.6236 H         1 UNK         0.0831 
    109 H109      -58.3495  -23.8600   17.2300 H         1 UNK         0.0831 
    110 H110      -56.7382  -23.4512   17.7891 H         1 UNK         0.0831 
    111 H111      -55.3278  -25.4701   18.1840 H         1 UNK         0.3133 
    112 H112      -53.1551  -26.1791   18.0521 H         1 UNK         0.0566 
    113 H113      -52.8698  -28.4619   19.0438 H         1 UNK         0.0814 
    114 H114      -54.5377  -27.9358   19.1721 H         1 UNK         0.0814 
    115 H115      -54.0861  -29.1082   17.9423 H         1 UNK         0.0814 
    116 H116      -52.2060  -28.4401   16.5058 H         1 UNK         0.3091 
    117 H117      -50.2696  -28.1647   15.3621 H         1 UNK         0.0702 
    118 H118      -50.6772  -28.2836   12.9353 H         1 UNK         0.0785 
    119 H119      -52.2271  -28.3093   13.7612 H         1 UNK         0.0785 
    120 H120      -51.6688  -26.8270   12.9895 H         1 UNK         0.0785 
    121 H121      -49.4004  -26.1707   13.5688 H         1 UNK         0.2998 
    122 H122      -47.1211  -24.4712   15.7014 H         1 UNK         0.0697 
    123 H123      -46.5274  -26.6571   13.6401 H         1 UNK         0.0825 
    124 H124      -45.9462  -26.6361   15.2993 H         1 UNK         0.0825 
    125 H125      -45.4089  -25.4018   14.1720 H         1 UNK         0.0825 
    126 H126      -47.4123  -24.4607   12.8624 H         1 UNK         0.3029 
    127 H127      -49.8166  -21.7938   12.7606 H         1 UNK         0.0897 
    128 H128      -46.8262  -21.8962   12.0893 H         1 UNK         0.0792 
    129 H129      -47.5909  -20.7234   13.1541 H         1 UNK         0.0792 
    130 H130      -47.9958  -20.7471   11.4445 H         1 UNK         0.0792 
    131 H131      -48.4454  -23.1333   10.6606 H         1 UNK         0.3086 
    132 H132      -50.9186  -25.6930   10.1281 H         1 UNK         0.0583 
    133 H133      -50.0242  -23.1979    8.5901 H         1 UNK         0.1020 
    134 H134      -50.4706  -24.6861    7.8115 H         1 UNK         0.1020 
    135 H135      -54.2434  -24.4880    7.5384 H         1 UNK         0.0694 
    136 H136      -52.7822  -24.5058    6.5799 H         1 UNK         0.0694 
    137 H137      -48.4285  -25.3702    8.8765 H         1 UNK         0.2989 
    138 H138      -46.3785  -27.0973   11.2276 H         1 UNK         0.1055 
    139 H139      -47.3686  -28.8714    9.8219 H         1 UNK         0.0806 
    140 H140      -45.8373  -28.3442    9.1389 H         1 UNK         0.0806 
    141 H141      -47.3596  -27.8200    8.4177 H         1 UNK         0.0806 
    142 H142      -45.9766  -25.7247    8.6980 H         1 UNK         0.3061 
    143 H143      -45.0287  -22.6104   10.1654 H         1 UNK         0.0734 
    144 H144      -42.9661  -23.0553    8.8600 H         1 UNK         0.0832 
    145 H145      -42.9871  -24.0454   10.3089 H         1 UNK         0.0832 
    146 H146      -43.3662  -24.7704    8.7532 H         1 UNK         0.0832 
    147 H147      -45.1023  -23.5205    7.4564 H         1 UNK         0.3156 
    148 H148      -48.5206  -22.8390    6.7924 H         1 UNK         0.0589 
    149 H149      -46.0528  -21.2364    5.9358 H         1 UNK         0.0808 
    150 H150      -47.6103  -21.2774    5.1075 H         1 UNK         0.0808 
    151 H151      -47.4834  -20.5650    6.7059 H         1 UNK         0.0808 
    152 H152      -46.5175  -23.5331    4.9784 H         1 UNK         0.3098 
    153 H153      -46.9513  -25.8166    4.0543 H         1 UNK         0.0720 
    154 H154      -44.5657  -26.6484    4.2280 H         1 UNK         0.0791 
    155 H155      -44.5256  -26.1828    5.9249 H         1 UNK         0.0791 
    156 H156      -44.6724  -24.9563    4.6708 H         1 UNK         0.0791 
    157 H157      -47.0474  -27.6208    6.3418 H         1 UNK         0.3028 
@<TRIPOS>BOND
     1    1    2 1    
     2    1   82 1    
     3    1   83 1    
     4    1   84 1    
     5    2    3 2    
     6    2    4 am   BACKBONE|DICT|INTERRES
     7    4    5 1    
     8    4   85 1    
     9    5    6 1    
    10    5   80 1    
    11    5   86 1    
    12    6    7 1    
    13    6   87 1    
    14    6   88 1    
    15    7    8 1    
    16    8    9 1    
    17    8   89 1    
    18    8   90 1    
    19    9   10 ar   
    20    9   14 ar   
    21   10   11 ar   
    22   10   91 1    
    23   11   12 ar   
    24   11   58 1    
    25   12   13 ar   
    26   12   92 1    
    27   13   14 ar   
    28   13   15 1    
    29   14   93 1    
    30   15   16 1    
    31   15   94 1    
    32   15   95 1    
    33   16   17 1    
    34   17   18 1    
    35   17   96 1    
    36   17   97 1    
    37   18   19 1    
    38   18   22 1    
    39   18   98 1    
    40   19   20 am   BACKBONE|DICT|INTERRES
    41   19   21 2    
    42   20   99 1    
    43   20  100 1    
    44   22   23 am   BACKBONE|DICT|INTERRES
    45   22  101 1    
    46   23   24 2    
    47   23   25 1    
    48   25   26 1    
    49   25   27 1    
    50   25  102 1    
    51   26  103 1    
    52   26  104 1    
    53   26  105 1    
    54   27   28 am   BACKBONE|DICT|INTERRES
    55   27  106 1    
    56   28   29 2    
    57   28   30 1    
    58   30   31 1    
    59   30   32 1    
    60   30  107 1    
    61   31  108 1    
    62   31  109 1    
    63   31  110 1    
    64   32   33 am   BACKBONE|DICT|INTERRES
    65   32  111 1    
    66   33   34 2    
    67   33   35 1    
    68   35   36 1    
    69   35   37 1    
    70   35  112 1    
    71   36  113 1    
    72   36  114 1    
    73   36  115 1    
    74   37   38 am   BACKBONE|DICT|INTERRES
    75   37  116 1    
    76   38   39 2    
    77   38   40 1    
    78   40   41 1    
    79   40   42 1    
    80   40  117 1    
    81   41  118 1    
    82   41  119 1    
    83   41  120 1    
    84   42   43 am   BACKBONE|DICT|INTERRES
    85   42  121 1    
    86   43   44 2    
    87   43   45 1    
    88   45   46 1    
    89   45   47 1    
    90   45  122 1    
    91   46  123 1    
    92   46  124 1    
    93   46  125 1    
    94   47   48 am   BACKBONE|DICT|INTERRES
    95   47  126 1    
    96   48   49 2    
    97   48   50 1    
    98   50   51 1    
    99   50   52 1    
   100   50  127 1    
   101   51  128 1    
   102   51  129 1    
   103   51  130 1    
   104   52   53 am   BACKBONE|DICT|INTERRES
   105   52  131 1    
   106   53   54 2    
   107   53   55 1    
   108   55   56 1    
   109   55   59 1    
   110   55  132 1    
   111   56   57 1    
   112   56  133 1    
   113   56  134 1    
   114   57   58 1    
   115   58  135 1    
   116   58  136 1    
   117   59   60 am   BACKBONE|DICT|INTERRES
   118   59  137 1    
   119   60   61 2    
   120   60   62 1    
   121   62   63 1    
   122   62   64 1    
   123   62  138 1    
   124   63  139 1    
   125   63  140 1    
   126   63  141 1    
   127   64   65 am   BACKBONE|DICT|INTERRES
   128   64  142 1    
   129   65   66 2    
   130   65   67 1    
   131   67   68 1    
   132   67   69 1    
   133   67  143 1    
   134   68  144 1    
   135   68  145 1    
   136   68  146 1    
   137   69   70 am   BACKBONE|DICT|INTERRES
   138   69  147 1    
   139   70   71 2    
   140   70   72 1    
   141   72   73 1    
   142   72   74 1    
   143   72  148 1    
   144   73  149 1    
   145   73  150 1    
   146   73  151 1    
   147   74   75 am   BACKBONE|DICT|INTERRES
   148   74  152 1    
   149   75   76 2    
   150   75   77 1    
   151   77   78 1    
   152   77   79 1    
   153   77  153 1    
   154   78  154 1    
   155   78  155 1    
   156   78  156 1    
   157   79   80 am   BACKBONE|DICT|INTERRES
   158   79  157 1    
   159   80   81 2    
@<TRIPOS>SUBSTRUCTURE
     1 UNK         1 GROUP             0       ****    0 ROOT    
