@<TRIPOS>MOLECULE
3R207
157   159    1
SMALL
USER_CHARGES


@<TRIPOS>ATOM
      1 CA        -49.3214  -30.1608    0.2059 C.3       0 UNK        -0.1975 
      2 C         -49.5494  -29.8217    1.6716 C.2       0 UNK         0.4852 
      3 O         -50.6842  -29.8872    2.1460 O.2       0 UNK        -0.5216 
      4 N         -48.4825  -29.4585    2.3903 N.am      1 UNK        -0.4461 
      5 CA        -48.4983  -29.0611    3.7956 C.3       1 UNK         0.0864 
      6 C6        -48.6042  -30.2837    4.7484 C.3       14 UNK        -0.0898 
      7 S7        -49.2361  -29.8241    6.3935 S.3       14 UNK        -0.2598 
      8 C8        -51.0283  -29.8357    6.0904 C.3       14 UNK         0.0286 
      9 C9        -51.7486  -28.8879    7.0365 C.ar      14 UNK        -0.0844 
     10 C10       -51.8200  -27.5244    6.7379 C.ar      14 UNK        -0.0881 
     11 C11       -52.5077  -26.6429    7.5781 C.ar      14 UNK        -0.0643 
     12 C12       -53.1293  -27.1404    8.7301 C.ar      14 UNK        -0.0930 
     13 C13       -53.0747  -28.5066    9.0336 C.ar      14 UNK        -0.0827 
     14 C14       -52.3738  -29.3723    8.1881 C.ar      14 UNK        -0.1249 
     15 C15       -53.8304  -29.0713   10.2288 C.3       14 UNK         0.0141 
     16 S16       -52.7512  -29.3430   11.6675 S.3       14 UNK        -0.2313 
     17 C17       -53.7656  -30.4918   12.6645 C.3       14 UNK        -0.0915 
     18 CA        -54.7707  -29.7576   13.6097 C.3       13 UNK         0.0968 
     19 C         -56.2444  -30.1688   13.3462 C.2       13 UNK         0.5732 
     20 N         -56.7914  -29.8296   12.1874 N.am      13 UNK        -0.7310 
     21 O         -56.8992  -30.7964   14.1789 O.2       13 UNK        -0.5035 
     22 N         -54.4728  -29.9099   15.0405 N.am      13 UNK        -0.4233 
     23 C         -53.3621  -29.5443   15.6860 C.2       13 UNK         0.4989 
     24 O         -52.3357  -29.1396   15.1421 O.2       13 UNK        -0.4996 
     25 CA        -53.3978  -29.6468   17.2125 C.3       12 UNK         0.0216 
     26 CB        -52.4116  -30.7121   17.7268 C.3       12 UNK        -0.1964 
     27 N         -53.0710  -28.3365   17.7729 N.am      12 UNK        -0.4276 
     28 C         -53.4635  -27.9021   18.9777 C.2       12 UNK         0.5020 
     29 O         -54.1344  -28.5749   19.7620 O.2       12 UNK        -0.5489 
     30 CA        -53.0553  -26.4775   19.3797 C.3       11 UNK         0.0294 
     31 CB        -51.5662  -26.4239   19.7620 C.3       11 UNK        -0.2019 
     32 N         -53.3186  -25.5314   18.2959 N.am      11 UNK        -0.4493 
     33 C         -54.4016  -24.7466   18.2070 C.2       11 UNK         0.4932 
     34 O         -55.2807  -24.6934   19.0678 O.2       11 UNK        -0.5029 
     35 CA        -54.5357  -23.8592   16.9530 C.3       10 UNK         0.0280 
     36 CB        -53.9859  -22.4513   17.2324 C.3       10 UNK        -0.1976 
     37 N         -53.8655  -24.4078   15.7727 N.am      10 UNK        -0.4242 
     38 C         -54.2401  -25.5214   15.1276 C.2       10 UNK         0.5072 
     39 O         -55.2583  -26.1602   15.3955 O.2       10 UNK        -0.5224 
     40 CA        -53.3120  -26.0314   14.0116 C.3       9 UNK         0.0343 
     41 CB        -53.8383  -25.5984   12.6349 C.3       9 UNK        -0.2003 
     42 N         -51.8951  -25.6711   14.1438 N.am      9 UNK        -0.4272 
     43 C         -51.1133  -25.8833   15.2146 C.2       9 UNK         0.4988 
     44 O         -51.5231  -26.3363   16.2842 O.2       9 UNK        -0.5108 
     45 CA        -49.6236  -25.5154   15.0993 C.3       8 UNK         0.0248 
     46 CB        -48.7868  -26.7806   14.8560 C.3       8 UNK        -0.2001 
     47 N         -49.3266  -24.5202   14.0637 N.am      8 UNK        -0.4140 
     48 C         -49.7233  -23.2389   14.1008 C.2       8 UNK         0.5028 
     49 O         -50.3692  -22.7493   15.0286 O.2       8 UNK        -0.5428 
     50 CA        -49.3651  -22.3634   12.8871 C.3       7 UNK         0.0264 
     51 CB        -47.8967  -21.9127   12.9469 C.3       7 UNK        -0.1988 
     52 N         -49.6224  -23.0434   11.6160 N.am      7 UNK        -0.4454 
     53 C         -50.8432  -23.3517   11.1540 C.2       7 UNK         0.5027 
     54 O         -51.8852  -22.9923   11.7011 O.2       7 UNK        -0.5083 
     55 CA        -50.9226  -24.2351    9.8910 C.3       6 UNK         0.0844 
     56 C56       -50.9542  -23.3693    8.6107 C.3       14 UNK        -0.0967 
     57 S57       -51.0191  -24.3370    7.0648 S.3       14 UNK        -0.2604 
     58 C58       -52.6357  -25.1728    7.1898 C.3       14 UNK         0.0134 
     59 N         -49.8756  -25.2589    9.8613 N.am      6 UNK        -0.4116 
     60 C         -49.7739  -26.2593   10.7464 C.2       5 UNK         0.5034 
     61 O         -50.5565  -26.4342   11.6764 O.2       5 UNK        -0.5045 
     62 CA        -48.5532  -27.1770   10.6114 C.3       5 UNK         0.0224 
     63 CB        -48.7956  -28.2440    9.5356 C.3       5 UNK        -0.1978 
     64 N         -47.3407  -26.4127   10.3082 N.am      5 UNK        -0.4737 
     65 C         -46.7394  -25.5970   11.1875 C.2       4 UNK         0.5027 
     66 O         -47.1153  -25.4532   12.3501 O.2       4 UNK        -0.5211 
     67 CA        -45.5512  -24.7644   10.6768 C.3       4 UNK         0.0297 
     68 CB        -44.2477  -25.5731   10.7678 C.3       4 UNK        -0.1993 
     69 N         -45.7364  -24.2844    9.3060 N.am      4 UNK        -0.4486 
     70 C         -46.7117  -23.4532    8.9114 C.2       3 UNK         0.4961 
     71 O         -47.5290  -22.9458    9.6779 O.2       3 UNK        -0.5105 
     72 CA        -46.8247  -23.1737    7.4025 C.3       3 UNK         0.0299 
     73 CB        -46.0716  -21.8848    7.0384 C.3       3 UNK        -0.1972 
     74 N         -46.3516  -24.2757    6.5554 N.am      3 UNK        -0.4305 
     75 C         -46.8786  -25.5074    6.5439 C.2       2 UNK         0.5006 
     76 O         -47.7994  -25.8705    7.2801 O.2       2 UNK        -0.5106 
     77 CA        -46.2348  -26.5180    5.5924 C.3       2 UNK         0.0296 
     78 CB        -45.0785  -27.2608    6.2871 C.3       2 UNK        -0.2002 
     79 N         -47.2631  -27.4647    5.1792 N.am      2 UNK        -0.4032 
     80 C         -47.2544  -28.1920    4.0584 C.2       1 UNK         0.5000 
     81 O         -46.3250  -28.1892    3.2434 O.2       1 UNK        -0.5238 
     82 H82       -48.2731  -30.0636   -0.0764 H         1 UNK         0.0889 
     83 H83       -49.9068  -29.4959   -0.4286 H         1 UNK         0.0889 
     84 H84       -49.6328  -31.1856    0.0054 H         1 UNK         0.0889 
     85 H85       -47.5698  -29.3643    1.9591 H         1 UNK         0.3028 
     86 H86       -49.3677  -28.4147    3.9355 H         1 UNK         0.0864 
     87 H87       -49.2753  -31.0390    4.3365 H         1 UNK         0.0720 
     88 H88       -47.6383  -30.7796    4.8614 H         1 UNK         0.0720 
     89 H89       -51.4047  -30.8538    6.2003 H         1 UNK         0.0814 
     90 H90       -51.2384  -29.5435    5.0602 H         1 UNK         0.0814 
     91 H91       -51.3481  -27.1465    5.8413 H         1 UNK         0.1469 
     92 H92       -53.6833  -26.4713    9.3735 H         1 UNK         0.1381 
     93 H93       -52.3340  -30.4285    8.4173 H         1 UNK         0.1206 
     94 H94       -54.6384  -28.3975   10.5153 H         1 UNK         0.0813 
     95 H95       -54.3002  -30.0120    9.9378 H         1 UNK         0.0813 
     96 H96       -53.0798  -31.1155   13.2394 H         1 UNK         0.0638 
     97 H97       -54.2633  -31.1891   11.9880 H         1 UNK         0.0638 
     98 H98       -54.7479  -28.6870   13.4110 H         1 UNK         0.0568 
     99 H99       -56.2800  -29.3061   11.4976 H         1 UNK         0.3450 
    100 H100      -57.7472  -30.0944   12.0068 H         1 UNK         0.3450 
    101 H101      -55.2638  -30.2594   15.5672 H         1 UNK         0.2987 
    102 H102      -54.4079  -29.9247   17.5222 H         1 UNK         0.0766 
    103 H103      -52.6294  -31.6882   17.2915 H         1 UNK         0.0798 
    104 H104      -51.3811  -30.4617   17.4711 H         1 UNK         0.0798 
    105 H105      -52.4707  -30.8197   18.8100 H         1 UNK         0.0798 
    106 H106      -52.5218  -27.7253   17.1694 H         1 UNK         0.3198 
    107 H107      -53.6342  -26.2009   20.2637 H         1 UNK         0.0843 
    108 H108      -51.3493  -27.1156   20.5771 H         1 UNK         0.0831 
    109 H109      -51.2811  -25.4272   20.0988 H         1 UNK         0.0831 
    110 H110      -50.9182  -26.6918   18.9267 H         1 UNK         0.0831 
    111 H111      -52.6688  -25.5631   17.5136 H         1 UNK         0.3133 
    112 H112      -55.5998  -23.7712   16.7240 H         1 UNK         0.0566 
    113 H113      -54.1507  -21.7849   16.3854 H         1 UNK         0.0814 
    114 H114      -54.4794  -22.0032   18.0961 H         1 UNK         0.0814 
    115 H115      -52.9153  -22.4700   17.4415 H         1 UNK         0.0814 
    116 H116      -53.0118  -23.9539   15.4768 H         1 UNK         0.3091 
    117 H117      -53.3415  -27.1156   14.0432 H         1 UNK         0.0702 
    118 H118      -53.2319  -26.0128   11.8298 H         1 UNK         0.0785 
    119 H119      -53.8479  -24.5135   12.5313 H         1 UNK         0.0785 
    120 H120      -54.8597  -25.9489   12.4810 H         1 UNK         0.0785 
    121 H121      -51.4301  -25.3977   13.2859 H         1 UNK         0.2998 
    122 H122      -49.3225  -25.0912   16.0593 H         1 UNK         0.0697 
    123 H123      -49.0373  -27.2484   13.9036 H         1 UNK         0.0825 
    124 H124      -48.9626  -27.5216   15.6372 H         1 UNK         0.0825 
    125 H125      -47.7196  -26.5587   14.8525 H         1 UNK         0.0825 
    126 H126      -48.7485  -24.8337   13.2887 H         1 UNK         0.3029 
    127 H127      -49.9946  -21.4715   12.9245 H         1 UNK         0.0897 
    128 H128      -47.6548  -21.2424   12.1217 H         1 UNK         0.0792 
    129 H129      -47.6913  -21.3753   13.8736 H         1 UNK         0.0792 
    130 H130      -47.2100  -22.7583   12.9006 H         1 UNK         0.0792 
    131 H131      -48.8127  -23.2815   11.0477 H         1 UNK         0.3086 
    132 H132      -51.8735  -24.7665    9.9525 H         1 UNK         0.0583 
    133 H133      -51.8115  -22.6934    8.6290 H         1 UNK         0.1020 
    134 H134      -50.0705  -22.7301    8.5623 H         1 UNK         0.1020 
    135 H135      -53.2829  -24.6361    7.8850 H         1 UNK         0.0694 
    136 H136      -53.1270  -25.1158    6.2176 H         1 UNK         0.0694 
    137 H137      -49.2062  -25.2056    9.1043 H         1 UNK         0.2989 
    138 H138      -48.4078  -27.6856   11.5668 H         1 UNK         0.1055 
    139 H139      -47.9369  -28.9052    9.4215 H         1 UNK         0.0806 
    140 H140      -49.0098  -27.7963    8.5653 H         1 UNK         0.0806 
    141 H141      -49.6549  -28.8652    9.7937 H         1 UNK         0.0806 
    142 H142      -47.0273  -26.4183    9.3462 H         1 UNK         0.3061 
    143 H143      -45.4580  -23.8903   11.3249 H         1 UNK         0.0734 
    144 H144      -44.0802  -25.9261   11.7865 H         1 UNK         0.0832 
    145 H145      -44.2675  -26.4498   10.1190 H         1 UNK         0.0832 
    146 H146      -43.3841  -24.9682   10.4911 H         1 UNK         0.0832 
    147 H147      -45.1061  -24.6441    8.6048 H         1 UNK         0.3156 
    148 H148      -47.8834  -23.0235    7.1805 H         1 UNK         0.0589 
    149 H149      -44.9985  -21.9802    7.2094 H         1 UNK         0.0808 
    150 H150      -46.2241  -21.6167    5.9928 H         1 UNK         0.0808 
    151 H151      -46.4236  -21.0451    7.6397 H         1 UNK         0.0808 
    152 H152      -45.5881  -24.0673    5.9274 H         1 UNK         0.3098 
    153 H153      -45.8600  -25.9871    4.7145 H         1 UNK         0.0720 
    154 H154      -44.6055  -27.9763    5.6142 H         1 UNK         0.0791 
    155 H155      -45.4233  -27.8079    7.1658 H         1 UNK         0.0791 
    156 H156      -44.3038  -26.5666    6.6146 H         1 UNK         0.0791 
    157 H157      -48.0576  -27.5126    5.8075 H         1 UNK         0.3028 
@<TRIPOS>BOND
     1    1    2 1    
     2    1   82 1    
     3    1   83 1    
     4    1   84 1    
     5    2    3 2    
     6    2    4 am   BACKBONE|DICT|INTERRES
     7    4    5 1    
     8    4   85 1    
     9    5    6 1    
    10    5   80 1    
    11    5   86 1    
    12    6    7 1    
    13    6   87 1    
    14    6   88 1    
    15    7    8 1    
    16    8    9 1    
    17    8   89 1    
    18    8   90 1    
    19    9   10 ar   
    20    9   14 ar   
    21   10   11 ar   
    22   10   91 1    
    23   11   12 ar   
    24   11   58 1    
    25   12   13 ar   
    26   12   92 1    
    27   13   14 ar   
    28   13   15 1    
    29   14   93 1    
    30   15   16 1    
    31   15   94 1    
    32   15   95 1    
    33   16   17 1    
    34   17   18 1    
    35   17   96 1    
    36   17   97 1    
    37   18   19 1    
    38   18   22 1    
    39   18   98 1    
    40   19   20 am   BACKBONE|DICT|INTERRES
    41   19   21 2    
    42   20   99 1    
    43   20  100 1    
    44   22   23 am   BACKBONE|DICT|INTERRES
    45   22  101 1    
    46   23   24 2    
    47   23   25 1    
    48   25   26 1    
    49   25   27 1    
    50   25  102 1    
    51   26  103 1    
    52   26  104 1    
    53   26  105 1    
    54   27   28 am   BACKBONE|DICT|INTERRES
    55   27  106 1    
    56   28   29 2    
    57   28   30 1    
    58   30   31 1    
    59   30   32 1    
    60   30  107 1    
    61   31  108 1    
    62   31  109 1    
    63   31  110 1    
    64   32   33 am   BACKBONE|DICT|INTERRES
    65   32  111 1    
    66   33   34 2    
    67   33   35 1    
    68   35   36 1    
    69   35   37 1    
    70   35  112 1    
    71   36  113 1    
    72   36  114 1    
    73   36  115 1    
    74   37   38 am   BACKBONE|DICT|INTERRES
    75   37  116 1    
    76   38   39 2    
    77   38   40 1    
    78   40   41 1    
    79   40   42 1    
    80   40  117 1    
    81   41  118 1    
    82   41  119 1    
    83   41  120 1    
    84   42   43 am   BACKBONE|DICT|INTERRES
    85   42  121 1    
    86   43   44 2    
    87   43   45 1    
    88   45   46 1    
    89   45   47 1    
    90   45  122 1    
    91   46  123 1    
    92   46  124 1    
    93   46  125 1    
    94   47   48 am   BACKBONE|DICT|INTERRES
    95   47  126 1    
    96   48   49 2    
    97   48   50 1    
    98   50   51 1    
    99   50   52 1    
   100   50  127 1    
   101   51  128 1    
   102   51  129 1    
   103   51  130 1    
   104   52   53 am   BACKBONE|DICT|INTERRES
   105   52  131 1    
   106   53   54 2    
   107   53   55 1    
   108   55   56 1    
   109   55   59 1    
   110   55  132 1    
   111   56   57 1    
   112   56  133 1    
   113   56  134 1    
   114   57   58 1    
   115   58  135 1    
   116   58  136 1    
   117   59   60 am   BACKBONE|DICT|INTERRES
   118   59  137 1    
   119   60   61 2    
   120   60   62 1    
   121   62   63 1    
   122   62   64 1    
   123   62  138 1    
   124   63  139 1    
   125   63  140 1    
   126   63  141 1    
   127   64   65 am   BACKBONE|DICT|INTERRES
   128   64  142 1    
   129   65   66 2    
   130   65   67 1    
   131   67   68 1    
   132   67   69 1    
   133   67  143 1    
   134   68  144 1    
   135   68  145 1    
   136   68  146 1    
   137   69   70 am   BACKBONE|DICT|INTERRES
   138   69  147 1    
   139   70   71 2    
   140   70   72 1    
   141   72   73 1    
   142   72   74 1    
   143   72  148 1    
   144   73  149 1    
   145   73  150 1    
   146   73  151 1    
   147   74   75 am   BACKBONE|DICT|INTERRES
   148   74  152 1    
   149   75   76 2    
   150   75   77 1    
   151   77   78 1    
   152   77   79 1    
   153   77  153 1    
   154   78  154 1    
   155   78  155 1    
   156   78  156 1    
   157   79   80 am   BACKBONE|DICT|INTERRES
   158   79  157 1    
   159   80   81 2    
@<TRIPOS>SUBSTRUCTURE
     1 UNK         1 GROUP             0       ****    0 ROOT    
