@<TRIPOS>MOLECULE
3R207
157   159    1
SMALL
USER_CHARGES


@<TRIPOS>ATOM
      1 CA        -46.5875  -29.0897    5.5412 C.3       0 UNK        -0.1975 
      2 C         -47.9332  -28.7627    4.9106 C.2       0 UNK         0.4852 
      3 O         -47.9751  -28.2520    3.7910 O.2       0 UNK        -0.5216 
      4 N         -49.0321  -29.0598    5.6180 N.am      1 UNK        -0.4461 
      5 CA        -50.4105  -28.8115    5.1740 C.3       1 UNK         0.0864 
      6 C6        -51.4350  -29.6339    5.9980 C.3       14 UNK        -0.0898 
      7 S7        -51.4229  -29.2731    7.7912 S.3       14 UNK        -0.2598 
      8 C8        -50.7991  -30.8344    8.4834 C.3       14 UNK         0.0286 
      9 C9        -50.8029  -30.7884   10.0034 C.ar      14 UNK        -0.0844 
     10 C10       -49.6654  -30.3807   10.7050 C.ar      14 UNK        -0.0881 
     11 C11       -49.6712  -30.3318   12.1031 C.ar      14 UNK        -0.0643 
     12 C12       -50.8309  -30.6893   12.7993 C.ar      14 UNK        -0.0930 
     13 C13       -51.9733  -31.1076   12.1076 C.ar      14 UNK        -0.0827 
     14 C14       -51.9479  -31.1614   10.7106 C.ar      14 UNK        -0.1249 
     15 C15       -53.2253  -31.5298   12.8661 C.3       14 UNK         0.0141 
     16 S16       -54.3810  -30.1452   13.1167 S.3       14 UNK        -0.2313 
     17 C17       -54.9985  -29.8661   11.4210 C.3       14 UNK        -0.0915 
     18 CA        -56.4655  -29.3611   11.2970 C.3       13 UNK         0.0968 
     19 C         -57.5574  -30.4246   11.6338 C.2       13 UNK         0.5732 
     20 N         -58.7833  -30.0273   11.9524 N.am      13 UNK        -0.7310 
     21 O         -57.3130  -31.6267   11.5561 O.2       13 UNK        -0.5035 
     22 N         -56.6580  -27.9957   11.8229 N.am      13 UNK        -0.4233 
     23 C         -56.9313  -27.6160   13.0804 C.2       13 UNK         0.4989 
     24 O         -57.1252  -28.3898   14.0191 O.2       13 UNK        -0.4996 
     25 CA        -57.0090  -26.0972   13.3143 C.3       12 UNK         0.0216 
     26 CB        -57.0843  -25.7244   14.8074 C.3       12 UNK        -0.1964 
     27 N         -55.8348  -25.4541   12.7278 N.am      12 UNK        -0.4276 
     28 C         -55.8416  -24.5861   11.7071 C.2       12 UNK         0.5020 
     29 O         -56.8689  -24.2033   11.1459 O.2       12 UNK        -0.5489 
     30 CA        -54.4819  -24.0504   11.2159 C.3       11 UNK         0.0294 
     31 CB        -54.2545  -22.6265   11.7480 C.3       11 UNK        -0.2019 
     32 N         -53.3517  -24.9005   11.6017 N.am      11 UNK        -0.4493 
     33 C         -53.1149  -26.1178   11.0861 C.2       11 UNK         0.4932 
     34 O         -53.7660  -26.5898   10.1540 O.2       11 UNK        -0.5029 
     35 CA        -51.9973  -26.9691   11.7234 C.3       10 UNK         0.0280 
     36 CB        -50.7290  -26.9099   10.8628 C.3       10 UNK        -0.1976 
     37 N         -51.6500  -26.6072   13.1006 N.am      10 UNK        -0.4242 
     38 C         -52.4930  -26.5598   14.1417 C.2       10 UNK         0.5072 
     39 O         -53.6884  -26.8407   14.0746 O.2       10 UNK        -0.5224 
     40 CA        -51.9294  -26.0222   15.4681 C.3       9 UNK         0.0343 
     41 CB        -51.3319  -27.1663   16.3022 C.3       9 UNK        -0.2003 
     42 N         -50.9351  -24.9499   15.3318 N.am      9 UNK        -0.4272 
     43 C         -51.0513  -23.8268   14.6078 C.2       9 UNK         0.4988 
     44 O         -52.0146  -23.5843   13.8812 O.2       9 UNK        -0.5108 
     45 CA        -49.9104  -22.7935   14.6769 C.3       8 UNK         0.0248 
     46 CB        -50.3126  -21.5948   15.5580 C.3       8 UNK        -0.2001 
     47 N         -48.5915  -23.3183   15.0639 N.am      8 UNK        -0.4140 
     48 C         -48.1889  -23.8389   16.2313 C.2       8 UNK         0.5028 
     49 O         -48.9377  -24.0278   17.1911 O.2       8 UNK        -0.5428 
     50 CA        -46.7120  -24.2727   16.3114 C.3       7 UNK         0.0264 
     51 CB        -46.2644  -24.5694   17.7552 C.3       7 UNK        -0.1988 
     52 N         -46.4400  -25.4502   15.4815 N.am      7 UNK        -0.4454 
     53 C         -46.3790  -25.4535   14.1431 C.2       7 UNK         0.5027 
     54 O         -46.5312  -24.4330   13.4647 O.2       7 UNK        -0.5083 
     55 CA        -46.0675  -26.7908   13.4442 C.3       6 UNK         0.0844 
     56 C56       -46.7559  -28.0424   14.0651 C.3       14 UNK        -0.0967 
     57 S57       -48.5067  -28.2745   13.5900 S.3       14 UNK        -0.2604 
     58 C58       -48.4076  -29.9387   12.8544 C.3       14 UNK         0.0134 
     59 N         -46.3190  -26.6127   12.0176 N.am      6 UNK        -0.4116 
     60 C         -45.8390  -27.3554   11.0186 C.2       5 UNK         0.5034 
     61 O         -45.1501  -28.3631   11.1834 O.2       5 UNK        -0.5045 
     62 CA        -46.1755  -26.8994    9.5843 C.3       5 UNK         0.0224 
     63 CB        -47.2309  -27.8291    8.9649 C.3       5 UNK        -0.1978 
     64 N         -46.6337  -25.5047    9.4754 N.am      5 UNK        -0.4737 
     65 C         -45.8651  -24.4298    9.7169 C.2       4 UNK         0.5027 
     66 O         -44.6847  -24.5166   10.0568 O.2       4 UNK        -0.5211 
     67 CA        -46.4759  -23.0236    9.5427 C.3       4 UNK         0.0297 
     68 CB        -45.7407  -22.2501    8.4343 C.3       4 UNK        -0.1993 
     69 N         -47.9081  -23.0164    9.2405 N.am      4 UNK        -0.4486 
     70 C         -48.8947  -23.1952   10.1287 C.2       3 UNK         0.4961 
     71 O         -48.7125  -23.3750   11.3315 O.2       3 UNK        -0.5105 
     72 CA        -50.3358  -23.1864    9.5777 C.3       3 UNK         0.0299 
     73 CB        -50.9430  -21.7821    9.7208 C.3       3 UNK        -0.1972 
     74 N         -50.4848  -23.6347    8.1837 N.am      3 UNK        -0.4305 
     75 C         -50.0332  -24.7916    7.6796 C.2       2 UNK         0.5006 
     76 O         -49.3364  -25.5898    8.3097 O.2       2 UNK        -0.5106 
     77 CA        -50.3753  -25.0920    6.2170 C.3       2 UNK         0.0296 
     78 CB        -49.4908  -24.2747    5.2585 C.3       2 UNK        -0.2002 
     79 N         -50.1465  -26.5150    6.0033 N.am      2 UNK        -0.4032 
     80 C         -50.7786  -27.3098    5.1340 C.2       1 UNK         0.5000 
     81 O         -51.6184  -26.9100    4.3246 O.2       1 UNK        -0.5238 
     82 H82       -45.9814  -29.6737    4.8492 H         1 UNK         0.0889 
     83 H83       -46.6961  -29.6657    6.4598 H         1 UNK         0.0889 
     84 H84       -46.0488  -28.1715    5.7740 H         1 UNK         0.0889 
     85 H85       -48.9414  -29.4775    6.5322 H         1 UNK         0.3028 
     86 H86       -50.4788  -29.1627    4.1418 H         1 UNK         0.0864 
     87 H87       -51.2523  -30.6983    5.8431 H         1 UNK         0.0720 
     88 H88       -52.4461  -29.4598    5.6249 H         1 UNK         0.0720 
     89 H89       -49.7920  -31.0270    8.1113 H         1 UNK         0.0814 
     90 H90       -51.4213  -31.6610    8.1365 H         1 UNK         0.0814 
     91 H91       -48.7732  -30.1049   10.1615 H         1 UNK         0.1469 
     92 H92       -50.8384  -30.6506   13.8800 H         1 UNK         0.1381 
     93 H93       -52.8226  -31.4895   10.1673 H         1 UNK         0.1206 
     94 H94       -52.9475  -31.9312   13.8417 H         1 UNK         0.0813 
     95 H95       -53.7332  -32.3406   12.3415 H         1 UNK         0.0813 
     96 H96       -54.3274  -29.1534   10.9415 H         1 UNK         0.0638 
     97 H97       -54.8906  -30.7887   10.8502 H         1 UNK         0.0638 
     98 H98       -56.6144  -29.2253   10.2253 H         1 UNK         0.0568 
     99 H99       -59.0012  -29.0469   12.0238 H         1 UNK         0.3450 
    100 H100      -59.4882  -30.7186   12.1538 H         1 UNK         0.3450 
    101 H101      -56.5273  -27.2622   11.1416 H         1 UNK         0.2987 
    102 H102      -57.9240  -25.7477   12.8321 H         1 UNK         0.0766 
    103 H103      -57.9691  -26.1569   15.2764 H         1 UNK         0.0798 
    104 H104      -57.1417  -24.6444   14.9430 H         1 UNK         0.0798 
    105 H105      -56.2123  -26.0850   15.3551 H         1 UNK         0.0798 
    106 H106      -54.9426  -25.7790   13.0975 H         1 UNK         0.3198 
    107 H107      -54.5157  -24.0073   10.1251 H         1 UNK         0.0843 
    108 H108      -54.2948  -22.5931   12.8375 H         1 UNK         0.0831 
    109 H109      -55.0195  -21.9447   11.3742 H         1 UNK         0.0831 
    110 H110      -53.2875  -22.2317   11.4400 H         1 UNK         0.0831 
    111 H111      -52.7858  -24.5711   12.3805 H         1 UNK         0.3133 
    112 H112      -52.3475  -28.0027   11.7397 H         1 UNK         0.0566 
    113 H113      -50.0017  -27.6534   11.1776 H         1 UNK         0.0814 
    114 H114      -50.9555  -27.1128    9.8160 H         1 UNK         0.0814 
    115 H115      -50.2438  -25.9366   10.9149 H         1 UNK         0.0814 
    116 H116      -50.6858  -26.3601   13.2690 H         1 UNK         0.3091 
    117 H117      -52.7693  -25.6006   16.0237 H         1 UNK         0.0702 
    118 H118      -51.0423  -26.8240   17.2960 H         1 UNK         0.0785 
    119 H119      -50.4503  -27.5955   15.8254 H         1 UNK         0.0785 
    120 H120      -52.0555  -27.9721   16.4351 H         1 UNK         0.0785 
    121 H121      -50.1400  -24.9913   15.9609 H         1 UNK         0.2998 
    122 H122      -49.7839  -22.4209   13.6594 H         1 UNK         0.0697 
    123 H123      -50.4753  -21.8880   16.5956 H         1 UNK         0.0825 
    124 H124      -51.2396  -21.1439   15.2010 H         1 UNK         0.0825 
    125 H125      -49.5487  -20.8176   15.5436 H         1 UNK         0.0825 
    126 H126      -47.9088  -23.3457   14.3094 H         1 UNK         0.3029 
    127 H127      -46.1087  -23.4392   15.9438 H         1 UNK         0.0897 
    128 H128      -45.1985  -24.7933   17.8027 H         1 UNK         0.0792 
    129 H129      -46.8050  -25.4151   18.1826 H         1 UNK         0.0792 
    130 H130      -46.4417  -23.7094   18.4026 H         1 UNK         0.0792 
    131 H131      -46.3140  -26.3210   15.9761 H         1 UNK         0.3086 
    132 H132      -44.9895  -26.9189   13.5615 H         1 UNK         0.0583 
    133 H133      -46.1885  -28.9220   13.7580 H         1 UNK         0.1020 
    134 H134      -46.6877  -28.0525   15.1532 H         1 UNK         0.1020 
    135 H135      -47.5504  -29.9800   12.1800 H         1 UNK         0.0694 
    136 H136      -48.2129  -30.6667   13.6432 H         1 UNK         0.0694 
    137 H137      -46.8260  -25.7647   11.7952 H         1 UNK         0.2989 
    138 H138      -45.2570  -26.9916    9.0007 H         1 UNK         0.1055 
    139 H139      -48.1741  -27.7826    9.5097 H         1 UNK         0.0806 
    140 H140      -46.8949  -28.8666    8.9752 H         1 UNK         0.0806 
    141 H141      -47.4318  -27.5604    7.9288 H         1 UNK         0.0806 
    142 H142      -47.5969  -25.3684    9.1784 H         1 UNK         0.3061 
    143 H143      -46.3227  -22.4939   10.4856 H         1 UNK         0.0734 
    144 H144      -46.1154  -21.2303    8.3447 H         1 UNK         0.0832 
    145 H145      -44.6727  -22.1806    8.6462 H         1 UNK         0.0832 
    146 H146      -45.8482  -22.7360    7.4637 H         1 UNK         0.0832 
    147 H147      -48.1648  -22.8961    8.2719 H         1 UNK         0.3156 
    148 H148      -50.9246  -23.8651   10.1958 H         1 UNK         0.0589 
    149 H149      -51.9903  -21.7672    9.4190 H         1 UNK         0.0808 
    150 H150      -50.9007  -21.4433   10.7573 H         1 UNK         0.0808 
    151 H151      -50.4090  -21.0480    9.1161 H         1 UNK         0.0808 
    152 H152      -51.0271  -23.0325    7.5806 H         1 UNK         0.3098 
    153 H153      -51.4292  -24.8601    6.0495 H         1 UNK         0.0720 
    154 H154      -49.7186  -24.5058    4.2177 H         1 UNK         0.0791 
    155 H155      -48.4309  -24.4768    5.4193 H         1 UNK         0.0791 
    156 H156      -49.6458  -23.2036    5.3920 H         1 UNK         0.0791 
    157 H157      -49.5303  -26.9318    6.6903 H         1 UNK         0.3028 
@<TRIPOS>BOND
     1    1    2 1    
     2    1   82 1    
     3    1   83 1    
     4    1   84 1    
     5    2    3 2    
     6    2    4 am   BACKBONE|DICT|INTERRES
     7    4    5 1    
     8    4   85 1    
     9    5    6 1    
    10    5   80 1    
    11    5   86 1    
    12    6    7 1    
    13    6   87 1    
    14    6   88 1    
    15    7    8 1    
    16    8    9 1    
    17    8   89 1    
    18    8   90 1    
    19    9   10 ar   
    20    9   14 ar   
    21   10   11 ar   
    22   10   91 1    
    23   11   12 ar   
    24   11   58 1    
    25   12   13 ar   
    26   12   92 1    
    27   13   14 ar   
    28   13   15 1    
    29   14   93 1    
    30   15   16 1    
    31   15   94 1    
    32   15   95 1    
    33   16   17 1    
    34   17   18 1    
    35   17   96 1    
    36   17   97 1    
    37   18   19 1    
    38   18   22 1    
    39   18   98 1    
    40   19   20 am   BACKBONE|DICT|INTERRES
    41   19   21 2    
    42   20   99 1    
    43   20  100 1    
    44   22   23 am   BACKBONE|DICT|INTERRES
    45   22  101 1    
    46   23   24 2    
    47   23   25 1    
    48   25   26 1    
    49   25   27 1    
    50   25  102 1    
    51   26  103 1    
    52   26  104 1    
    53   26  105 1    
    54   27   28 am   BACKBONE|DICT|INTERRES
    55   27  106 1    
    56   28   29 2    
    57   28   30 1    
    58   30   31 1    
    59   30   32 1    
    60   30  107 1    
    61   31  108 1    
    62   31  109 1    
    63   31  110 1    
    64   32   33 am   BACKBONE|DICT|INTERRES
    65   32  111 1    
    66   33   34 2    
    67   33   35 1    
    68   35   36 1    
    69   35   37 1    
    70   35  112 1    
    71   36  113 1    
    72   36  114 1    
    73   36  115 1    
    74   37   38 am   BACKBONE|DICT|INTERRES
    75   37  116 1    
    76   38   39 2    
    77   38   40 1    
    78   40   41 1    
    79   40   42 1    
    80   40  117 1    
    81   41  118 1    
    82   41  119 1    
    83   41  120 1    
    84   42   43 am   BACKBONE|DICT|INTERRES
    85   42  121 1    
    86   43   44 2    
    87   43   45 1    
    88   45   46 1    
    89   45   47 1    
    90   45  122 1    
    91   46  123 1    
    92   46  124 1    
    93   46  125 1    
    94   47   48 am   BACKBONE|DICT|INTERRES
    95   47  126 1    
    96   48   49 2    
    97   48   50 1    
    98   50   51 1    
    99   50   52 1    
   100   50  127 1    
   101   51  128 1    
   102   51  129 1    
   103   51  130 1    
   104   52   53 am   BACKBONE|DICT|INTERRES
   105   52  131 1    
   106   53   54 2    
   107   53   55 1    
   108   55   56 1    
   109   55   59 1    
   110   55  132 1    
   111   56   57 1    
   112   56  133 1    
   113   56  134 1    
   114   57   58 1    
   115   58  135 1    
   116   58  136 1    
   117   59   60 am   BACKBONE|DICT|INTERRES
   118   59  137 1    
   119   60   61 2    
   120   60   62 1    
   121   62   63 1    
   122   62   64 1    
   123   62  138 1    
   124   63  139 1    
   125   63  140 1    
   126   63  141 1    
   127   64   65 am   BACKBONE|DICT|INTERRES
   128   64  142 1    
   129   65   66 2    
   130   65   67 1    
   131   67   68 1    
   132   67   69 1    
   133   67  143 1    
   134   68  144 1    
   135   68  145 1    
   136   68  146 1    
   137   69   70 am   BACKBONE|DICT|INTERRES
   138   69  147 1    
   139   70   71 2    
   140   70   72 1    
   141   72   73 1    
   142   72   74 1    
   143   72  148 1    
   144   73  149 1    
   145   73  150 1    
   146   73  151 1    
   147   74   75 am   BACKBONE|DICT|INTERRES
   148   74  152 1    
   149   75   76 2    
   150   75   77 1    
   151   77   78 1    
   152   77   79 1    
   153   77  153 1    
   154   78  154 1    
   155   78  155 1    
   156   78  156 1    
   157   79   80 am   BACKBONE|DICT|INTERRES
   158   79  157 1    
   159   80   81 2    
@<TRIPOS>SUBSTRUCTURE
     1 UNK         1 GROUP             0       ****    0 ROOT    
