@<TRIPOS>MOLECULE
3R207
157   159    1
SMALL
USER_CHARGES


@<TRIPOS>ATOM
      1 CA        -48.6931  -29.8493    3.8214 C.3       0 UNK        -0.1975 
      2 C         -49.2771  -28.4481    3.7196 C.2       0 UNK         0.4852 
      3 O         -49.3935  -27.9118    2.6165 O.2       0 UNK        -0.5216 
      4 N         -49.6513  -27.8596    4.8617 N.am      1 UNK        -0.4461 
      5 CA        -50.1382  -26.4822    4.9836 C.3       1 UNK         0.0864 
      6 C6        -51.1034  -26.3178    6.1879 C.3       14 UNK        -0.0898 
      7 S7        -50.4472  -26.9177    7.7822 S.3       14 UNK        -0.2598 
      8 C8        -51.4490  -28.4261    8.0070 C.3       14 UNK         0.0286 
      9 C9        -51.2087  -29.0757    9.3620 C.ar      14 UNK        -0.0844 
     10 C10       -49.9292  -29.5110    9.7128 C.ar      14 UNK        -0.0881 
     11 C11       -49.6915  -30.0923   10.9608 C.ar      14 UNK        -0.0643 
     12 C12       -50.7543  -30.2711   11.8505 C.ar      14 UNK        -0.0930 
     13 C13       -52.0471  -29.8654   11.5025 C.ar      14 UNK        -0.0827 
     14 C14       -52.2646  -29.2561   10.2618 C.ar      14 UNK        -0.1249 
     15 C15       -53.1944  -30.0555   12.4854 C.3       14 UNK         0.0141 
     16 S16       -54.5785  -31.0085   11.7901 S.3       14 UNK        -0.2313 
     17 C17       -55.7082  -31.0373   13.2246 C.3       14 UNK        -0.0915 
     18 CA        -56.8334  -29.9736   13.1173 C.3       13 UNK         0.0968 
     19 C         -57.9309  -30.1737   14.2035 C.2       13 UNK         0.5732 
     20 N         -58.3399  -29.1545   14.9517 N.am      13 UNK        -0.7310 
     21 O         -58.4458  -31.2789   14.3586 O.2       13 UNK        -0.5035 
     22 N         -56.2813  -28.6115   13.1043 N.am      13 UNK        -0.4233 
     23 C         -56.6611  -27.6359   12.2701 C.2       13 UNK         0.4989 
     24 O         -57.4742  -27.7967   11.3578 O.2       13 UNK        -0.4996 
     25 CA        -56.0248  -26.2443   12.4810 C.3       12 UNK         0.0216 
     26 CB        -56.9293  -25.0977   11.9826 C.3       12 UNK        -0.1964 
     27 N         -55.5807  -25.9790   13.8558 N.am      12 UNK        -0.4276 
     28 C         -56.3136  -26.0349   14.9761 C.2       12 UNK         0.5020 
     29 O         -57.5107  -26.3308   14.9941 O.2       12 UNK        -0.5489 
     30 CA        -55.5666  -25.7631   16.2986 C.3       11 UNK         0.0294 
     31 CB        -56.4131  -26.1352   17.5340 C.3       11 UNK        -0.2019 
     32 N         -54.2456  -26.4029   16.4022 N.am      11 UNK        -0.4493 
     33 C         -53.9291  -27.6887   16.1804 C.2       11 UNK         0.4932 
     34 O         -54.7067  -28.5101   15.6903 O.2       11 UNK        -0.5029 
     35 CA        -52.5113  -28.1403   16.5877 C.3       10 UNK         0.0280 
     36 CB        -51.9909  -29.3040   15.7300 C.3       10 UNK        -0.1976 
     37 N         -51.5205  -27.0631   16.5482 N.am      10 UNK        -0.4242 
     38 C         -51.1614  -26.2970   17.5861 C.2       10 UNK         0.5072 
     39 O         -51.6906  -26.3507   18.6964 O.2       10 UNK        -0.5224 
     40 CA        -50.0274  -25.2911   17.3353 C.3       9 UNK         0.0343 
     41 CB        -48.6594  -25.9936   17.3557 C.3       9 UNK        -0.2003 
     42 N         -50.1966  -24.5885   16.0638 N.am      9 UNK        -0.4272 
     43 C         -51.0579  -23.5812   15.8637 C.2       9 UNK         0.4988 
     44 O         -51.7690  -23.0990   16.7458 O.2       9 UNK        -0.5108 
     45 CA        -51.1507  -23.0265   14.4323 C.3       8 UNK         0.0248 
     46 CB        -50.0916  -21.9360   14.2044 C.3       8 UNK        -0.2001 
     47 N         -51.0129  -24.0707   13.4134 N.am      8 UNK        -0.4140 
     48 C         -51.9334  -25.0226   13.1964 C.2       8 UNK         0.5028 
     49 O         -52.9967  -25.0909   13.8101 O.2       8 UNK        -0.5428 
     50 CA        -51.6237  -26.0948   12.1376 C.3       7 UNK         0.0264 
     51 CB        -52.1370  -25.6219   10.7691 C.3       7 UNK        -0.1988 
     52 N         -50.2033  -26.4498   12.0462 N.am      7 UNK        -0.4454 
     53 C         -49.4612  -26.8935   13.0727 C.2       7 UNK         0.5027 
     54 O         -49.9355  -27.1696   14.1757 O.2       7 UNK        -0.5083 
     55 CA        -47.9265  -26.9346   12.9078 C.3       6 UNK         0.0844 
     56 C56       -47.3494  -28.3775   12.9365 C.3       14 UNK        -0.0967 
     57 S57       -47.1013  -29.1642   11.3051 S.3       14 UNK        -0.2604 
     58 C58       -48.2876  -30.5444   11.3286 C.3       14 UNK         0.0134 
     59 N         -47.3870  -26.1098   11.8176 N.am      6 UNK        -0.4116 
     60 C         -47.5452  -24.7898   11.6558 C.2       5 UNK         0.5034 
     61 O         -48.2495  -24.1016   12.3959 O.2       5 UNK        -0.5045 
     62 CA        -46.8293  -24.0997   10.4771 C.3       5 UNK         0.0224 
     63 CB        -45.5637  -23.3728   10.9700 C.3       5 UNK        -0.1978 
     64 N         -46.5206  -24.9289    9.2997 N.am      5 UNK        -0.4737 
     65 C         -45.7107  -25.9954    9.1987 C.2       4 UNK         0.5027 
     66 O         -45.1543  -26.5308   10.1560 O.2       4 UNK        -0.5211 
     67 CA        -45.4616  -26.5474    7.7829 C.3       4 UNK         0.0297 
     68 CB        -46.5219  -27.6002    7.4235 C.3       4 UNK        -0.1993 
     69 N         -45.4329  -25.4945    6.7609 N.am      4 UNK        -0.4486 
     70 C         -44.5202  -24.5088    6.7278 C.2       3 UNK         0.4961 
     71 O         -43.5451  -24.4640    7.4791 O.2       3 UNK        -0.5105 
     72 CA        -44.7044  -23.3679    5.7088 C.3       3 UNK         0.0299 
     73 CB        -43.6498  -23.4675    4.5943 C.3       3 UNK        -0.1972 
     74 N         -46.0302  -23.2825    5.0955 N.am      3 UNK        -0.4305 
     75 C         -47.1925  -23.0520    5.7214 C.2       2 UNK         0.5006 
     76 O         -47.3068  -22.9126    6.9399 O.2       2 UNK        -0.5106 
     77 CA        -48.4510  -22.9987    4.8318 C.3       2 UNK         0.0296 
     78 CB        -48.1445  -22.7738    3.3340 C.3       2 UNK        -0.2002 
     79 N         -49.3242  -24.1705    4.9785 N.am      2 UNK        -0.4032 
     80 C         -48.9720  -25.4665    4.9842 C.2       1 UNK         0.5000 
     81 O         -47.8016  -25.8624    4.9685 O.2       1 UNK        -0.5238 
     82 H82       -48.6377  -30.1946    4.8546 H         1 UNK         0.0889 
     83 H83       -47.6857  -29.8653    3.4045 H         1 UNK         0.0889 
     84 H84       -49.3073  -30.5541    3.2600 H         1 UNK         0.0889 
     85 H85       -49.4923  -28.3299    5.7401 H         1 UNK         0.3028 
     86 H86       -50.7186  -26.2571    4.0860 H         1 UNK         0.0864 
     87 H87       -52.0299  -26.8492    5.9657 H         1 UNK         0.0720 
     88 H88       -51.4073  -25.2783    6.3171 H         1 UNK         0.0720 
     89 H89       -51.2147  -29.1427    7.2189 H         1 UNK         0.0814 
     90 H90       -52.5042  -28.1724    7.8933 H         1 UNK         0.0814 
     91 H91       -49.1093  -29.3775    9.0202 H         1 UNK         0.1469 
     92 H92       -50.5740  -30.7267   12.8145 H         1 UNK         0.1381 
     93 H93       -53.2608  -28.9272    9.9989 H         1 UNK         0.1206 
     94 H94       -53.5458  -29.0786   12.8189 H         1 UNK         0.0813 
     95 H95       -52.8470  -30.5902   13.3691 H         1 UNK         0.0813 
     96 H96       -55.1435  -30.9085   14.1498 H         1 UNK         0.0638 
     97 H97       -56.1336  -32.0414   13.2687 H         1 UNK         0.0638 
     98 H98       -57.3477  -30.1574   12.1726 H         1 UNK         0.0568 
     99 H99       -59.0573  -29.3136   15.6402 H         1 UNK         0.3450 
    100 H100      -57.9535  -28.2219   14.8384 H         1 UNK         0.3450 
    101 H101      -55.6613  -28.3915   13.8768 H         1 UNK         0.2987 
    102 H102      -55.1213  -26.2408   11.8710 H         1 UNK         0.0766 
    103 H103      -56.4463  -24.1289   12.1101 H         1 UNK         0.0798 
    104 H104      -57.8787  -25.0728   12.5187 H         1 UNK         0.0798 
    105 H105      -57.1562  -25.2062   10.9213 H         1 UNK         0.0798 
    106 H106      -54.5970  -25.7105   13.9490 H         1 UNK         0.3198 
    107 H107      -55.3896  -24.6867   16.3274 H         1 UNK         0.0843 
    108 H108      -56.6483  -27.2003   17.5518 H         1 UNK         0.0831 
    109 H109      -57.3589  -25.5917   17.5421 H         1 UNK         0.0831 
    110 H110      -55.8938  -25.8906   18.4607 H         1 UNK         0.0831 
    111 H111      -53.5057  -25.8095   16.7509 H         1 UNK         0.3133 
    112 H112      -52.5969  -28.5108   17.6111 H         1 UNK         0.0566 
    113 H113      -51.0354  -29.6716   16.1043 H         1 UNK         0.0814 
    114 H114      -52.6829  -30.1470   15.7352 H         1 UNK         0.0814 
    115 H115      -51.8402  -28.9911   14.6980 H         1 UNK         0.0814 
    116 H116      -51.0121  -26.9623   15.6713 H         1 UNK         0.3091 
    117 H117      -50.0421  -24.5579   18.1449 H         1 UNK         0.0702 
    118 H118      -47.8453  -25.2785   17.2366 H         1 UNK         0.0785 
    119 H119      -48.5704  -26.7379   16.5633 H         1 UNK         0.0785 
    120 H120      -48.5010  -26.5083   18.3045 H         1 UNK         0.0785 
    121 H121      -49.6772  -24.9412   15.2730 H         1 UNK         0.2998 
    122 H122      -52.1367  -22.5710   14.3162 H         1 UNK         0.0697 
    123 H123      -49.0786  -22.3248   14.3165 H         1 UNK         0.0825 
    124 H124      -50.2096  -21.1228   14.9218 H         1 UNK         0.0825 
    125 H125      -50.1750  -21.5034   13.2073 H         1 UNK         0.0825 
    126 H126      -50.1395  -24.0920   12.8934 H         1 UNK         0.3029 
    127 H127      -52.1708  -26.9954   12.4218 H         1 UNK         0.0897 
    128 H128      -51.5184  -24.8248   10.3557 H         1 UNK         0.0792 
    129 H129      -53.1562  -25.2395   10.8364 H         1 UNK         0.0792 
    130 H130      -52.1574  -26.4387   10.0528 H         1 UNK         0.0792 
    131 H131      -49.7416  -26.2672   11.1674 H         1 UNK         0.3086 
    132 H132      -47.5607  -26.4538   13.8178 H         1 UNK         0.0583 
    133 H133      -46.3647  -28.3429   13.4053 H         1 UNK         0.1020 
    134 H134      -47.9393  -29.0298   13.5839 H         1 UNK         0.1020 
    135 H135      -47.9637  -31.2918   10.6031 H         1 UNK         0.0694 
    136 H136      -48.2664  -31.0355   12.3026 H         1 UNK         0.0694 
    137 H137      -46.7396  -26.5775   11.1888 H         1 UNK         0.2989 
    138 H138      -47.5221  -23.3372   10.1162 H         1 UNK         0.1055 
    139 H139      -45.8005  -22.6782   11.7773 H         1 UNK         0.0806 
    140 H140      -45.1035  -22.7937   10.1691 H         1 UNK         0.0806 
    141 H141      -44.8168  -24.0703   11.3506 H         1 UNK         0.0806 
    142 H142      -46.9089  -24.5747    8.4323 H         1 UNK         0.3061 
    143 H143      -44.4848  -27.0356    7.7852 H         1 UNK         0.0734 
    144 H144      -46.3331  -28.0384    6.4434 H         1 UNK         0.0832 
    145 H145      -46.5262  -28.4138    8.1503 H         1 UNK         0.0832 
    146 H146      -47.5232  -27.1708    7.4105 H         1 UNK         0.0832 
    147 H147      -46.1981  -25.4838    6.0909 H         1 UNK         0.3156 
    148 H148      -44.5400  -22.4338    6.2490 H         1 UNK         0.0589 
    149 H149      -43.7766  -24.3731    4.0004 H         1 UNK         0.0808 
    150 H150      -43.6990  -22.6119    3.9206 H         1 UNK         0.0808 
    151 H151      -42.6416  -23.4897    5.0095 H         1 UNK         0.0808 
    152 H152      -46.0660  -23.4260    4.0973 H         1 UNK         0.3098 
    153 H153      -49.0246  -22.1395    5.1806 H         1 UNK         0.0720 
    154 H154      -49.0618  -22.5935    2.7742 H         1 UNK         0.0791 
    155 H155      -47.6524  -23.6337    2.8793 H         1 UNK         0.0791 
    156 H156      -47.5073  -21.9010    3.1837 H         1 UNK         0.0791 
    157 H157      -50.3091  -23.9554    5.0392 H         1 UNK         0.3028 
@<TRIPOS>BOND
     1    1    2 1    
     2    1   82 1    
     3    1   83 1    
     4    1   84 1    
     5    2    3 2    
     6    2    4 am   BACKBONE|DICT|INTERRES
     7    4    5 1    
     8    4   85 1    
     9    5    6 1    
    10    5   80 1    
    11    5   86 1    
    12    6    7 1    
    13    6   87 1    
    14    6   88 1    
    15    7    8 1    
    16    8    9 1    
    17    8   89 1    
    18    8   90 1    
    19    9   10 ar   
    20    9   14 ar   
    21   10   11 ar   
    22   10   91 1    
    23   11   12 ar   
    24   11   58 1    
    25   12   13 ar   
    26   12   92 1    
    27   13   14 ar   
    28   13   15 1    
    29   14   93 1    
    30   15   16 1    
    31   15   94 1    
    32   15   95 1    
    33   16   17 1    
    34   17   18 1    
    35   17   96 1    
    36   17   97 1    
    37   18   19 1    
    38   18   22 1    
    39   18   98 1    
    40   19   20 am   BACKBONE|DICT|INTERRES
    41   19   21 2    
    42   20   99 1    
    43   20  100 1    
    44   22   23 am   BACKBONE|DICT|INTERRES
    45   22  101 1    
    46   23   24 2    
    47   23   25 1    
    48   25   26 1    
    49   25   27 1    
    50   25  102 1    
    51   26  103 1    
    52   26  104 1    
    53   26  105 1    
    54   27   28 am   BACKBONE|DICT|INTERRES
    55   27  106 1    
    56   28   29 2    
    57   28   30 1    
    58   30   31 1    
    59   30   32 1    
    60   30  107 1    
    61   31  108 1    
    62   31  109 1    
    63   31  110 1    
    64   32   33 am   BACKBONE|DICT|INTERRES
    65   32  111 1    
    66   33   34 2    
    67   33   35 1    
    68   35   36 1    
    69   35   37 1    
    70   35  112 1    
    71   36  113 1    
    72   36  114 1    
    73   36  115 1    
    74   37   38 am   BACKBONE|DICT|INTERRES
    75   37  116 1    
    76   38   39 2    
    77   38   40 1    
    78   40   41 1    
    79   40   42 1    
    80   40  117 1    
    81   41  118 1    
    82   41  119 1    
    83   41  120 1    
    84   42   43 am   BACKBONE|DICT|INTERRES
    85   42  121 1    
    86   43   44 2    
    87   43   45 1    
    88   45   46 1    
    89   45   47 1    
    90   45  122 1    
    91   46  123 1    
    92   46  124 1    
    93   46  125 1    
    94   47   48 am   BACKBONE|DICT|INTERRES
    95   47  126 1    
    96   48   49 2    
    97   48   50 1    
    98   50   51 1    
    99   50   52 1    
   100   50  127 1    
   101   51  128 1    
   102   51  129 1    
   103   51  130 1    
   104   52   53 am   BACKBONE|DICT|INTERRES
   105   52  131 1    
   106   53   54 2    
   107   53   55 1    
   108   55   56 1    
   109   55   59 1    
   110   55  132 1    
   111   56   57 1    
   112   56  133 1    
   113   56  134 1    
   114   57   58 1    
   115   58  135 1    
   116   58  136 1    
   117   59   60 am   BACKBONE|DICT|INTERRES
   118   59  137 1    
   119   60   61 2    
   120   60   62 1    
   121   62   63 1    
   122   62   64 1    
   123   62  138 1    
   124   63  139 1    
   125   63  140 1    
   126   63  141 1    
   127   64   65 am   BACKBONE|DICT|INTERRES
   128   64  142 1    
   129   65   66 2    
   130   65   67 1    
   131   67   68 1    
   132   67   69 1    
   133   67  143 1    
   134   68  144 1    
   135   68  145 1    
   136   68  146 1    
   137   69   70 am   BACKBONE|DICT|INTERRES
   138   69  147 1    
   139   70   71 2    
   140   70   72 1    
   141   72   73 1    
   142   72   74 1    
   143   72  148 1    
   144   73  149 1    
   145   73  150 1    
   146   73  151 1    
   147   74   75 am   BACKBONE|DICT|INTERRES
   148   74  152 1    
   149   75   76 2    
   150   75   77 1    
   151   77   78 1    
   152   77   79 1    
   153   77  153 1    
   154   78  154 1    
   155   78  155 1    
   156   78  156 1    
   157   79   80 am   BACKBONE|DICT|INTERRES
   158   79  157 1    
   159   80   81 2    
@<TRIPOS>SUBSTRUCTURE
     1 UNK         1 GROUP             0       ****    0 ROOT    
