@<TRIPOS>MOLECULE
3R207
157   159    1
SMALL
USER_CHARGES


@<TRIPOS>ATOM
      1 CA        -47.7330  -31.1509    3.4730 C.3       0 UNK        -0.1975 
      2 C         -48.1400  -30.0225    4.4086 C.2       0 UNK         0.4852 
      3 O         -47.3661  -29.6609    5.2965 O.2       0 UNK        -0.5216 
      4 N         -49.3405  -29.4600    4.2040 N.am      1 UNK        -0.4461 
      5 CA        -49.9880  -28.3792    4.9685 C.3       1 UNK         0.0864 
      6 C6        -50.1843  -28.6888    6.4760 C.3       14 UNK        -0.0898 
      7 S7        -51.2056  -30.1715    6.7723 S.3       14 UNK        -0.2598 
      8 C8        -52.7701  -29.4453    7.3661 C.3       14 UNK         0.0286 
      9 C9        -52.5947  -28.6550    8.6572 C.ar      14 UNK        -0.0844 
     10 C10       -52.8455  -27.2795    8.6820 C.ar      14 UNK        -0.0881 
     11 C11       -52.6722  -26.5435    9.8580 C.ar      14 UNK        -0.0643 
     12 C12       -52.2521  -27.1990   11.0207 C.ar      14 UNK        -0.0930 
     13 C13       -51.9969  -28.5739   11.0083 C.ar      14 UNK        -0.0827 
     14 C14       -52.1762  -29.2966    9.8258 C.ar      14 UNK        -0.1249 
     15 C15       -51.4926  -29.2756   12.2613 C.3       14 UNK         0.0141 
     16 S16       -52.8133  -29.5829   13.4733 S.3       14 UNK        -0.2313 
     17 C17       -53.8981  -30.7483   12.5839 C.3       14 UNK        -0.0915 
     18 CA        -55.2060  -31.0955   13.3448 C.3       13 UNK         0.0968 
     19 C         -54.9531  -31.9466   14.6236 C.2       13 UNK         0.5732 
     20 N         -55.3412  -31.4962   15.8113 N.am      13 UNK        -0.7310 
     21 O         -54.4143  -33.0475   14.5326 O.2       13 UNK        -0.5035 
     22 N         -56.0539  -29.9085   13.5507 N.am      13 UNK        -0.4233 
     23 C         -57.3945  -29.9386   13.6103 C.2       13 UNK         0.4989 
     24 O         -58.0569  -30.9715   13.5009 O.2       13 UNK        -0.4996 
     25 CA        -58.1427  -28.6060   13.8235 C.3       12 UNK         0.0216 
     26 CB        -58.6296  -28.4896   15.2775 C.3       12 UNK        -0.1964 
     27 N         -57.3388  -27.4279   13.4973 N.am      12 UNK        -0.4276 
     28 C         -56.9379  -27.0772   12.2699 C.2       12 UNK         0.5020 
     29 O         -57.3530  -27.6230   11.2466 O.2       12 UNK        -0.5489 
     30 CA        -55.8877  -25.9500   12.1450 C.3       11 UNK         0.0294 
     31 CB        -56.4161  -24.8154   11.2492 C.3       11 UNK        -0.2019 
     32 N         -55.3740  -25.3575   13.3922 N.am      11 UNK        -0.4493 
     33 C         -54.7566  -25.9888   14.4007 C.2       11 UNK         0.4932 
     34 O         -54.6977  -27.2127   14.5147 O.2       11 UNK        -0.5029 
     35 CA        -54.1738  -25.0951   15.5082 C.3       10 UNK         0.0280 
     36 CB        -55.2204  -24.8638   16.6105 C.3       10 UNK        -0.1976 
     37 N         -52.9645  -25.6685   16.1069 N.am      10 UNK        -0.4242 
     38 C         -51.8115  -25.8700   15.4544 C.2       10 UNK         0.5072 
     39 O         -51.6321  -25.5750   14.2740 O.2       10 UNK        -0.5224 
     40 CA        -50.6772  -26.5146   16.2594 C.3       9 UNK         0.0343 
     41 CB        -50.8329  -28.0453   16.3117 C.3       9 UNK        -0.2003 
     42 N         -49.3813  -26.1733   15.6713 N.am      9 UNK        -0.4272 
     43 C         -48.2327  -26.1027   16.3563 C.2       9 UNK         0.4988 
     44 O         -48.1478  -26.3112   17.5678 O.2       9 UNK        -0.5108 
     45 CA        -46.9538  -25.7509   15.5769 C.3       8 UNK         0.0248 
     46 CB        -46.3686  -27.0013   14.9000 C.3       8 UNK        -0.2001 
     47 N         -47.1430  -24.6910   14.5848 N.am      8 UNK        -0.4140 
     48 C         -47.3442  -23.3980   14.8809 C.2       8 UNK         0.5028 
     49 O         -47.3888  -22.9561   16.0299 O.2       8 UNK        -0.5428 
     50 CA        -47.5191  -22.4276   13.6990 C.3       7 UNK         0.0264 
     51 CB        -46.1544  -21.9593   13.1690 C.3       7 UNK        -0.1988 
     52 N         -48.2903  -23.0225   12.6081 N.am      7 UNK        -0.4454 
     53 C         -49.6100  -23.2508   12.6546 C.2       7 UNK         0.5027 
     54 O         -50.3349  -22.8310   13.5573 O.2       7 UNK        -0.5083 
     55 CA        -50.2238  -24.0894   11.5139 C.3       6 UNK         0.0844 
     56 C56       -50.8799  -23.1859   10.4435 C.3       14 UNK        -0.0967 
     57 S57       -51.6132  -24.1119    9.0499 S.3       14 UNK        -0.2604 
     58 C58       -52.9545  -25.0467    9.8580 C.3       14 UNK         0.0134 
     59 N         -49.2707  -25.0408   10.9375 N.am      6 UNK        -0.4116 
     60 C         -48.7901  -26.1246   11.5609 C.2       5 UNK         0.5034 
     61 O         -49.0788  -26.4507   12.7108 O.2       5 UNK        -0.5045 
     62 CA        -47.7584  -26.9509   10.7807 C.3       5 UNK         0.0224 
     63 CB        -48.4536  -27.8771    9.7695 C.3       5 UNK        -0.1978 
     64 N         -46.7929  -26.0875   10.0944 N.am      5 UNK        -0.4737 
     65 C         -45.8709  -25.3517   10.7354 C.2       4 UNK         0.5027 
     66 O         -45.7080  -25.3829   11.9546 O.2       4 UNK        -0.5211 
     67 CA        -45.0185  -24.3841    9.8934 C.3       4 UNK         0.0297 
     68 CB        -43.7467  -25.0867    9.3938 C.3       4 UNK        -0.1993 
     69 N         -45.7394  -23.8137    8.7532 N.am      4 UNK        -0.4486 
     70 C         -46.8483  -23.0650    8.8392 C.2       3 UNK         0.4961 
     71 O         -47.3379  -22.6949    9.9050 O.2       3 UNK        -0.5105 
     72 CA        -47.5645  -22.7058    7.5235 C.3       3 UNK         0.0299 
     73 CB        -47.2072  -21.2737    7.0960 C.3       3 UNK        -0.1972 
     74 N         -47.3064  -23.6266    6.4074 N.am      3 UNK        -0.4305 
     75 C         -47.5557  -24.9438    6.4158 C.2       2 UNK         0.5006 
     76 O         -47.9697  -25.5565    7.4033 O.2       2 UNK        -0.5106 
     77 CA        -47.2154  -25.7091    5.1260 C.3       2 UNK         0.0296 
     78 CB        -45.7208  -26.0697    5.0979 C.3       2 UNK        -0.2002 
     79 N         -47.9966  -26.9400    5.0249 N.am      2 UNK        -0.4032 
     80 C         -49.3121  -27.0040    4.7902 C.2       1 UNK         0.5000 
     81 O         -49.9936  -26.0334    4.4532 O.2       1 UNK        -0.5238 
     82 H82       -47.5442  -32.0597    4.0438 H         1 UNK         0.0889 
     83 H83       -46.8194  -30.8861    2.9414 H         1 UNK         0.0889 
     84 H84       -48.5046  -31.3688    2.7347 H         1 UNK         0.0889 
     85 H85       -49.8978  -29.8064    3.4352 H         1 UNK         0.3028 
     86 H86       -50.9832  -28.2785    4.5318 H         1 UNK         0.0864 
     87 H87       -50.6354  -27.8327    6.9796 H         1 UNK         0.0720 
     88 H88       -49.2242  -28.8402    6.9709 H         1 UNK         0.0720 
     89 H89       -53.4890  -30.2477    7.5371 H         1 UNK         0.0814 
     90 H90       -53.1916  -28.8192    6.5781 H         1 UNK         0.0814 
     91 H91       -53.1661  -26.7729    7.7820 H         1 UNK         0.1469 
     92 H92       -52.1186  -26.6472   11.9405 H         1 UNK         0.1381 
     93 H93       -51.9756  -30.3591    9.8079 H         1 UNK         0.1206 
     94 H94       -50.7260  -28.6587   12.7325 H         1 UNK         0.0813 
     95 H95       -51.0094  -30.2204   12.0085 H         1 UNK         0.0813 
     96 H96       -53.3301  -31.6525   12.3582 H         1 UNK         0.0638 
     97 H97       -54.1573  -30.3097   11.6197 H         1 UNK         0.0638 
     98 H98       -55.7568  -31.7646   12.6810 H         1 UNK         0.0568 
     99 H99       -55.1791  -32.0597   16.6306 H         1 UNK         0.3450 
    100 H100      -55.7734  -30.5910   15.8951 H         1 UNK         0.3450 
    101 H101      -55.5628  -29.0338   13.7002 H         1 UNK         0.2987 
    102 H102      -59.0154  -28.6132   13.1671 H         1 UNK         0.0766 
    103 H103      -59.2285  -27.5906   15.4246 H         1 UNK         0.0798 
    104 H104      -57.7972  -28.4582   15.9818 H         1 UNK         0.0798 
    105 H105      -59.2554  -29.3409   15.5497 H         1 UNK         0.0798 
    106 H106      -56.8862  -26.9611   14.2710 H         1 UNK         0.3198 
    107 H107      -55.0316  -26.4047   11.6438 H         1 UNK         0.0843 
    108 H108      -57.2837  -24.3259   11.6932 H         1 UNK         0.0831 
    109 H109      -55.6558  -24.0551   11.0716 H         1 UNK         0.0831 
    110 H110      -56.7211  -25.1942   10.2725 H         1 UNK         0.0831 
    111 H111      -55.4174  -24.3493   13.4378 H         1 UNK         0.3133 
    112 H112      -53.9028  -24.1307   15.0732 H         1 UNK         0.0566 
    113 H113      -54.8421  -24.1953   17.3843 H         1 UNK         0.0814 
    114 H114      -56.1239  -24.4062   16.2050 H         1 UNK         0.0814 
    115 H115      -55.5159  -25.7987   17.0889 H         1 UNK         0.0814 
    116 H116      -53.0405  -25.9808   17.0637 H         1 UNK         0.3091 
    117 H117      -50.7273  -26.1136   17.2741 H         1 UNK         0.0702 
    118 H118      -50.6965  -28.4903   15.3259 H         1 UNK         0.0785 
    119 H119      -51.8234  -28.3337   16.6660 H         1 UNK         0.0785 
    120 H120      -50.1030  -28.4958   16.9843 H         1 UNK         0.0785 
    121 H121      -49.3927  -26.0037   14.6673 H         1 UNK         0.2998 
    122 H122      -46.2183  -25.3944   16.3013 H         1 UNK         0.0697 
    123 H123      -47.0449  -27.4115   14.1500 H         1 UNK         0.0825 
    124 H124      -46.1792  -27.7878   15.6317 H         1 UNK         0.0825 
    125 H125      -45.4206  -26.7799   14.4094 H         1 UNK         0.0825 
    126 H126      -47.0734  -24.9633   13.6112 H         1 UNK         0.3029 
    127 H127      -48.0601  -21.5513   14.0630 H         1 UNK         0.0897 
    128 H128      -46.2690  -21.2534   12.3459 H         1 UNK         0.0792 
    129 H129      -45.5853  -21.4567   13.9521 H         1 UNK         0.0792 
    130 H130      -45.5499  -22.7934   12.8123 H         1 UNK         0.0792 
    131 H131      -47.7859  -23.2743   11.7637 H         1 UNK         0.3086 
    132 H132      -51.0176  -24.6772   11.9699 H         1 UNK         0.0583 
    133 H133      -51.6588  -22.5669   10.8933 H         1 UNK         0.1020 
    134 H134      -50.1449  -22.4918   10.0310 H         1 UNK         0.1020 
    135 H135      -53.1196  -24.6842   10.8735 H         1 UNK         0.0694 
    136 H136      -53.8832  -24.8579    9.3178 H         1 UNK         0.0694 
    137 H137      -48.9714  -24.8558    9.9910 H         1 UNK         0.2989 
    138 H138      -47.2138  -27.5718   11.4957 H         1 UNK         0.1055 
    139 H139      -49.0865  -27.3211    9.0766 H         1 UNK         0.0806 
    140 H140      -49.0948  -28.5961   10.2804 H         1 UNK         0.0806 
    141 H141      -47.7313  -28.4451    9.1833 H         1 UNK         0.0806 
    142 H142      -46.9236  -25.9630    9.0948 H         1 UNK         0.3061 
    143 H143      -44.7215  -23.5576   10.5422 H         1 UNK         0.0734 
    144 H144      -43.0878  -24.3933    8.8709 H         1 UNK         0.0832 
    145 H145      -43.1794  -25.5025   10.2279 H         1 UNK         0.0832 
    146 H146      -43.9782  -25.9092    8.7157 H         1 UNK         0.0832 
    147 H147      -45.4102  -24.0652    7.8332 H         1 UNK         0.3156 
    148 H148      -48.6369  -22.7422    7.7271 H         1 UNK         0.0589 
    149 H149      -46.1504  -21.1791    6.8432 H         1 UNK         0.0808 
    150 H150      -47.7910  -20.9589    6.2308 H         1 UNK         0.0808 
    151 H151      -47.4148  -20.5638    7.8983 H         1 UNK         0.0808 
    152 H152      -46.9450  -23.2113    5.5602 H         1 UNK         0.3098 
    153 H153      -47.4488  -25.0779    4.2661 H         1 UNK         0.0720 
    154 H154      -45.4614  -26.6088    4.1865 H         1 UNK         0.0791 
    155 H155      -45.4415  -26.6962    5.9465 H         1 UNK         0.0791 
    156 H156      -45.0970  -25.1756    5.1313 H         1 UNK         0.0791 
    157 H157      -47.5385  -27.8076    5.2946 H         1 UNK         0.3028 
@<TRIPOS>BOND
     1    1    2 1    
     2    1   82 1    
     3    1   83 1    
     4    1   84 1    
     5    2    3 2    
     6    2    4 am   BACKBONE|DICT|INTERRES
     7    4    5 1    
     8    4   85 1    
     9    5    6 1    
    10    5   80 1    
    11    5   86 1    
    12    6    7 1    
    13    6   87 1    
    14    6   88 1    
    15    7    8 1    
    16    8    9 1    
    17    8   89 1    
    18    8   90 1    
    19    9   10 ar   
    20    9   14 ar   
    21   10   11 ar   
    22   10   91 1    
    23   11   12 ar   
    24   11   58 1    
    25   12   13 ar   
    26   12   92 1    
    27   13   14 ar   
    28   13   15 1    
    29   14   93 1    
    30   15   16 1    
    31   15   94 1    
    32   15   95 1    
    33   16   17 1    
    34   17   18 1    
    35   17   96 1    
    36   17   97 1    
    37   18   19 1    
    38   18   22 1    
    39   18   98 1    
    40   19   20 am   BACKBONE|DICT|INTERRES
    41   19   21 2    
    42   20   99 1    
    43   20  100 1    
    44   22   23 am   BACKBONE|DICT|INTERRES
    45   22  101 1    
    46   23   24 2    
    47   23   25 1    
    48   25   26 1    
    49   25   27 1    
    50   25  102 1    
    51   26  103 1    
    52   26  104 1    
    53   26  105 1    
    54   27   28 am   BACKBONE|DICT|INTERRES
    55   27  106 1    
    56   28   29 2    
    57   28   30 1    
    58   30   31 1    
    59   30   32 1    
    60   30  107 1    
    61   31  108 1    
    62   31  109 1    
    63   31  110 1    
    64   32   33 am   BACKBONE|DICT|INTERRES
    65   32  111 1    
    66   33   34 2    
    67   33   35 1    
    68   35   36 1    
    69   35   37 1    
    70   35  112 1    
    71   36  113 1    
    72   36  114 1    
    73   36  115 1    
    74   37   38 am   BACKBONE|DICT|INTERRES
    75   37  116 1    
    76   38   39 2    
    77   38   40 1    
    78   40   41 1    
    79   40   42 1    
    80   40  117 1    
    81   41  118 1    
    82   41  119 1    
    83   41  120 1    
    84   42   43 am   BACKBONE|DICT|INTERRES
    85   42  121 1    
    86   43   44 2    
    87   43   45 1    
    88   45   46 1    
    89   45   47 1    
    90   45  122 1    
    91   46  123 1    
    92   46  124 1    
    93   46  125 1    
    94   47   48 am   BACKBONE|DICT|INTERRES
    95   47  126 1    
    96   48   49 2    
    97   48   50 1    
    98   50   51 1    
    99   50   52 1    
   100   50  127 1    
   101   51  128 1    
   102   51  129 1    
   103   51  130 1    
   104   52   53 am   BACKBONE|DICT|INTERRES
   105   52  131 1    
   106   53   54 2    
   107   53   55 1    
   108   55   56 1    
   109   55   59 1    
   110   55  132 1    
   111   56   57 1    
   112   56  133 1    
   113   56  134 1    
   114   57   58 1    
   115   58  135 1    
   116   58  136 1    
   117   59   60 am   BACKBONE|DICT|INTERRES
   118   59  137 1    
   119   60   61 2    
   120   60   62 1    
   121   62   63 1    
   122   62   64 1    
   123   62  138 1    
   124   63  139 1    
   125   63  140 1    
   126   63  141 1    
   127   64   65 am   BACKBONE|DICT|INTERRES
   128   64  142 1    
   129   65   66 2    
   130   65   67 1    
   131   67   68 1    
   132   67   69 1    
   133   67  143 1    
   134   68  144 1    
   135   68  145 1    
   136   68  146 1    
   137   69   70 am   BACKBONE|DICT|INTERRES
   138   69  147 1    
   139   70   71 2    
   140   70   72 1    
   141   72   73 1    
   142   72   74 1    
   143   72  148 1    
   144   73  149 1    
   145   73  150 1    
   146   73  151 1    
   147   74   75 am   BACKBONE|DICT|INTERRES
   148   74  152 1    
   149   75   76 2    
   150   75   77 1    
   151   77   78 1    
   152   77   79 1    
   153   77  153 1    
   154   78  154 1    
   155   78  155 1    
   156   78  156 1    
   157   79   80 am   BACKBONE|DICT|INTERRES
   158   79  157 1    
   159   80   81 2    
@<TRIPOS>SUBSTRUCTURE
     1 UNK         1 GROUP             0       ****    0 ROOT    
