@<TRIPOS>MOLECULE
3R207
157   159    1
SMALL
USER_CHARGES


@<TRIPOS>ATOM
      1 CA        -46.5322  -29.7341    5.0422 C.3       0 UNK        -0.1975 
      2 C         -47.4889  -28.5620    4.8866 C.2       0 UNK         0.4852 
      3 O         -47.1775  -27.6090    4.1707 O.2       0 UNK        -0.5216 
      4 N         -48.6512  -28.6190    5.5507 N.am      1 UNK        -0.4461 
      5 CA        -49.6613  -27.5556    5.5526 C.3       1 UNK         0.0864 
      6 C6        -50.9659  -27.9838    6.2602 C.3       14 UNK        -0.0898 
      7 S7        -51.7617  -29.4569    5.5285 S.3       14 UNK        -0.2598 
      8 C8        -53.4651  -29.3229    6.1785 C.3       14 UNK         0.0286 
      9 C9        -53.4781  -29.2562    7.6992 C.ar      14 UNK        -0.0844 
     10 C10       -53.4247  -28.0158    8.3376 C.ar      14 UNK        -0.0881 
     11 C11       -53.2778  -27.9344    9.7224 C.ar      14 UNK        -0.0643 
     12 C12       -53.2669  -29.1069   10.4832 C.ar      14 UNK        -0.0930 
     13 C13       -53.3833  -30.3537    9.8620 C.ar      14 UNK        -0.0827 
     14 C14       -53.4809  -30.4237    8.4676 C.ar      14 UNK        -0.1249 
     15 C15       -53.3566  -31.6293   10.6889 C.3       14 UNK         0.0141 
     16 S16       -55.0078  -32.0438   11.3322 S.3       14 UNK        -0.2313 
     17 C17       -54.9423  -31.4127   13.0438 C.3       14 UNK        -0.0915 
     18 CA        -56.1745  -30.5343   13.3937 C.3       13 UNK         0.0968 
     19 C         -56.4256  -30.4621   14.9301 C.2       13 UNK         0.5732 
     20 N         -56.5892  -29.2957   15.5439 N.am      13 UNK        -0.7310 
     21 O         -56.4948  -31.4980   15.5873 O.2       13 UNK        -0.5035 
     22 N         -56.0896  -29.2149   12.7508 N.am      13 UNK        -0.4233 
     23 C         -57.1340  -28.5371   12.2570 C.2       13 UNK         0.4989 
     24 O         -58.2746  -28.9994   12.1890 O.2       13 UNK        -0.4996 
     25 CA        -56.8649  -27.0959   11.7653 C.3       12 UNK         0.0216 
     26 CB        -58.1444  -26.2330   11.7263 C.3       12 UNK        -0.1964 
     27 N         -55.8038  -26.3993   12.5075 N.am      12 UNK        -0.4276 
     28 C         -55.7417  -26.1938   13.8307 C.2       12 UNK         0.5020 
     29 O         -56.6164  -26.5367   14.6288 O.2       12 UNK        -0.5489 
     30 CA        -54.4444  -25.5591   14.3612 C.3       11 UNK         0.0294 
     31 CB        -54.7396  -24.2431   15.0998 C.3       11 UNK        -0.2019 
     32 N         -53.7330  -26.4682   15.2628 N.am      11 UNK        -0.4493 
     33 C         -53.3339  -27.7129   14.9713 C.2       11 UNK         0.4932 
     34 O         -53.4812  -28.2366   13.8651 O.2       11 UNK        -0.5029 
     35 CA        -52.6554  -28.4944   16.1125 C.3       10 UNK         0.0280 
     36 CB        -52.5135  -29.9946   15.7946 C.3       10 UNK        -0.1976 
     37 N         -51.3325  -27.9552   16.4299 N.am      10 UNK        -0.4242 
     38 C         -51.0855  -26.8232   17.1023 C.2       10 UNK         0.5072 
     39 O         -51.9710  -26.0940   17.5553 O.2       10 UNK        -0.5224 
     40 CA        -49.6142  -26.4351   17.3180 C.3       9 UNK         0.0343 
     41 CB        -48.5931  -27.4944   16.8506 C.3       9 UNK        -0.2003 
     42 N         -49.3591  -25.1841   16.6124 N.am      9 UNK        -0.4272 
     43 C         -48.7235  -24.1185   17.1181 C.2       9 UNK         0.4988 
     44 O         -48.2770  -24.0743   18.2657 O.2       9 UNK        -0.5108 
     45 CA        -48.5199  -22.8948   16.2009 C.3       8 UNK         0.0248 
     46 CB        -47.0287  -22.7126   15.8700 C.3       8 UNK        -0.2001 
     47 N         -49.2790  -22.9735   14.9503 N.am      8 UNK        -0.4140 
     48 C         -50.5921  -22.7189   14.8453 C.2       8 UNK         0.5028 
     49 O         -51.2788  -22.2947   15.7750 O.2       8 UNK        -0.5428 
     50 CA        -51.2699  -22.9988   13.4894 C.3       7 UNK         0.0264 
     51 CB        -51.4770  -21.6910   12.7095 C.3       7 UNK        -0.1988 
     52 N         -50.5596  -23.9556   12.6367 N.am      7 UNK        -0.4454 
     53 C         -50.2846  -25.2315   12.9475 C.2       7 UNK         0.5027 
     54 O         -50.6185  -25.7603   14.0068 O.2       7 UNK        -0.5083 
     55 CA        -49.4494  -26.0394   11.9291 C.3       6 UNK         0.0844 
     56 C56       -50.3456  -26.8967   11.0037 C.3       14 UNK        -0.0967 
     57 S57       -51.4354  -25.9027    9.9212 S.3       14 UNK        -0.2604 
     58 C58       -53.0670  -26.5751   10.3667 C.3       14 UNK         0.0134 
     59 N         -48.4848  -25.2452   11.1564 N.am      6 UNK        -0.4116 
     60 C         -47.5400  -24.4337   11.6553 C.2       5 UNK         0.5034 
     61 O         -47.4377  -24.1538   12.8515 O.2       5 UNK        -0.5045 
     62 CA        -46.5479  -23.8433   10.6339 C.3       5 UNK         0.0224 
     63 CB        -45.3312  -23.1671   11.3010 C.3       5 UNK        -0.1978 
     64 N         -46.1124  -24.8264    9.6313 N.am      5 UNK        -0.4737 
     65 C         -45.4910  -25.9986    9.8521 C.2       4 UNK         0.5027 
     66 O         -45.1675  -26.4028   10.9690 O.2       4 UNK        -0.5211 
     67 CA        -45.1862  -26.8882    8.6315 C.3       4 UNK         0.0297 
     68 CB        -46.0023  -28.1913    8.6918 C.3       4 UNK        -0.1993 
     69 N         -45.4496  -26.2093    7.3601 N.am      4 UNK        -0.4486 
     70 C         -44.5719  -25.4059    6.7397 C.2       3 UNK         0.4961 
     71 O         -43.4174  -25.2301    7.1299 O.2       3 UNK        -0.5105 
     72 CA        -45.0522  -24.6499    5.4862 C.3       3 UNK         0.0299 
     73 CB        -44.5114  -25.3177    4.2118 C.3       3 UNK        -0.1972 
     74 N         -46.5101  -24.5257    5.3948 N.am      3 UNK        -0.4305 
     75 C         -47.2603  -23.7634    6.2061 C.2       2 UNK         0.5006 
     76 O         -46.7962  -23.0705    7.1117 O.2       2 UNK        -0.5106 
     77 CA        -48.7883  -23.8233    6.0198 C.3       2 UNK         0.0296 
     78 CB        -49.2554  -22.7259    5.0503 C.3       2 UNK        -0.2002 
     79 N         -49.2837  -25.1262    5.5612 N.am      2 UNK        -0.4032 
     80 C         -49.0995  -26.2814    6.2156 C.2       1 UNK         0.5000 
     81 O         -48.4963  -26.3678    7.2893 O.2       1 UNK        -0.5238 
     82 H82       -45.5504  -29.3770    5.3522 H         1 UNK         0.0889 
     83 H83       -46.4206  -30.2545    4.0915 H         1 UNK         0.0889 
     84 H84       -46.8832  -30.4504    5.7848 H         1 UNK         0.0889 
     85 H85       -48.8635  -29.4197    6.1279 H         1 UNK         0.3028 
     86 H86       -49.8976  -27.3308    4.5102 H         1 UNK         0.0864 
     87 H87       -50.7762  -28.1862    7.3169 H         1 UNK         0.0720 
     88 H88       -51.6822  -27.1615    6.2231 H         1 UNK         0.0720 
     89 H89       -54.0458  -30.1815    5.8382 H         1 UNK         0.0814 
     90 H90       -53.9471  -28.4408    5.7541 H         1 UNK         0.0814 
     91 H91       -53.4204  -27.1069    7.7522 H         1 UNK         0.1469 
     92 H92       -53.1458  -29.0563   11.5545 H         1 UNK         0.1381 
     93 H93       -53.5294  -31.3868    7.9779 H         1 UNK         0.1206 
     94 H94       -52.6343  -31.5426   11.5018 H         1 UNK         0.0813 
     95 H95       -53.0097  -32.4609   10.0736 H         1 UNK         0.0813 
     96 H96       -54.0196  -30.8564   13.2117 H         1 UNK         0.0638 
     97 H97       -54.8844  -32.2910   13.6891 H         1 UNK         0.0638 
     98 H98       -57.0535  -31.0529   13.0068 H         1 UNK         0.0568 
     99 H99       -56.7653  -29.2935   16.5352 H         1 UNK         0.3450 
    100 H100      -56.5809  -28.4145   15.0389 H         1 UNK         0.3450 
    101 H101      -55.1929  -28.7506   12.8394 H         1 UNK         0.2987 
    102 H102      -56.5039  -27.1972   10.7405 H         1 UNK         0.0766 
    103 H103      -57.9367  -25.2312   11.3507 H         1 UNK         0.0798 
    104 H104      -58.5935  -26.1339   12.7152 H         1 UNK         0.0798 
    105 H105      -58.8964  -26.6725   11.0696 H         1 UNK         0.0798 
    106 H106      -55.0234  -26.0902   11.9484 H         1 UNK         0.3198 
    107 H107      -53.7764  -25.3439   13.5254 H         1 UNK         0.0843 
    108 H108      -55.4181  -24.3971   15.9401 H         1 UNK         0.0831 
    109 H109      -55.2068  -23.5176   14.4326 H         1 UNK         0.0831 
    110 H110      -53.8290  -23.7881   15.4902 H         1 UNK         0.0831 
    111 H111      -53.5005  -26.1159   16.1853 H         1 UNK         0.3133 
    112 H112      -53.2906  -28.4030   16.9962 H         1 UNK         0.0566 
    113 H113      -51.9028  -30.1670   14.9073 H         1 UNK         0.0814 
    114 H114      -52.0602  -30.5360   16.6251 H         1 UNK         0.0814 
    115 H115      -53.4886  -30.4465   15.6140 H         1 UNK         0.0814 
    116 H116      -50.5434  -28.4620   16.0572 H         1 UNK         0.3091 
    117 H117      -49.4929  -26.2958   18.3942 H         1 UNK         0.0702 
    118 H118      -47.5762  -27.1818   17.0895 H         1 UNK         0.0785 
    119 H119      -48.6372  -27.6593   15.7729 H         1 UNK         0.0785 
    120 H120      -48.7540  -28.4512   17.3494 H         1 UNK         0.0785 
    121 H121      -49.7491  -25.1332   15.6757 H         1 UNK         0.2998 
    122 H122      -48.8520  -22.0143   16.7549 H         1 UNK         0.0697 
    123 H123      -46.6197  -23.5847   15.3584 H         1 UNK         0.0825 
    124 H124      -46.4422  -22.5646   16.7777 H         1 UNK         0.0825 
    125 H125      -46.8646  -21.8429   15.2335 H         1 UNK         0.0825 
    126 H126      -48.7770  -23.3297   14.1420 H         1 UNK         0.3029 
    127 H127      -52.2500  -23.4250   13.7051 H         1 UNK         0.0897 
    128 H128      -52.0344  -20.9657   13.3044 H         1 UNK         0.0792 
    129 H129      -52.0447  -21.8591   11.7940 H         1 UNK         0.0792 
    130 H130      -50.5272  -21.2284   12.4381 H         1 UNK         0.0792 
    131 H131      -50.2482  -23.6168   11.7380 H         1 UNK         0.3086 
    132 H132      -48.8472  -26.7312   12.5217 H         1 UNK         0.0583 
    133 H133      -49.7254  -27.5292   10.3661 H         1 UNK         0.1020 
    134 H134      -50.9391  -27.5899   11.6033 H         1 UNK         0.1020 
    135 H135      -53.1502  -26.6358   11.4523 H         1 UNK         0.0694 
    136 H136      -53.8404  -25.8865   10.0234 H         1 UNK         0.0694 
    137 H137      -48.4963  -25.3998   10.1579 H         1 UNK         0.2989 
    138 H138      -47.0956  -23.0710   10.0908 H         1 UNK         0.1055 
    139 H139      -45.6462  -22.3544   11.9569 H         1 UNK         0.0806 
    140 H140      -44.6584  -22.7398   10.5575 H         1 UNK         0.0806 
    141 H141      -44.7590  -23.8695   11.9079 H         1 UNK         0.0806 
    142 H142      -46.3160  -24.5769    8.6705 H         1 UNK         0.3061 
    143 H143      -44.1287  -27.1564    8.6827 H         1 UNK         0.0734 
    144 H144      -45.7808  -28.8393    7.8447 H         1 UNK         0.0832 
    145 H145      -45.7677  -28.7544    9.5961 H         1 UNK         0.0832 
    146 H146      -47.0756  -28.0021    8.7016 H         1 UNK         0.0832 
    147 H147      -46.3978  -26.2766    7.0060 H         1 UNK         0.3156 
    148 H148      -44.6365  -23.6413    5.5379 H         1 UNK         0.0589 
    149 H149      -44.8617  -26.3452    4.1121 H         1 UNK         0.0808 
    150 H150      -44.8096  -24.7712    3.3170 H         1 UNK         0.0808 
    151 H151      -43.4209  -25.3485    4.2224 H         1 UNK         0.0808 
    152 H152      -46.9705  -25.1013    4.7020 H         1 UNK         0.3098 
    153 H153      -49.2399  -23.6305    6.9954 H         1 UNK         0.0720 
    154 H154      -50.3430  -22.6883    4.9864 H         1 UNK         0.0791 
    155 H155      -48.8636  -22.8810    4.0441 H         1 UNK         0.0791 
    156 H156      -48.9190  -21.7427    5.3829 H         1 UNK         0.0791 
    157 H157      -49.7834  -25.1354    4.6834 H         1 UNK         0.3028 
@<TRIPOS>BOND
     1    1    2 1    
     2    1   82 1    
     3    1   83 1    
     4    1   84 1    
     5    2    3 2    
     6    2    4 am   BACKBONE|DICT|INTERRES
     7    4    5 1    
     8    4   85 1    
     9    5    6 1    
    10    5   80 1    
    11    5   86 1    
    12    6    7 1    
    13    6   87 1    
    14    6   88 1    
    15    7    8 1    
    16    8    9 1    
    17    8   89 1    
    18    8   90 1    
    19    9   10 ar   
    20    9   14 ar   
    21   10   11 ar   
    22   10   91 1    
    23   11   12 ar   
    24   11   58 1    
    25   12   13 ar   
    26   12   92 1    
    27   13   14 ar   
    28   13   15 1    
    29   14   93 1    
    30   15   16 1    
    31   15   94 1    
    32   15   95 1    
    33   16   17 1    
    34   17   18 1    
    35   17   96 1    
    36   17   97 1    
    37   18   19 1    
    38   18   22 1    
    39   18   98 1    
    40   19   20 am   BACKBONE|DICT|INTERRES
    41   19   21 2    
    42   20   99 1    
    43   20  100 1    
    44   22   23 am   BACKBONE|DICT|INTERRES
    45   22  101 1    
    46   23   24 2    
    47   23   25 1    
    48   25   26 1    
    49   25   27 1    
    50   25  102 1    
    51   26  103 1    
    52   26  104 1    
    53   26  105 1    
    54   27   28 am   BACKBONE|DICT|INTERRES
    55   27  106 1    
    56   28   29 2    
    57   28   30 1    
    58   30   31 1    
    59   30   32 1    
    60   30  107 1    
    61   31  108 1    
    62   31  109 1    
    63   31  110 1    
    64   32   33 am   BACKBONE|DICT|INTERRES
    65   32  111 1    
    66   33   34 2    
    67   33   35 1    
    68   35   36 1    
    69   35   37 1    
    70   35  112 1    
    71   36  113 1    
    72   36  114 1    
    73   36  115 1    
    74   37   38 am   BACKBONE|DICT|INTERRES
    75   37  116 1    
    76   38   39 2    
    77   38   40 1    
    78   40   41 1    
    79   40   42 1    
    80   40  117 1    
    81   41  118 1    
    82   41  119 1    
    83   41  120 1    
    84   42   43 am   BACKBONE|DICT|INTERRES
    85   42  121 1    
    86   43   44 2    
    87   43   45 1    
    88   45   46 1    
    89   45   47 1    
    90   45  122 1    
    91   46  123 1    
    92   46  124 1    
    93   46  125 1    
    94   47   48 am   BACKBONE|DICT|INTERRES
    95   47  126 1    
    96   48   49 2    
    97   48   50 1    
    98   50   51 1    
    99   50   52 1    
   100   50  127 1    
   101   51  128 1    
   102   51  129 1    
   103   51  130 1    
   104   52   53 am   BACKBONE|DICT|INTERRES
   105   52  131 1    
   106   53   54 2    
   107   53   55 1    
   108   55   56 1    
   109   55   59 1    
   110   55  132 1    
   111   56   57 1    
   112   56  133 1    
   113   56  134 1    
   114   57   58 1    
   115   58  135 1    
   116   58  136 1    
   117   59   60 am   BACKBONE|DICT|INTERRES
   118   59  137 1    
   119   60   61 2    
   120   60   62 1    
   121   62   63 1    
   122   62   64 1    
   123   62  138 1    
   124   63  139 1    
   125   63  140 1    
   126   63  141 1    
   127   64   65 am   BACKBONE|DICT|INTERRES
   128   64  142 1    
   129   65   66 2    
   130   65   67 1    
   131   67   68 1    
   132   67   69 1    
   133   67  143 1    
   134   68  144 1    
   135   68  145 1    
   136   68  146 1    
   137   69   70 am   BACKBONE|DICT|INTERRES
   138   69  147 1    
   139   70   71 2    
   140   70   72 1    
   141   72   73 1    
   142   72   74 1    
   143   72  148 1    
   144   73  149 1    
   145   73  150 1    
   146   73  151 1    
   147   74   75 am   BACKBONE|DICT|INTERRES
   148   74  152 1    
   149   75   76 2    
   150   75   77 1    
   151   77   78 1    
   152   77   79 1    
   153   77  153 1    
   154   78  154 1    
   155   78  155 1    
   156   78  156 1    
   157   79   80 am   BACKBONE|DICT|INTERRES
   158   79  157 1    
   159   80   81 2    
@<TRIPOS>SUBSTRUCTURE
     1 UNK         1 GROUP             0       ****    0 ROOT    
