@<TRIPOS>MOLECULE
3R207
157   159    1
SMALL
USER_CHARGES


@<TRIPOS>ATOM
      1 CA        -55.0027  -25.9818    7.1706 C.3       0 UNK        -0.1975 
      2 C         -53.6131  -26.4338    7.5925 C.2       0 UNK         0.4852 
      3 O         -53.3906  -26.6765    8.7761 O.2       0 UNK        -0.5216 
      4 N         -52.6822  -26.5492    6.6344 N.am      1 UNK        -0.4461 
      5 CA        -51.2900  -26.9640    6.8605 C.3       1 UNK         0.0864 
      6 C6        -50.7676  -27.7854    5.6546 C.3       14 UNK        -0.0898 
      7 S7        -49.3130  -28.8271    6.0166 S.3       14 UNK        -0.2598 
      8 C8        -50.0484  -30.3073    6.7869 C.3       14 UNK         0.0286 
      9 C9        -50.1552  -30.1737    8.3012 C.ar      14 UNK        -0.0844 
     10 C10       -49.0112  -30.2970    9.0970 C.ar      14 UNK        -0.0881 
     11 C11       -49.0953  -30.1916   10.4896 C.ar      14 UNK        -0.0643 
     12 C12       -50.3382  -29.9603   11.0850 C.ar      14 UNK        -0.0930 
     13 C13       -51.4907  -29.8441   10.3026 C.ar      14 UNK        -0.0827 
     14 C14       -51.3942  -29.9561    8.9123 C.ar      14 UNK        -0.1249 
     15 C15       -52.8406  -29.6064   10.9594 C.3       14 UNK         0.0141 
     16 S16       -53.7383  -31.1717   11.1859 S.3       14 UNK        -0.2313 
     17 C17       -55.0281  -30.7439   12.4052 C.3       14 UNK        -0.0915 
     18 CA        -56.0332  -29.6705   11.9063 C.3       13 UNK         0.0968 
     19 C         -57.4178  -29.8256   12.5888 C.2       13 UNK         0.5732 
     20 N         -58.4036  -30.3627   11.8826 N.am      13 UNK        -0.7310 
     21 O         -57.5948  -29.5088   13.7629 O.2       13 UNK        -0.5035 
     22 N         -55.5027  -28.3198   12.1174 N.am      13 UNK        -0.4233 
     23 C         -55.8680  -27.2395   11.4179 C.2       13 UNK         0.4989 
     24 O         -56.6820  -27.2715   10.4927 O.2       13 UNK        -0.4996 
     25 CA        -55.1849  -25.9084   11.7944 C.3       12 UNK         0.0216 
     26 CB        -55.9865  -24.6705   11.3396 C.3       12 UNK        -0.1964 
     27 N         -54.8134  -25.8024   13.2119 N.am      12 UNK        -0.4276 
     28 C         -55.6266  -25.8311   14.2771 C.2       12 UNK         0.5020 
     29 O         -56.8514  -25.9470   14.2037 O.2       12 UNK        -0.5489 
     30 CA        -54.9448  -25.6967   15.6554 C.3       11 UNK         0.0294 
     31 CB        -55.8954  -26.0221   16.8273 C.3       11 UNK        -0.2019 
     32 N         -53.6976  -26.4648   15.7821 N.am      11 UNK        -0.4493 
     33 C         -53.5321  -27.7899   15.6501 C.2       11 UNK         0.4932 
     34 O         -54.4366  -28.5568   15.3217 O.2       11 UNK        -0.5029 
     35 CA        -52.1287  -28.3759   15.9203 C.3       10 UNK         0.0280 
     36 CB        -51.6556  -29.2643   14.7595 C.3       10 UNK        -0.1976 
     37 N         -51.0930  -27.3741   16.1912 N.am      10 UNK        -0.4242 
     38 C         -50.8882  -26.7694   17.3696 C.2       10 UNK         0.5072 
     39 O         -51.5637  -26.9789   18.3772 O.2       10 UNK        -0.5224 
     40 CA        -49.7501  -25.7374   17.4221 C.3       9 UNK         0.0343 
     41 CB        -48.3960  -26.4287   17.6508 C.3       9 UNK        -0.2003 
     42 N         -49.6908  -24.9337   16.1997 N.am      9 UNK        -0.4272 
     43 C         -50.5220  -23.9187   15.9217 C.2       9 UNK         0.4988 
     44 O         -51.3892  -23.5109   16.6945 O.2       9 UNK        -0.5108 
     45 CA        -50.3831  -23.2685   14.5341 C.3       8 UNK         0.0248 
     46 CB        -49.2818  -22.1967   14.5445 C.3       8 UNK        -0.2001 
     47 N         -50.1139  -24.2499   13.4791 N.am      8 UNK        -0.4140 
     48 C         -51.0002  -25.1785   13.0869 C.2       8 UNK         0.5028 
     49 O         -52.1453  -25.2495   13.5277 O.2       8 UNK        -0.5428 
     50 CA        -50.5532  -26.2288   12.0571 C.3       7 UNK         0.0264 
     51 CB        -50.9519  -25.7844   10.6502 C.3       7 UNK        -0.1988 
     52 N         -49.1239  -26.5285   12.0667 N.am      7 UNK        -0.4454 
     53 C         -48.4075  -26.9272   13.1259 C.2       7 UNK         0.5027 
     54 O         -48.9051  -27.1995   14.2203 O.2       7 UNK        -0.5083 
     55 CA        -46.8719  -26.9421   12.9586 C.3       6 UNK         0.0844 
     56 C56       -46.3335  -28.3788   12.7476 C.3       14 UNK        -0.0967 
     57 S57       -46.6371  -29.0417   11.0692 S.3       14 UNK        -0.2604 
     58 C58       -47.8531  -30.3673   11.3526 C.3       14 UNK         0.0134 
     59 N         -46.3752  -26.0118   11.9317 N.am      6 UNK        -0.4116 
     60 C         -46.5941  -24.6914   11.8640 C.2       5 UNK         0.5034 
     61 O         -47.2464  -24.0715   12.7045 O.2       5 UNK        -0.5045 
     62 CA        -46.0559  -23.9307   10.6365 C.3       5 UNK         0.0224 
     63 CB        -44.6546  -23.3545   10.9159 C.3       5 UNK        -0.1978 
     64 N         -46.0912  -24.6756    9.3655 N.am      5 UNK        -0.4737 
     65 C         -45.3898  -25.7609    9.0008 C.2       4 UNK         0.5027 
     66 O         -44.5839  -26.3252    9.7405 O.2       4 UNK        -0.5211 
     67 CA        -45.6367  -26.3405    7.5964 C.3       4 UNK         0.0297 
     68 CB        -46.2620  -27.7410    7.6894 C.3       4 UNK        -0.1993 
     69 N         -46.4948  -25.4882    6.7690 N.am      4 UNK        -0.4486 
     70 C         -46.0400  -24.4982    5.9863 C.2       3 UNK         0.4961 
     71 O         -44.8460  -24.2230    5.8627 O.2       3 UNK        -0.5105 
     72 CA        -47.0741  -23.6646    5.2037 C.3       3 UNK         0.0299 
     73 CB        -47.1784  -24.1699    3.7555 C.3       3 UNK        -0.1972 
     74 N         -48.4123  -23.6445    5.7987 N.am      3 UNK        -0.4305 
     75 C         -48.7204  -23.1279    6.9965 C.2       2 UNK         0.5006 
     76 O         -47.9044  -22.5839    7.7411 O.2       2 UNK        -0.5106 
     77 CA        -50.1768  -23.2928    7.4682 C.3       2 UNK         0.0296 
     78 CB        -51.0245  -22.0895    7.0257 C.3       2 UNK        -0.2002 
     79 N         -50.8343  -24.5360    7.0384 N.am      2 UNK        -0.4032 
     80 C         -50.3675  -25.7805    7.2359 C.2       1 UNK         0.5000 
     81 O         -49.2584  -26.0076    7.7227 O.2       1 UNK        -0.5238 
     82 H82       -55.0942  -25.8926    6.0884 H         1 UNK         0.0889 
     83 H83       -55.2313  -25.0136    7.6150 H         1 UNK         0.0889 
     84 H84       -55.7481  -26.6975    7.5173 H         1 UNK         0.0889 
     85 H85       -52.9348  -26.3566    5.6749 H         1 UNK         0.3028 
     86 H86       -51.2790  -27.6161    7.7315 H         1 UNK         0.0864 
     87 H87       -50.5208  -27.1273    4.8195 H         1 UNK         0.0720 
     88 H88       -51.5533  -28.4452    5.2830 H         1 UNK         0.0720 
     89 H89       -49.4194  -31.1673    6.5527 H         1 UNK         0.0814 
     90 H90       -51.0220  -30.5192    6.3428 H         1 UNK         0.0814 
     91 H91       -48.0509  -30.4735    8.6318 H         1 UNK         0.1469 
     92 H92       -50.4096  -29.8876   12.1604 H         1 UNK         0.1381 
     93 H93       -52.2866  -29.8692    8.3074 H         1 UNK         0.1206 
     94 H94       -53.4345  -28.9336   10.3395 H         1 UNK         0.0813 
     95 H95       -52.7143  -29.1113   11.9211 H         1 UNK         0.0813 
     96 H96       -54.5577  -30.4426   13.3422 H         1 UNK         0.0638 
     97 H97       -55.5443  -31.6804   12.6256 H         1 UNK         0.0638 
     98 H98       -56.1754  -29.8169   10.8333 H         1 UNK         0.0568 
     99 H99       -59.3048  -30.4867   12.3165 H         1 UNK         0.3450 
    100 H100      -58.2681  -30.6369   10.9220 H         1 UNK         0.3450 
    101 H101      -54.9240  -28.1955   12.9361 H         1 UNK         0.2987 
    102 H102      -54.2434  -25.9016   11.2452 H         1 UNK         0.0766 
    103 H103      -55.4643  -23.7469   11.5888 H         1 UNK         0.0798 
    104 H104      -56.9731  -24.6356   11.8026 H         1 UNK         0.0798 
    105 H105      -56.1334  -24.6755   10.2588 H         1 UNK         0.0798 
    106 H106      -53.8149  -25.6635   13.3905 H         1 UNK         0.3198 
    107 H107      -54.6609  -24.6468   15.7454 H         1 UNK         0.0843 
    108 H108      -56.2608  -27.0485   16.7759 H         1 UNK         0.0831 
    109 H109      -56.7669  -25.3663   16.8188 H         1 UNK         0.0831 
    110 H110      -55.4005  -25.8891   17.7893 H         1 UNK         0.0831 
    111 H111      -52.8720  -25.9174   15.9818 H         1 UNK         0.3133 
    112 H112      -52.2261  -29.0136   16.8012 H         1 UNK         0.0566 
    113 H113      -50.7066  -29.7478   14.9920 H         1 UNK         0.0814 
    114 H114      -52.3743  -30.0545   14.5390 H         1 UNK         0.0814 
    115 H115      -51.5167  -28.6802   13.8540 H         1 UNK         0.0814 
    116 H116      -50.4441  -27.1770   15.4342 H         1 UNK         0.3091 
    117 H117      -49.9374  -25.0734   18.2690 H         1 UNK         0.0702 
    118 H118      -47.5899  -25.7004   17.7403 H         1 UNK         0.0785 
    119 H119      -48.1431  -27.1106   16.8381 H         1 UNK         0.0785 
    120 H120      -48.4085  -27.0120   18.5726 H         1 UNK         0.0785 
    121 H121      -49.0378  -25.2348   15.4894 H         1 UNK         0.2998 
    122 H122      -51.3307  -22.7779   14.3008 H         1 UNK         0.0697 
    123 H123      -48.3055  -22.6205   14.7828 H         1 UNK         0.0825 
    124 H124      -49.4936  -21.4278   15.2887 H         1 UNK         0.0825 
    125 H125      -49.2027  -21.6993   13.5776 H         1 UNK         0.0825 
    126 H126      -49.1783  -24.2500   13.0828 H         1 UNK         0.3029 
    127 H127      -51.0883  -27.1505   12.2811 H         1 UNK         0.0897 
    128 H128      -51.9848  -25.4375   10.6185 H         1 UNK         0.0792 
    129 H129      -50.8693  -26.6184    9.9543 H         1 UNK         0.0792 
    130 H130      -50.3238  -24.9704   10.2889 H         1 UNK         0.0792 
    131 H131      -48.6253  -26.3635   11.2043 H         1 UNK         0.3086 
    132 H132      -46.4698  -26.5830   13.9080 H         1 UNK         0.0583 
    133 H133      -45.2528  -28.3749   12.8979 H         1 UNK         0.1020 
    134 H134      -46.7193  -29.0559   13.5119 H         1 UNK         0.1020 
    135 H135      -47.3876  -31.3249   11.1161 H         1 UNK         0.0694 
    136 H136      -48.1282  -30.4176   12.4066 H         1 UNK         0.0694 
    137 H137      -45.8027  -26.4203   11.1973 H         1 UNK         0.2989 
    138 H138      -46.7292  -23.0841   10.4891 H         1 UNK         0.1055 
    139 H139      -44.6683  -22.7117   11.7973 H         1 UNK         0.0806 
    140 H140      -44.3015  -22.7501   10.0803 H         1 UNK         0.0806 
    141 H141      -43.9179  -24.1370   11.0995 H         1 UNK         0.0806 
    142 H142      -46.7307  -24.2964    8.6767 H         1 UNK         0.3061 
    143 H143      -44.6610  -26.4468    7.1176 H         1 UNK         0.0734 
    144 H144      -46.4075  -28.1764    6.7012 H         1 UNK         0.0832 
    145 H145      -45.6171  -28.4209    8.2471 H         1 UNK         0.0832 
    146 H146      -47.2287  -27.7218    8.1947 H         1 UNK         0.0832 
    147 H147      -47.4963  -25.6395    6.8613 H         1 UNK         0.3156 
    148 H148      -46.7098  -22.6354    5.1806 H         1 UNK         0.0589 
    149 H149      -47.5614  -25.1903    3.7107 H         1 UNK         0.0808 
    150 H150      -47.8345  -23.5362    3.1585 H         1 UNK         0.0808 
    151 H151      -46.2013  -24.1678    3.2700 H         1 UNK         0.0808 
    152 H152      -49.1514  -24.0795    5.2663 H         1 UNK         0.3098 
    153 H153      -50.1556  -23.3049    8.5592 H         1 UNK         0.0720 
    154 H154      -52.0247  -22.1272    7.4579 H         1 UNK         0.0791 
    155 H155      -51.1275  -22.0442    5.9408 H         1 UNK         0.0791 
    156 H156      -50.5706  -21.1515    7.3495 H         1 UNK         0.0791 
    157 H157      -51.7584  -24.4414    6.6439 H         1 UNK         0.3028 
@<TRIPOS>BOND
     1    1    2 1    
     2    1   82 1    
     3    1   83 1    
     4    1   84 1    
     5    2    3 2    
     6    2    4 am   BACKBONE|DICT|INTERRES
     7    4    5 1    
     8    4   85 1    
     9    5    6 1    
    10    5   80 1    
    11    5   86 1    
    12    6    7 1    
    13    6   87 1    
    14    6   88 1    
    15    7    8 1    
    16    8    9 1    
    17    8   89 1    
    18    8   90 1    
    19    9   10 ar   
    20    9   14 ar   
    21   10   11 ar   
    22   10   91 1    
    23   11   12 ar   
    24   11   58 1    
    25   12   13 ar   
    26   12   92 1    
    27   13   14 ar   
    28   13   15 1    
    29   14   93 1    
    30   15   16 1    
    31   15   94 1    
    32   15   95 1    
    33   16   17 1    
    34   17   18 1    
    35   17   96 1    
    36   17   97 1    
    37   18   19 1    
    38   18   22 1    
    39   18   98 1    
    40   19   20 am   BACKBONE|DICT|INTERRES
    41   19   21 2    
    42   20   99 1    
    43   20  100 1    
    44   22   23 am   BACKBONE|DICT|INTERRES
    45   22  101 1    
    46   23   24 2    
    47   23   25 1    
    48   25   26 1    
    49   25   27 1    
    50   25  102 1    
    51   26  103 1    
    52   26  104 1    
    53   26  105 1    
    54   27   28 am   BACKBONE|DICT|INTERRES
    55   27  106 1    
    56   28   29 2    
    57   28   30 1    
    58   30   31 1    
    59   30   32 1    
    60   30  107 1    
    61   31  108 1    
    62   31  109 1    
    63   31  110 1    
    64   32   33 am   BACKBONE|DICT|INTERRES
    65   32  111 1    
    66   33   34 2    
    67   33   35 1    
    68   35   36 1    
    69   35   37 1    
    70   35  112 1    
    71   36  113 1    
    72   36  114 1    
    73   36  115 1    
    74   37   38 am   BACKBONE|DICT|INTERRES
    75   37  116 1    
    76   38   39 2    
    77   38   40 1    
    78   40   41 1    
    79   40   42 1    
    80   40  117 1    
    81   41  118 1    
    82   41  119 1    
    83   41  120 1    
    84   42   43 am   BACKBONE|DICT|INTERRES
    85   42  121 1    
    86   43   44 2    
    87   43   45 1    
    88   45   46 1    
    89   45   47 1    
    90   45  122 1    
    91   46  123 1    
    92   46  124 1    
    93   46  125 1    
    94   47   48 am   BACKBONE|DICT|INTERRES
    95   47  126 1    
    96   48   49 2    
    97   48   50 1    
    98   50   51 1    
    99   50   52 1    
   100   50  127 1    
   101   51  128 1    
   102   51  129 1    
   103   51  130 1    
   104   52   53 am   BACKBONE|DICT|INTERRES
   105   52  131 1    
   106   53   54 2    
   107   53   55 1    
   108   55   56 1    
   109   55   59 1    
   110   55  132 1    
   111   56   57 1    
   112   56  133 1    
   113   56  134 1    
   114   57   58 1    
   115   58  135 1    
   116   58  136 1    
   117   59   60 am   BACKBONE|DICT|INTERRES
   118   59  137 1    
   119   60   61 2    
   120   60   62 1    
   121   62   63 1    
   122   62   64 1    
   123   62  138 1    
   124   63  139 1    
   125   63  140 1    
   126   63  141 1    
   127   64   65 am   BACKBONE|DICT|INTERRES
   128   64  142 1    
   129   65   66 2    
   130   65   67 1    
   131   67   68 1    
   132   67   69 1    
   133   67  143 1    
   134   68  144 1    
   135   68  145 1    
   136   68  146 1    
   137   69   70 am   BACKBONE|DICT|INTERRES
   138   69  147 1    
   139   70   71 2    
   140   70   72 1    
   141   72   73 1    
   142   72   74 1    
   143   72  148 1    
   144   73  149 1    
   145   73  150 1    
   146   73  151 1    
   147   74   75 am   BACKBONE|DICT|INTERRES
   148   74  152 1    
   149   75   76 2    
   150   75   77 1    
   151   77   78 1    
   152   77   79 1    
   153   77  153 1    
   154   78  154 1    
   155   78  155 1    
   156   78  156 1    
   157   79   80 am   BACKBONE|DICT|INTERRES
   158   79  157 1    
   159   80   81 2    
@<TRIPOS>SUBSTRUCTURE
     1 UNK         1 GROUP             0       ****    0 ROOT    
