@<TRIPOS>MOLECULE
3R207
157   159    1
SMALL
USER_CHARGES


@<TRIPOS>ATOM
      1 CA        -52.6420  -26.3302    1.7919 C.3       0 UNK        -0.1975 
      2 C         -51.6211  -26.8430    2.7976 C.2       0 UNK         0.4852 
      3 O         -50.5298  -27.2530    2.3986 O.2       0 UNK        -0.5216 
      4 N         -51.9753  -26.8216    4.0910 N.am      1 UNK        -0.4461 
      5 CA        -51.1487  -27.2425    5.2334 C.3       1 UNK         0.0864 
      6 C6        -50.8059  -28.7642    5.2295 C.3       14 UNK        -0.0898 
      7 S7        -52.2972  -29.8141    5.1152 S.3       14 UNK        -0.2598 
      8 C8        -52.2135  -30.7909    6.6582 C.3       14 UNK         0.0286 
      9 C9        -52.2537  -29.9770    7.9524 C.ar      14 UNK        -0.0844 
     10 C10       -52.9110  -28.7450    8.0398 C.ar      14 UNK        -0.0881 
     11 C11       -52.9169  -28.0119    9.2296 C.ar      14 UNK        -0.0643 
     12 C12       -52.3214  -28.5650   10.3713 C.ar      14 UNK        -0.0930 
     13 C13       -51.6716  -29.8014   10.3062 C.ar      14 UNK        -0.0827 
     14 C14       -51.6312  -30.4916    9.0919 C.ar      14 UNK        -0.1249 
     15 C15       -50.9809  -30.3891   11.5285 C.3       14 UNK         0.0141 
     16 S16       -51.7928  -31.9250   12.0908 S.3       14 UNK        -0.2313 
     17 C17       -52.4776  -31.4532   13.7137 C.3       14 UNK        -0.0915 
     18 CA        -54.0166  -31.2639   13.7147 C.3       13 UNK         0.0968 
     19 C         -54.4988  -30.9313   15.1558 C.2       13 UNK         0.5732 
     20 N         -54.7178  -29.6653   15.4938 N.am      13 UNK        -0.7310 
     21 O         -54.6715  -31.8332   15.9720 O.2       13 UNK        -0.5035 
     22 N         -54.4455  -30.2788   12.7135 N.am      13 UNK        -0.4233 
     23 C         -55.7114  -30.0445   12.3528 C.2       13 UNK         0.4989 
     24 O         -56.6726  -30.7290   12.7089 O.2       13 UNK        -0.4996 
     25 CA        -55.9365  -28.7934   11.4839 C.3       12 UNK         0.0216 
     26 CB        -57.1313  -28.9579   10.5279 C.3       12 UNK        -0.1964 
     27 N         -56.1304  -27.5865   12.2961 N.am      12 UNK        -0.4276 
     28 C         -55.2302  -27.0551   13.1343 C.2       12 UNK         0.5020 
     29 O         -54.0951  -27.5102   13.3086 O.2       12 UNK        -0.5489 
     30 CA        -55.6806  -25.8399   13.9534 C.3       11 UNK         0.0294 
     31 CB        -56.6551  -26.2739   15.0679 C.3       11 UNK        -0.2019 
     32 N         -54.4799  -25.2389   14.5244 N.am      11 UNK        -0.4493 
     33 C         -54.3746  -24.0917   15.2027 C.2       11 UNK         0.4932 
     34 O         -55.3271  -23.3400   15.4168 O.2       11 UNK        -0.5029 
     35 CA        -52.9696  -23.6947   15.7049 C.3       10 UNK         0.0280 
     36 CB        -53.0020  -23.0371   17.1007 C.3       10 UNK        -0.1976 
     37 N         -51.9794  -24.7794   15.6462 N.am      10 UNK        -0.4242 
     38 C         -51.9428  -25.9104   16.3674 C.2       10 UNK         0.5072 
     39 O         -52.7555  -26.1975   17.2468 O.2       10 UNK        -0.5224 
     40 CA        -50.8154  -26.9068   16.0409 C.3       9 UNK         0.0343 
     41 CB        -51.2582  -27.8770   14.9368 C.3       9 UNK        -0.2003 
     42 N         -49.5554  -26.2693   15.6482 N.am      9 UNK        -0.4272 
     43 C         -48.7620  -25.5896   16.4897 C.2       9 UNK         0.4988 
     44 O         -49.0077  -25.4276   17.6857 O.2       9 UNK        -0.5108 
     45 CA        -47.4698  -24.9963   15.9043 C.3       8 UNK         0.0248 
     46 CB        -46.3931  -26.0834   15.7546 C.3       8 UNK        -0.2001 
     47 N         -47.6865  -24.3365   14.6163 N.am      8 UNK        -0.4140 
     48 C         -48.3714  -23.1948   14.4539 C.2       8 UNK         0.5028 
     49 O         -48.8298  -22.5297   15.3832 O.2       8 UNK        -0.5428 
     50 CA        -48.6182  -22.7314   13.0070 C.3       7 UNK         0.0264 
     51 CB        -47.4009  -21.9761   12.4513 C.3       7 UNK        -0.1988 
     52 N         -48.9747  -23.8388   12.1145 N.am      7 UNK        -0.4454 
     53 C         -50.1033  -24.5559   12.2292 C.2       7 UNK         0.5027 
     54 O         -50.9633  -24.3278   13.0779 O.2       7 UNK        -0.5083 
     55 CA        -50.2877  -25.7570   11.2806 C.3       6 UNK         0.0844 
     56 C56       -51.1229  -25.3927   10.0263 C.3       14 UNK        -0.0967 
     57 S57       -52.9119  -25.4175   10.4106 S.3       14 UNK        -0.2604 
     58 C58       -53.5891  -26.6371    9.2311 C.3       14 UNK         0.0134 
     59 N         -49.0137  -26.3988   10.9516 N.am      6 UNK        -0.4116 
     60 C         -48.3068  -27.1243   11.8324 C.2       5 UNK         0.5034 
     61 O         -48.6592  -27.3281   12.9947 O.2       5 UNK        -0.5045 
     62 CA        -46.9505  -27.6612   11.3523 C.3       5 UNK         0.0224 
     63 CB        -47.1427  -28.8137   10.3524 C.3       5 UNK        -0.1978 
     64 N         -46.1216  -26.6145   10.7494 N.am      5 UNK        -0.4737 
     65 C         -45.6723  -25.5295   11.3989 C.2       4 UNK         0.5027 
     66 O         -45.8801  -25.3046   12.5892 O.2       4 UNK        -0.5211 
     67 CA        -44.9732  -24.4713   10.5464 C.3       4 UNK         0.0297 
     68 CB        -43.6703  -24.9909    9.9128 C.3       4 UNK        -0.1993 
     69 N         -45.9230  -24.0640    9.5217 N.am      4 UNK        -0.4486 
     70 C         -46.0426  -22.8659    8.9513 C.2       3 UNK         0.4961 
     71 O         -45.2947  -21.9156    9.1842 O.2       3 UNK        -0.5105 
     72 CA        -47.2083  -22.7290    7.9474 C.3       3 UNK         0.0299 
     73 CB        -47.1650  -21.4013    7.1688 C.3       3 UNK        -0.1972 
     74 N         -47.2649  -23.8436    6.9919 N.am      3 UNK        -0.4305 
     75 C         -47.6920  -25.0877    7.2485 C.2       2 UNK         0.5006 
     76 O         -48.0976  -25.4647    8.3540 O.2       2 UNK        -0.5106 
     77 CA        -47.5537  -26.1054    6.1074 C.3       2 UNK         0.0296 
     78 CB        -46.4165  -27.0943    6.4130 C.3       2 UNK        -0.2002 
     79 N         -48.7941  -26.8473    5.8870 N.am      2 UNK        -0.4032 
     80 C         -49.9239  -26.3114    5.4035 C.2       1 UNK         0.5000 
     81 O         -50.0287  -25.1174    5.1056 O.2       1 UNK        -0.5238 
     82 H82       -53.5645  -26.0075    2.2742 H         1 UNK         0.0889 
     83 H83       -52.8902  -27.1143    1.0771 H         1 UNK         0.0889 
     84 H84       -52.2331  -25.4833    1.2414 H         1 UNK         0.0889 
     85 H85       -52.8793  -26.4450    4.3383 H         1 UNK         0.3028 
     86 H86       -51.7551  -27.0467    6.1172 H         1 UNK         0.0864 
     87 H87       -50.1509  -29.0135    4.3931 H         1 UNK         0.0720 
     88 H88       -50.2640  -29.0422    6.1347 H         1 UNK         0.0720 
     89 H89       -51.3061  -31.3964    6.6265 H         1 UNK         0.0814 
     90 H90       -53.0492  -31.4916    6.6684 H         1 UNK         0.0814 
     91 H91       -53.4151  -28.3434    7.1725 H         1 UNK         0.1469 
     92 H92       -52.3582  -28.0299   11.3087 H         1 UNK         0.1381 
     93 H93       -51.1236  -31.4455    9.0419 H         1 UNK         0.1206 
     94 H94       -49.9484  -30.6235   11.2675 H         1 UNK         0.0813 
     95 H95       -50.9230  -29.6531   12.3311 H         1 UNK         0.0813 
     96 H96       -52.2019  -32.2444   14.4134 H         1 UNK         0.0638 
     97 H97       -51.9791  -30.5551   14.0773 H         1 UNK         0.0638 
     98 H98       -54.4716  -32.2179   13.4422 H         1 UNK         0.0568 
     99 H99       -54.5420  -28.9266   14.8253 H         1 UNK         0.3450 
    100 H100      -55.0257  -29.4488   16.4278 H         1 UNK         0.3450 
    101 H101      -53.7451  -29.6075   12.4325 H         1 UNK         0.2987 
    102 H102      -55.0471  -28.6518   10.8729 H         1 UNK         0.0766 
    103 H103      -57.2158  -28.1090    9.8492 H         1 UNK         0.0798 
    104 H104      -58.0744  -29.0528   11.0676 H         1 UNK         0.0798 
    105 H105      -57.0162  -29.8515    9.9129 H         1 UNK         0.0798 
    106 H106      -57.0459  -27.1632   12.2476 H         1 UNK         0.3198 
    107 H107      -56.1582  -25.1182   13.2879 H         1 UNK         0.0843 
    108 H108      -56.1798  -26.9596   15.7704 H         1 UNK         0.0831 
    109 H109      -57.5292  -26.7810   14.6578 H         1 UNK         0.0831 
    110 H110      -57.0234  -25.4199   15.6359 H         1 UNK         0.0831 
    111 H111      -53.6469  -25.7906   14.3506 H         1 UNK         0.3133 
    112 H112      -52.6100  -22.9418   15.0022 H         1 UNK         0.0566 
    113 H113      -52.0010  -22.7573   17.4295 H         1 UNK         0.0814 
    114 H114      -53.6044  -22.1281   17.0910 H         1 UNK         0.0814 
    115 H115      -53.4308  -23.7001   17.8525 H         1 UNK         0.0814 
    116 H116      -51.3130  -24.6824   14.8828 H         1 UNK         0.3091 
    117 H117      -50.6259  -27.4918   16.9434 H         1 UNK         0.0702 
    118 H118      -52.1801  -28.3868   15.2166 H         1 UNK         0.0785 
    119 H119      -50.5031  -28.6419   14.7560 H         1 UNK         0.0785 
    120 H120      -51.4441  -27.3600   13.9953 H         1 UNK         0.0785 
    121 H121      -49.2487  -26.4147   14.6910 H         1 UNK         0.2998 
    122 H122      -47.0984  -24.2477   16.6074 H         1 UNK         0.0697 
    123 H123      -46.6850  -26.8453   15.0303 H         1 UNK         0.0825 
    124 H124      -46.2095  -26.5868   16.7047 H         1 UNK         0.0825 
    125 H125      -45.4453  -25.6578   15.4242 H         1 UNK         0.0825 
    126 H126      -47.2670  -24.7810   13.8034 H         1 UNK         0.3029 
    127 H127      -49.4627  -22.0387   13.0258 H         1 UNK         0.0897 
    128 H128      -47.5858  -21.6063   11.4427 H         1 UNK         0.0792 
    129 H129      -46.5109  -22.6035   12.4244 H         1 UNK         0.0792 
    130 H130      -47.1662  -21.1112   13.0732 H         1 UNK         0.0792 
    131 H131      -48.3012  -24.1026   11.4125 H         1 UNK         0.3086 
    132 H132      -50.8499  -26.4979   11.8496 H         1 UNK         0.0583 
    133 H133      -50.8458  -24.4160    9.6245 H         1 UNK         0.1020 
    134 H134      -50.9253  -26.1030    9.2221 H         1 UNK         0.1020 
    135 H135      -54.6513  -26.7655    9.4406 H         1 UNK         0.0694 
    136 H136      -53.5260  -26.1961    8.2350 H         1 UNK         0.0694 
    137 H137      -48.6515  -26.2462   10.0142 H         1 UNK         0.2989 
    138 H138      -46.4203  -28.0468   12.2263 H         1 UNK         0.1055 
    139 H139      -47.7209  -29.6229   10.7999 H         1 UNK         0.0806 
    140 H140      -46.1860  -29.2361   10.0445 H         1 UNK         0.0806 
    141 H141      -47.6733  -28.4933    9.4549 H         1 UNK         0.0806 
    142 H142      -45.8909  -26.7302    9.7737 H         1 UNK         0.3061 
    143 H143      -44.7364  -23.6192   11.1868 H         1 UNK         0.0734 
    144 H144      -43.1598  -24.1993    9.3640 H         1 UNK         0.0832 
    145 H145      -42.9813  -25.3494   10.6786 H         1 UNK         0.0832 
    146 H146      -43.8475  -25.8128    9.2186 H         1 UNK         0.0832 
    147 H147      -46.6282  -24.7498    9.2643 H         1 UNK         0.3156 
    148 H148      -48.1301  -22.7371    8.5331 H         1 UNK         0.0589 
    149 H149      -46.2579  -21.3140    6.5695 H         1 UNK         0.0808 
    150 H150      -48.0209  -21.3047    6.5004 H         1 UNK         0.0808 
    151 H151      -47.1911  -20.5477    7.8476 H         1 UNK         0.0808 
    152 H152      -46.9113  -23.6449    6.0667 H         1 UNK         0.3098 
    153 H153      -47.3095  -25.5766    5.1835 H         1 UNK         0.0720 
    154 H154      -46.2604  -27.7864    5.5852 H         1 UNK         0.0791 
    155 H155      -46.6197  -27.6838    7.3077 H         1 UNK         0.0791 
    156 H156      -45.4738  -26.5695    6.5751 H         1 UNK         0.0791 
    157 H157      -48.7863  -27.8239    6.1395 H         1 UNK         0.3028 
@<TRIPOS>BOND
     1    1    2 1    
     2    1   82 1    
     3    1   83 1    
     4    1   84 1    
     5    2    3 2    
     6    2    4 am   BACKBONE|DICT|INTERRES
     7    4    5 1    
     8    4   85 1    
     9    5    6 1    
    10    5   80 1    
    11    5   86 1    
    12    6    7 1    
    13    6   87 1    
    14    6   88 1    
    15    7    8 1    
    16    8    9 1    
    17    8   89 1    
    18    8   90 1    
    19    9   10 ar   
    20    9   14 ar   
    21   10   11 ar   
    22   10   91 1    
    23   11   12 ar   
    24   11   58 1    
    25   12   13 ar   
    26   12   92 1    
    27   13   14 ar   
    28   13   15 1    
    29   14   93 1    
    30   15   16 1    
    31   15   94 1    
    32   15   95 1    
    33   16   17 1    
    34   17   18 1    
    35   17   96 1    
    36   17   97 1    
    37   18   19 1    
    38   18   22 1    
    39   18   98 1    
    40   19   20 am   BACKBONE|DICT|INTERRES
    41   19   21 2    
    42   20   99 1    
    43   20  100 1    
    44   22   23 am   BACKBONE|DICT|INTERRES
    45   22  101 1    
    46   23   24 2    
    47   23   25 1    
    48   25   26 1    
    49   25   27 1    
    50   25  102 1    
    51   26  103 1    
    52   26  104 1    
    53   26  105 1    
    54   27   28 am   BACKBONE|DICT|INTERRES
    55   27  106 1    
    56   28   29 2    
    57   28   30 1    
    58   30   31 1    
    59   30   32 1    
    60   30  107 1    
    61   31  108 1    
    62   31  109 1    
    63   31  110 1    
    64   32   33 am   BACKBONE|DICT|INTERRES
    65   32  111 1    
    66   33   34 2    
    67   33   35 1    
    68   35   36 1    
    69   35   37 1    
    70   35  112 1    
    71   36  113 1    
    72   36  114 1    
    73   36  115 1    
    74   37   38 am   BACKBONE|DICT|INTERRES
    75   37  116 1    
    76   38   39 2    
    77   38   40 1    
    78   40   41 1    
    79   40   42 1    
    80   40  117 1    
    81   41  118 1    
    82   41  119 1    
    83   41  120 1    
    84   42   43 am   BACKBONE|DICT|INTERRES
    85   42  121 1    
    86   43   44 2    
    87   43   45 1    
    88   45   46 1    
    89   45   47 1    
    90   45  122 1    
    91   46  123 1    
    92   46  124 1    
    93   46  125 1    
    94   47   48 am   BACKBONE|DICT|INTERRES
    95   47  126 1    
    96   48   49 2    
    97   48   50 1    
    98   50   51 1    
    99   50   52 1    
   100   50  127 1    
   101   51  128 1    
   102   51  129 1    
   103   51  130 1    
   104   52   53 am   BACKBONE|DICT|INTERRES
   105   52  131 1    
   106   53   54 2    
   107   53   55 1    
   108   55   56 1    
   109   55   59 1    
   110   55  132 1    
   111   56   57 1    
   112   56  133 1    
   113   56  134 1    
   114   57   58 1    
   115   58  135 1    
   116   58  136 1    
   117   59   60 am   BACKBONE|DICT|INTERRES
   118   59  137 1    
   119   60   61 2    
   120   60   62 1    
   121   62   63 1    
   122   62   64 1    
   123   62  138 1    
   124   63  139 1    
   125   63  140 1    
   126   63  141 1    
   127   64   65 am   BACKBONE|DICT|INTERRES
   128   64  142 1    
   129   65   66 2    
   130   65   67 1    
   131   67   68 1    
   132   67   69 1    
   133   67  143 1    
   134   68  144 1    
   135   68  145 1    
   136   68  146 1    
   137   69   70 am   BACKBONE|DICT|INTERRES
   138   69  147 1    
   139   70   71 2    
   140   70   72 1    
   141   72   73 1    
   142   72   74 1    
   143   72  148 1    
   144   73  149 1    
   145   73  150 1    
   146   73  151 1    
   147   74   75 am   BACKBONE|DICT|INTERRES
   148   74  152 1    
   149   75   76 2    
   150   75   77 1    
   151   77   78 1    
   152   77   79 1    
   153   77  153 1    
   154   78  154 1    
   155   78  155 1    
   156   78  156 1    
   157   79   80 am   BACKBONE|DICT|INTERRES
   158   79  157 1    
   159   80   81 2    
@<TRIPOS>SUBSTRUCTURE
     1 UNK         1 GROUP             0       ****    0 ROOT    
