@<TRIPOS>MOLECULE
3R207
157   159    1
SMALL
USER_CHARGES


@<TRIPOS>ATOM
      1 CA        -46.7380  -30.9243    8.7325 C.3       0 UNK        -0.1975 
      2 C         -47.8515  -30.2775    7.9225 C.2       0 UNK         0.4852 
      3 O         -48.6061  -29.4676    8.4581 O.2       0 UNK        -0.5216 
      4 N         -47.9511  -30.6180    6.6305 N.am      1 UNK        -0.4461 
      5 CA        -48.9414  -30.1423    5.6517 C.3       1 UNK         0.0864 
      6 C6        -50.4113  -30.3873    6.0894 C.3       14 UNK        -0.0898 
      7 S7        -51.5164  -30.8248    4.7003 S.3       14 UNK        -0.2598 
      8 C8        -52.4624  -29.2911    4.4106 C.3       14 UNK         0.0286 
      9 C9        -53.1871  -28.8114    5.6605 C.ar      14 UNK        -0.0844 
     10 C10       -52.7612  -27.6453    6.3038 C.ar      14 UNK        -0.0881 
     11 C11       -53.3589  -27.2411    7.4989 C.ar      14 UNK        -0.0643 
     12 C12       -54.4110  -27.9865    8.0330 C.ar      14 UNK        -0.0930 
     13 C13       -54.8435  -29.1547    7.4023 C.ar      14 UNK        -0.0827 
     14 C14       -54.2397  -29.5567    6.2060 C.ar      14 UNK        -0.1249 
     15 C15       -55.9053  -30.0100    8.0728 C.3       14 UNK         0.0141 
     16 S16       -55.1536  -30.9543    9.4359 S.3       14 UNK        -0.2313 
     17 C17       -56.4966  -30.9894   10.6695 C.3       14 UNK        -0.0915 
     18 CA        -56.5854  -29.7139   11.5660 C.3       13 UNK         0.0968 
     19 C         -57.7363  -29.8186   12.6134 C.2       13 UNK         0.5732 
     20 N         -57.5601  -29.3934   13.8598 N.am      13 UNK        -0.7310 
     21 O         -58.8323  -30.2636   12.2801 O.2       13 UNK        -0.5035 
     22 N         -55.2966  -29.2557   12.1170 N.am      13 UNK        -0.4233 
     23 C         -54.4661  -29.9491   12.9071 C.2       13 UNK         0.4989 
     24 O         -54.6329  -31.1237   13.2372 O.2       13 UNK        -0.4996 
     25 CA        -53.2473  -29.1779   13.4518 C.3       12 UNK         0.0216 
     26 CB        -52.1054  -29.2121   12.4216 C.3       12 UNK        -0.1964 
     27 N         -53.5320  -27.7854   13.8401 N.am      12 UNK        -0.4276 
     28 C         -54.4761  -27.4093   14.7164 C.2       12 UNK         0.5020 
     29 O         -55.2176  -28.2001   15.3027 O.2       12 UNK        -0.5489 
     30 CA        -54.6042  -25.9062   14.9924 C.3       11 UNK         0.0294 
     31 CB        -55.9999  -25.5293   15.5354 C.3       11 UNK        -0.2019 
     32 N         -53.5613  -25.5194   15.9372 N.am      11 UNK        -0.4493 
     33 C         -53.1532  -24.2707   16.1884 C.2       11 UNK         0.4932 
     34 O         -53.6521  -23.2707   15.6703 O.2       11 UNK        -0.5029 
     35 CA        -51.9838  -24.0939   17.1749 C.3       10 UNK         0.0280 
     36 CB        -52.4493  -24.2284   18.6383 C.3       10 UNK        -0.1976 
     37 N         -50.8222  -24.9443   16.8797 N.am      10 UNK        -0.4242 
     38 C         -50.7063  -26.2781   16.9697 C.2       10 UNK         0.5072 
     39 O         -51.6032  -27.0053   17.4010 O.2       10 UNK        -0.5224 
     40 CA        -49.4091  -26.9356   16.4525 C.3       9 UNK         0.0343 
     41 CB        -49.7390  -28.0241   15.4175 C.3       9 UNK        -0.2003 
     42 N         -48.4698  -25.9926   15.8405 N.am      9 UNK        -0.4272 
     43 C         -47.6012  -25.2163   16.5008 C.2       9 UNK         0.4988 
     44 O         -47.4454  -25.2463   17.7216 O.2       9 UNK        -0.5108 
     45 CA        -46.8051  -24.2012   15.6583 C.3       8 UNK         0.0248 
     46 CB        -45.5453  -24.8528   15.0666 C.3       8 UNK        -0.2001 
     47 N         -47.6003  -23.5904   14.5850 N.am      8 UNK        -0.4140 
     48 C         -48.6965  -22.8427   14.7888 C.2       8 UNK         0.5028 
     49 O         -49.1294  -22.5569   15.9053 O.2       8 UNK        -0.5428 
     50 CA        -49.4731  -22.3763   13.5473 C.3       7 UNK         0.0264 
     51 CB        -48.7899  -21.1651   12.8928 C.3       7 UNK        -0.1988 
     52 N         -49.6488  -23.4423   12.5600 N.am      7 UNK        -0.4454 
     53 C         -50.3530  -24.5651   12.7669 C.2       7 UNK         0.5027 
     54 O         -50.9881  -24.8015   13.7921 O.2       7 UNK        -0.5083 
     55 CA        -50.3205  -25.6308   11.6590 C.3       6 UNK         0.0844 
     56 C56       -51.3665  -25.3102   10.5698 C.3       14 UNK        -0.0967 
     57 S57       -51.5114  -26.6833    9.3943 S.3       14 UNK        -0.2604 
     58 C58       -52.7998  -26.0673    8.2769 C.3       14 UNK         0.0134 
     59 N         -48.9699  -25.8333   11.1245 N.am      6 UNK        -0.4116 
     60 C         -47.9201  -26.2460   11.8498 C.2       5 UNK         0.5034 
     61 O         -47.9862  -26.5597   13.0375 O.2       5 UNK        -0.5045 
     62 CA        -46.5508  -26.2435   11.1560 C.3       5 UNK         0.0224 
     63 CB        -46.3275  -27.5338   10.3551 C.3       5 UNK        -0.1978 
     64 N         -46.3914  -25.0788   10.2848 N.am      5 UNK        -0.4737 
     65 C         -46.2381  -23.8257   10.7345 C.2       4 UNK         0.5027 
     66 O         -46.1573  -23.5330   11.9280 O.2       4 UNK        -0.5211 
     67 CA        -46.2186  -22.7117    9.6742 C.3       4 UNK         0.0297 
     68 CB        -44.8159  -22.5706    9.0626 C.3       4 UNK        -0.1993 
     69 N         -47.2031  -22.9269    8.6088 N.am      4 UNK        -0.4486 
     70 C         -48.5302  -22.9141    8.7973 C.2       3 UNK         0.4961 
     71 O         -49.0621  -22.6826    9.8819 O.2       3 UNK        -0.5105 
     72 CA        -49.4201  -23.2447    7.5864 C.3       3 UNK         0.0299 
     73 CB        -49.7627  -21.9636    6.8102 C.3       3 UNK        -0.1972 
     74 N         -48.8646  -24.2424    6.6652 N.am      3 UNK        -0.4305 
     75 C         -48.5028  -25.4903    6.9941 C.2       2 UNK         0.5006 
     76 O         -48.4804  -25.9235    8.1473 O.2       2 UNK        -0.5106 
     77 CA        -48.0365  -26.3814    5.8406 C.3       2 UNK         0.0296 
     78 CB        -46.5138  -26.2656    5.6497 C.3       2 UNK        -0.2002 
     79 N         -48.3913  -27.7726    6.1130 N.am      2 UNK        -0.4032 
     80 C         -48.6944  -28.6890    5.1843 C.2       1 UNK         0.5000 
     81 O         -48.7425  -28.4362    3.9786 O.2       1 UNK        -0.5238 
     82 H82       -45.9715  -30.1880    8.9717 H         1 UNK         0.0889 
     83 H83       -46.2659  -31.7449    8.1927 H         1 UNK         0.0889 
     84 H84       -47.1352  -31.3195    9.6670 H         1 UNK         0.0889 
     85 H85       -47.2734  -31.2668    6.2535 H         1 UNK         0.3028 
     86 H86       -48.7516  -30.7684    4.7780 H         1 UNK         0.0864 
     87 H87       -50.4535  -31.2379    6.7713 H         1 UNK         0.0720 
     88 H88       -50.8004  -29.5488    6.6676 H         1 UNK         0.0720 
     89 H89       -53.1919  -29.4690    3.6194 H         1 UNK         0.0814 
     90 H90       -51.7841  -28.5238    4.0334 H         1 UNK         0.0814 
     91 H91       -51.9260  -27.0828    5.9092 H         1 UNK         0.1469 
     92 H92       -54.8504  -27.6938    8.9768 H         1 UNK         0.1381 
     93 H93       -54.5518  -30.4739    5.7251 H         1 UNK         0.1206 
     94 H94       -56.3640  -30.6981    7.3613 H         1 UNK         0.0813 
     95 H95       -56.7043  -29.3689    8.4479 H         1 UNK         0.0813 
     96 H96       -56.3460  -31.8741   11.2902 H         1 UNK         0.0638 
     97 H97       -57.4385  -31.1538   10.1430 H         1 UNK         0.0638 
     98 H98       -56.8992  -28.8990   10.9135 H         1 UNK         0.0568 
     99 H99       -58.3277  -29.4628   14.5081 H         1 UNK         0.3450 
    100 H100      -56.6675  -29.0353   14.1818 H         1 UNK         0.3450 
    101 H101      -55.0651  -28.2932   11.9247 H         1 UNK         0.2987 
    102 H102      -52.9103  -29.6989   14.3504 H         1 UNK         0.0766 
    103 H103      -51.1795  -28.8098   12.8282 H         1 UNK         0.0798 
    104 H104      -52.3547  -28.6477   11.5226 H         1 UNK         0.0798 
    105 H105      -51.8936  -30.2357   12.1087 H         1 UNK         0.0798 
    106 H106      -52.9459  -27.0700   13.4343 H         1 UNK         0.3198 
    107 H107      -54.4431  -25.3754   14.0515 H         1 UNK         0.0843 
    108 H108      -56.1815  -25.9671   16.5177 H         1 UNK         0.0831 
    109 H109      -56.7867  -25.8847   14.8687 H         1 UNK         0.0831 
    110 H110      -56.1191  -24.4497   15.6243 H         1 UNK         0.0831 
    111 H111      -53.0701  -26.2767   16.4092 H         1 UNK         0.3133 
    112 H112      -51.6241  -23.0718   17.0472 H         1 UNK         0.0566 
    113 H113      -51.6291  -24.0470   19.3328 H         1 UNK         0.0814 
    114 H114      -53.2310  -23.5015   18.8625 H         1 UNK         0.0814 
    115 H115      -52.8590  -25.2156   18.8529 H         1 UNK         0.0814 
    116 H116      -50.0469  -24.4420   16.4626 H         1 UNK         0.3091 
    117 H117      -48.9249  -27.4119   17.3073 H         1 UNK         0.0702 
    118 H118      -48.8372  -28.5248   15.0644 H         1 UNK         0.0785 
    119 H119      -50.2447  -27.5965   14.5520 H         1 UNK         0.0785 
    120 H120      -50.3928  -28.7904   15.8359 H         1 UNK         0.0785 
    121 H121      -48.4776  -25.9503   14.8247 H         1 UNK         0.2998 
    122 H122      -46.4881  -23.3974   16.3259 H         1 UNK         0.0697 
    123 H123      -45.7927  -25.6693   14.3883 H         1 UNK         0.0825 
    124 H124      -44.9130  -25.2643   15.8544 H         1 UNK         0.0825 
    125 H125      -44.9458  -24.1291   14.5140 H         1 UNK         0.0825 
    126 H126      -47.2801  -23.7405   13.6328 H         1 UNK         0.3029 
    127 H127      -50.4673  -22.0678   13.8786 H         1 UNK         0.0897 
    128 H128      -49.3801  -20.7805   12.0606 H         1 UNK         0.0792 
    129 H129      -48.6688  -20.3510   13.6086 H         1 UNK         0.0792 
    130 H130      -47.7998  -21.4149   12.5105 H         1 UNK         0.0792 
    131 H131      -49.2246  -23.2926   11.6466 H         1 UNK         0.3086 
    132 H132      -50.6098  -26.5725   12.1285 H         1 UNK         0.0583 
    133 H133      -52.3489  -25.1439   11.0168 H         1 UNK         0.1020 
    134 H134      -51.1123  -24.3960   10.0340 H         1 UNK         0.1020 
    135 H135      -53.5923  -25.5794    8.8465 H         1 UNK         0.0694 
    136 H136      -52.3795  -25.3172    7.6052 H         1 UNK         0.0694 
    137 H137      -48.8411  -25.6685   10.1309 H         1 UNK         0.2989 
    138 H138      -45.7874  -26.1945   11.9357 H         1 UNK         0.1055 
    139 H139      -46.4476  -28.4128   10.9899 H         1 UNK         0.0806 
    140 H140      -45.3230  -27.5712    9.9336 H         1 UNK         0.0806 
    141 H141      -47.0385  -27.6263    9.5352 H         1 UNK         0.0806 
    142 H142      -46.5341  -25.2275    9.2952 H         1 UNK         0.3061 
    143 H143      -46.4675  -21.7743   10.1766 H         1 UNK         0.0734 
    144 H144      -44.7667  -21.7289    8.3715 H         1 UNK         0.0832 
    145 H145      -44.0699  -22.3936    9.8388 H         1 UNK         0.0832 
    146 H146      -44.5155  -23.4689    8.5217 H         1 UNK         0.0832 
    147 H147      -46.8508  -23.1231    7.6834 H         1 UNK         0.3156 
    148 H148      -50.3525  -23.6586    7.9727 H         1 UNK         0.0589 
    149 H149      -48.8784  -21.5183    6.3527 H         1 UNK         0.0808 
    150 H150      -50.4888  -22.1585    6.0207 H         1 UNK         0.0808 
    151 H151      -50.2007  -21.2131    7.4702 H         1 UNK         0.0808 
    152 H152      -48.8159  -23.9705    5.6934 H         1 UNK         0.3098 
    153 H153      -48.5408  -26.0510    4.9299 H         1 UNK         0.0720 
    154 H154      -46.1737  -26.8681    4.8073 H         1 UNK         0.0791 
    155 H155      -45.9720  -26.5965    6.5370 H         1 UNK         0.0791 
    156 H156      -46.2180  -25.2351    5.4493 H         1 UNK         0.0791 
    157 H157      -48.4384  -28.0371    7.0956 H         1 UNK         0.3028 
@<TRIPOS>BOND
     1    1    2 1    
     2    1   82 1    
     3    1   83 1    
     4    1   84 1    
     5    2    3 2    
     6    2    4 am   BACKBONE|DICT|INTERRES
     7    4    5 1    
     8    4   85 1    
     9    5    6 1    
    10    5   80 1    
    11    5   86 1    
    12    6    7 1    
    13    6   87 1    
    14    6   88 1    
    15    7    8 1    
    16    8    9 1    
    17    8   89 1    
    18    8   90 1    
    19    9   10 ar   
    20    9   14 ar   
    21   10   11 ar   
    22   10   91 1    
    23   11   12 ar   
    24   11   58 1    
    25   12   13 ar   
    26   12   92 1    
    27   13   14 ar   
    28   13   15 1    
    29   14   93 1    
    30   15   16 1    
    31   15   94 1    
    32   15   95 1    
    33   16   17 1    
    34   17   18 1    
    35   17   96 1    
    36   17   97 1    
    37   18   19 1    
    38   18   22 1    
    39   18   98 1    
    40   19   20 am   BACKBONE|DICT|INTERRES
    41   19   21 2    
    42   20   99 1    
    43   20  100 1    
    44   22   23 am   BACKBONE|DICT|INTERRES
    45   22  101 1    
    46   23   24 2    
    47   23   25 1    
    48   25   26 1    
    49   25   27 1    
    50   25  102 1    
    51   26  103 1    
    52   26  104 1    
    53   26  105 1    
    54   27   28 am   BACKBONE|DICT|INTERRES
    55   27  106 1    
    56   28   29 2    
    57   28   30 1    
    58   30   31 1    
    59   30   32 1    
    60   30  107 1    
    61   31  108 1    
    62   31  109 1    
    63   31  110 1    
    64   32   33 am   BACKBONE|DICT|INTERRES
    65   32  111 1    
    66   33   34 2    
    67   33   35 1    
    68   35   36 1    
    69   35   37 1    
    70   35  112 1    
    71   36  113 1    
    72   36  114 1    
    73   36  115 1    
    74   37   38 am   BACKBONE|DICT|INTERRES
    75   37  116 1    
    76   38   39 2    
    77   38   40 1    
    78   40   41 1    
    79   40   42 1    
    80   40  117 1    
    81   41  118 1    
    82   41  119 1    
    83   41  120 1    
    84   42   43 am   BACKBONE|DICT|INTERRES
    85   42  121 1    
    86   43   44 2    
    87   43   45 1    
    88   45   46 1    
    89   45   47 1    
    90   45  122 1    
    91   46  123 1    
    92   46  124 1    
    93   46  125 1    
    94   47   48 am   BACKBONE|DICT|INTERRES
    95   47  126 1    
    96   48   49 2    
    97   48   50 1    
    98   50   51 1    
    99   50   52 1    
   100   50  127 1    
   101   51  128 1    
   102   51  129 1    
   103   51  130 1    
   104   52   53 am   BACKBONE|DICT|INTERRES
   105   52  131 1    
   106   53   54 2    
   107   53   55 1    
   108   55   56 1    
   109   55   59 1    
   110   55  132 1    
   111   56   57 1    
   112   56  133 1    
   113   56  134 1    
   114   57   58 1    
   115   58  135 1    
   116   58  136 1    
   117   59   60 am   BACKBONE|DICT|INTERRES
   118   59  137 1    
   119   60   61 2    
   120   60   62 1    
   121   62   63 1    
   122   62   64 1    
   123   62  138 1    
   124   63  139 1    
   125   63  140 1    
   126   63  141 1    
   127   64   65 am   BACKBONE|DICT|INTERRES
   128   64  142 1    
   129   65   66 2    
   130   65   67 1    
   131   67   68 1    
   132   67   69 1    
   133   67  143 1    
   134   68  144 1    
   135   68  145 1    
   136   68  146 1    
   137   69   70 am   BACKBONE|DICT|INTERRES
   138   69  147 1    
   139   70   71 2    
   140   70   72 1    
   141   72   73 1    
   142   72   74 1    
   143   72  148 1    
   144   73  149 1    
   145   73  150 1    
   146   73  151 1    
   147   74   75 am   BACKBONE|DICT|INTERRES
   148   74  152 1    
   149   75   76 2    
   150   75   77 1    
   151   77   78 1    
   152   77   79 1    
   153   77  153 1    
   154   78  154 1    
   155   78  155 1    
   156   78  156 1    
   157   79   80 am   BACKBONE|DICT|INTERRES
   158   79  157 1    
   159   80   81 2    
@<TRIPOS>SUBSTRUCTURE
     1 UNK         1 GROUP             0       ****    0 ROOT    
