@<TRIPOS>MOLECULE
3R207
157   159    1
SMALL
USER_CHARGES


@<TRIPOS>ATOM
      1 CA        -45.4969  -26.6485    3.7127 C.3       0 UNK        -0.1975 
      2 C         -46.8460  -26.1670    4.2241 C.2       0 UNK         0.4852 
      3 O         -47.1734  -24.9881    4.0792 O.2       0 UNK        -0.5216 
      4 N         -47.6274  -27.0674    4.8347 N.am      1 UNK        -0.4461 
      5 CA        -48.9387  -26.7933    5.4315 C.3       1 UNK         0.0864 
      6 C6        -49.6219  -28.1088    5.8779 C.3       14 UNK        -0.0898 
      7 S7        -51.4406  -28.0211    5.8147 S.3       14 UNK        -0.2598 
      8 C8        -51.8836  -29.7347    6.2552 C.3       14 UNK         0.0286 
      9 C9        -51.6713  -30.0068    7.7379 C.ar      14 UNK        -0.0844 
     10 C10       -50.4325  -30.4521    8.2045 C.ar      14 UNK        -0.0881 
     11 C11       -50.2158  -30.6512    9.5694 C.ar      14 UNK        -0.0643 
     12 C12       -51.2606  -30.4291   10.4709 C.ar      14 UNK        -0.0930 
     13 C13       -52.5161  -30.0045   10.0192 C.ar      14 UNK        -0.0827 
     14 C14       -52.7129  -29.8032    8.6465 C.ar      14 UNK        -0.1249 
     15 C15       -53.6358  -29.7889   11.0369 C.3       14 UNK         0.0141 
     16 S16       -54.8357  -28.4858   10.5784 S.3       14 UNK        -0.2313 
     17 C17       -55.2544  -27.7640   12.1990 C.3       14 UNK        -0.0915 
     18 CA        -56.5975  -28.2616   12.7968 C.3       13 UNK         0.0968 
     19 C         -56.4677  -29.6607   13.4753 C.2       13 UNK         0.5732 
     20 N         -56.5851  -29.7869   14.7930 N.am      13 UNK        -0.7310 
     21 O         -56.2844  -30.6636   12.7910 O.2       13 UNK        -0.5035 
     22 N         -57.1748  -27.2305   13.6691 N.am      13 UNK        -0.4233 
     23 C         -58.4642  -27.1671   14.0276 C.2       13 UNK         0.4989 
     24 O         -59.3381  -27.8926   13.5492 O.2       13 UNK        -0.4996 
     25 CA        -58.8413  -26.1223   15.1028 C.3       12 UNK         0.0216 
     26 CB        -60.0860  -26.5390   15.9159 C.3       12 UNK        -0.1964 
     27 N         -57.7359  -25.7648   16.0066 N.am      12 UNK        -0.4276 
     28 C         -57.0245  -26.5999   16.7779 C.2       12 UNK         0.5020 
     29 O         -57.2186  -27.8159   16.8502 O.2       12 UNK        -0.5489 
     30 CA        -55.8719  -25.9749   17.5787 C.3       11 UNK         0.0294 
     31 CB        -56.2138  -25.9306   19.0768 C.3       11 UNK        -0.2019 
     32 N         -54.6226  -26.7147   17.3847 N.am      11 UNK        -0.4493 
     33 C         -53.9854  -26.8490   16.2138 C.2       11 UNK         0.4932 
     34 O         -54.3755  -26.3498   15.1558 O.2       11 UNK        -0.5029 
     35 CA        -52.6882  -27.6729   16.2337 C.3       10 UNK         0.0280 
     36 CB        -52.7726  -28.8887   15.2974 C.3       10 UNK        -0.1976 
     37 N         -51.5494  -26.8359   15.8564 N.am      10 UNK        -0.4242 
     38 C         -51.0003  -25.9188   16.6662 C.2       10 UNK         0.5072 
     39 O         -51.3480  -25.7436   17.8355 O.2       10 UNK        -0.5224 
     40 CA        -49.8696  -25.0511   16.0906 C.3       9 UNK         0.0343 
     41 CB        -48.5279  -25.7982   16.1535 C.3       9 UNK        -0.2003 
     42 N         -50.1145  -24.6024   14.7197 N.am      9 UNK        -0.4272 
     43 C         -51.0695  -23.7363   14.3490 C.2       9 UNK         0.4988 
     44 O         -51.8741  -23.2248   15.1281 O.2       9 UNK        -0.5108 
     45 CA        -51.1250  -23.3608   12.8599 C.3       8 UNK         0.0248 
     46 CB        -50.1026  -22.2576   12.5374 C.3       8 UNK        -0.2001 
     47 N         -50.8687  -24.5259   12.0132 N.am      8 UNK        -0.4140 
     48 C         -51.8242  -25.3096   11.4955 C.2       8 UNK         0.5028 
     49 O         -53.0276  -25.0691   11.5900 O.2       8 UNK        -0.5428 
     50 CA        -51.3748  -26.5711   10.7347 C.3       7 UNK         0.0264 
     51 CB        -51.4440  -26.3419    9.2191 C.3       7 UNK        -0.1988 
     52 N         -50.0317  -27.0394   11.0854 N.am      7 UNK        -0.4454 
     53 C         -49.7010  -27.5687   12.2715 C.2       7 UNK         0.5027 
     54 O         -50.4951  -27.7127   13.2020 O.2       7 UNK        -0.5083 
     55 CA        -48.2167  -27.9279   12.4913 C.3       6 UNK         0.0844 
     56 C56       -47.9021  -29.3964   12.1137 C.3       14 UNK        -0.0967 
     57 S57       -47.7239  -29.7050   10.3195 S.3       14 UNK        -0.2604 
     58 C58       -48.8501  -31.1120   10.0532 C.3       14 UNK         0.0134 
     59 N         -47.2754  -26.9718   11.8945 N.am      6 UNK        -0.4116 
     60 C         -47.2498  -25.6526   12.1210 C.2       5 UNK         0.5034 
     61 O         -48.0693  -25.0752   12.8343 O.2       5 UNK        -0.5045 
     62 CA        -46.1622  -24.8113   11.4353 C.3       5 UNK         0.0224 
     63 CB        -44.9503  -24.6176   12.3666 C.3       5 UNK        -0.1978 
     64 N         -45.7511  -25.2720   10.1023 N.am      5 UNK        -0.4737 
     65 C         -45.0776  -26.3781    9.7474 C.2       4 UNK         0.5027 
     66 O         -44.7437  -27.2538   10.5452 O.2       4 UNK        -0.5211 
     67 CA        -44.7300  -26.5518    8.2551 C.3       4 UNK         0.0297 
     68 CB        -45.3082  -27.8655    7.6994 C.3       4 UNK        -0.1993 
     69 N         -45.2043  -25.4258    7.4439 N.am      4 UNK        -0.4486 
     70 C         -44.5100  -24.2963    7.2325 C.2       3 UNK         0.4961 
     71 O         -43.3442  -24.1390    7.5951 O.2       3 UNK        -0.5105 
     72 CA        -45.2296  -23.1286    6.5296 C.3       3 UNK         0.0299 
     73 CB        -44.6743  -22.9118    5.1124 C.3       3 UNK        -0.1972 
     74 N         -46.6860  -23.2907    6.4711 N.am      3 UNK        -0.4305 
     75 C         -47.5075  -23.1101    7.5179 C.2       2 UNK         0.5006 
     76 O         -47.1191  -22.7669    8.6346 O.2       2 UNK        -0.5106 
     77 CA        -49.0016  -23.4242    7.3082 C.3       2 UNK         0.0296 
     78 CB        -49.7527  -22.1800    6.8103 C.3       2 UNK        -0.2002 
     79 N         -49.2358  -24.5430    6.3883 N.am      2 UNK        -0.4032 
     80 C         -48.7912  -25.7904    6.5956 C.2       1 UNK         0.5000 
     81 O         -48.2047  -26.1352    7.6240 O.2       1 UNK        -0.5238 
     82 H82       -45.4348  -27.7363    3.6943 H         1 UNK         0.0889 
     83 H83       -44.6973  -26.2731    4.3503 H         1 UNK         0.0889 
     84 H84       -45.3270  -26.2843    2.6999 H         1 UNK         0.0889 
     85 H85       -47.2937  -28.0146    4.9389 H         1 UNK         0.3028 
     86 H86       -49.5461  -26.3355    4.6474 H         1 UNK         0.0864 
     87 H87       -49.2964  -28.3997    6.8773 H         1 UNK         0.0720 
     88 H88       -49.3293  -28.9275    5.2183 H         1 UNK         0.0720 
     89 H89       -51.3047  -30.4351    5.6512 H         1 UNK         0.0814 
     90 H90       -52.9293  -29.9042    5.9943 H         1 UNK         0.0814 
     91 H91       -49.6252  -30.6253    7.5066 H         1 UNK         0.1469 
     92 H92       -51.0937  -30.5855   11.5278 H         1 UNK         0.1381 
     93 H93       -53.6736  -29.4733    8.2772 H         1 UNK         0.1206 
     94 H94       -54.1708  -30.7299   11.1663 H         1 UNK         0.0813 
     95 H95       -53.1955  -29.5493   12.0051 H         1 UNK         0.0813 
     96 H96       -54.4342  -27.8887   12.9031 H         1 UNK         0.0638 
     97 H97       -55.3093  -26.6880   12.0252 H         1 UNK         0.0638 
     98 H98       -57.2965  -28.3932   11.9684 H         1 UNK         0.0568 
     99 H99       -56.5135  -30.7055   15.1990 H         1 UNK         0.3450 
    100 H100      -56.7847  -28.9908   15.3924 H         1 UNK         0.3450 
    101 H101      -56.5083  -26.6258   14.1308 H         1 UNK         0.2987 
    102 H102      -59.0946  -25.2126   14.5562 H         1 UNK         0.0766 
    103 H103      -60.3495  -25.7822   16.6548 H         1 UNK         0.0798 
    104 H104      -59.9271  -27.4807   16.4427 H         1 UNK         0.0798 
    105 H105      -60.9537  -26.6712   15.2684 H         1 UNK         0.0798 
    106 H106      -57.4777  -24.7867   16.0047 H         1 UNK         0.3198 
    107 H107      -55.7066  -24.9522   17.2322 H         1 UNK         0.0843 
    108 H108      -56.3679  -26.9305   19.4853 H         1 UNK         0.0831 
    109 H109      -57.1297  -25.3641   19.2510 H         1 UNK         0.0831 
    110 H110      -55.4225  -25.4496   19.6523 H         1 UNK         0.0831 
    111 H111      -54.2360  -27.1681   18.2000 H         1 UNK         0.3133 
    112 H112      -52.5238  -28.0508   17.2452 H         1 UNK         0.0566 
    113 H113      -53.6627  -29.4847   15.5026 H         1 UNK         0.0814 
    114 H114      -52.8096  -28.5883   14.2521 H         1 UNK         0.0814 
    115 H115      -51.9072  -29.5400   15.4197 H         1 UNK         0.0814 
    116 H116      -51.2111  -26.9291   14.9029 H         1 UNK         0.3091 
    117 H117      -49.7875  -24.1598   16.7162 H         1 UNK         0.0702 
    118 H118      -47.7084  -25.1765   15.7918 H         1 UNK         0.0785 
    119 H119      -48.5469  -26.7092   15.5560 H         1 UNK         0.0785 
    120 H120      -48.2899  -26.0856   17.1785 H         1 UNK         0.0785 
    121 H121      -49.4454  -24.9113   14.0188 H         1 UNK         0.2998 
    122 H122      -52.1205  -22.9622   12.6523 H         1 UNK         0.0697 
    123 H123      -49.0792  -22.5746   12.7408 H         1 UNK         0.0825 
    124 H124      -50.2916  -21.3663   13.1372 H         1 UNK         0.0825 
    125 H125      -50.1583  -21.9607   11.4900 H         1 UNK         0.0825 
    126 H126      -49.9019  -24.8144   11.9253 H         1 UNK         0.3029 
    127 H127      -52.0770  -27.3639   10.9933 H         1 UNK         0.0897 
    128 H128      -52.4624  -26.1083    8.9061 H         1 UNK         0.0792 
    129 H129      -51.1347  -27.2331    8.6741 H         1 UNK         0.0792 
    130 H130      -50.8053  -25.5173    8.9064 H         1 UNK         0.0792 
    131 H131      -49.3189  -26.9715   10.3716 H         1 UNK         0.3086 
    132 H132      -48.0574  -27.8513   13.5679 H         1 UNK         0.0583 
    133 H133      -46.9596  -29.6867   12.5806 H         1 UNK         0.1020 
    134 H134      -48.6488  -30.0656   12.5451 H         1 UNK         0.1020 
    135 H135      -48.4046  -31.7706    9.3061 H         1 UNK         0.0694 
    136 H136      -48.9413  -31.7130   10.9589 H         1 UNK         0.0694 
    137 H137      -46.5397  -27.3602   11.3119 H         1 UNK         0.2989 
    138 H138      -46.6057  -23.8269   11.2728 H         1 UNK         0.1055 
    139 H139      -45.2563  -24.1720   13.3143 H         1 UNK         0.0806 
    140 H140      -44.2103  -23.9529   11.9207 H         1 UNK         0.0806 
    141 H141      -44.4571  -25.5620   12.5991 H         1 UNK         0.0806 
    142 H142      -46.0151  -24.6427    9.3542 H         1 UNK         0.3061 
    143 H143      -43.6420  -26.6140    8.1851 H         1 UNK         0.0734 
    144 H144      -45.0763  -27.9879    6.6418 H         1 UNK         0.0832 
    145 H145      -44.8873  -28.7252    8.2227 H         1 UNK         0.0832 
    146 H146      -46.3898  -27.9215    7.8191 H         1 UNK         0.0832 
    147 H147      -46.1781  -25.4650    7.1676 H         1 UNK         0.3156 
    148 H148      -45.0137  -22.2273    7.1077 H         1 UNK         0.0589 
    149 H149      -44.8205  -23.7840    4.4767 H         1 UNK         0.0808 
    150 H150      -45.1490  -22.0595    4.6260 H         1 UNK         0.0808 
    151 H151      -43.6026  -22.7101    5.1414 H         1 UNK         0.0808 
    152 H152      -47.0671  -23.6315    5.5928 H         1 UNK         0.3098 
    153 H153      -49.4119  -23.7008    8.2812 H         1 UNK         0.0720 
    154 H154      -49.4057  -21.8643    5.8256 H         1 UNK         0.0791 
    155 H155      -49.6093  -21.3399    7.4916 H         1 UNK         0.0791 
    156 H156      -50.8255  -22.3632    6.7468 H         1 UNK         0.0791 
    157 H157      -49.6745  -24.3223    5.5054 H         1 UNK         0.3028 
@<TRIPOS>BOND
     1    1    2 1    
     2    1   82 1    
     3    1   83 1    
     4    1   84 1    
     5    2    3 2    
     6    2    4 am   BACKBONE|DICT|INTERRES
     7    4    5 1    
     8    4   85 1    
     9    5    6 1    
    10    5   80 1    
    11    5   86 1    
    12    6    7 1    
    13    6   87 1    
    14    6   88 1    
    15    7    8 1    
    16    8    9 1    
    17    8   89 1    
    18    8   90 1    
    19    9   10 ar   
    20    9   14 ar   
    21   10   11 ar   
    22   10   91 1    
    23   11   12 ar   
    24   11   58 1    
    25   12   13 ar   
    26   12   92 1    
    27   13   14 ar   
    28   13   15 1    
    29   14   93 1    
    30   15   16 1    
    31   15   94 1    
    32   15   95 1    
    33   16   17 1    
    34   17   18 1    
    35   17   96 1    
    36   17   97 1    
    37   18   19 1    
    38   18   22 1    
    39   18   98 1    
    40   19   20 am   BACKBONE|DICT|INTERRES
    41   19   21 2    
    42   20   99 1    
    43   20  100 1    
    44   22   23 am   BACKBONE|DICT|INTERRES
    45   22  101 1    
    46   23   24 2    
    47   23   25 1    
    48   25   26 1    
    49   25   27 1    
    50   25  102 1    
    51   26  103 1    
    52   26  104 1    
    53   26  105 1    
    54   27   28 am   BACKBONE|DICT|INTERRES
    55   27  106 1    
    56   28   29 2    
    57   28   30 1    
    58   30   31 1    
    59   30   32 1    
    60   30  107 1    
    61   31  108 1    
    62   31  109 1    
    63   31  110 1    
    64   32   33 am   BACKBONE|DICT|INTERRES
    65   32  111 1    
    66   33   34 2    
    67   33   35 1    
    68   35   36 1    
    69   35   37 1    
    70   35  112 1    
    71   36  113 1    
    72   36  114 1    
    73   36  115 1    
    74   37   38 am   BACKBONE|DICT|INTERRES
    75   37  116 1    
    76   38   39 2    
    77   38   40 1    
    78   40   41 1    
    79   40   42 1    
    80   40  117 1    
    81   41  118 1    
    82   41  119 1    
    83   41  120 1    
    84   42   43 am   BACKBONE|DICT|INTERRES
    85   42  121 1    
    86   43   44 2    
    87   43   45 1    
    88   45   46 1    
    89   45   47 1    
    90   45  122 1    
    91   46  123 1    
    92   46  124 1    
    93   46  125 1    
    94   47   48 am   BACKBONE|DICT|INTERRES
    95   47  126 1    
    96   48   49 2    
    97   48   50 1    
    98   50   51 1    
    99   50   52 1    
   100   50  127 1    
   101   51  128 1    
   102   51  129 1    
   103   51  130 1    
   104   52   53 am   BACKBONE|DICT|INTERRES
   105   52  131 1    
   106   53   54 2    
   107   53   55 1    
   108   55   56 1    
   109   55   59 1    
   110   55  132 1    
   111   56   57 1    
   112   56  133 1    
   113   56  134 1    
   114   57   58 1    
   115   58  135 1    
   116   58  136 1    
   117   59   60 am   BACKBONE|DICT|INTERRES
   118   59  137 1    
   119   60   61 2    
   120   60   62 1    
   121   62   63 1    
   122   62   64 1    
   123   62  138 1    
   124   63  139 1    
   125   63  140 1    
   126   63  141 1    
   127   64   65 am   BACKBONE|DICT|INTERRES
   128   64  142 1    
   129   65   66 2    
   130   65   67 1    
   131   67   68 1    
   132   67   69 1    
   133   67  143 1    
   134   68  144 1    
   135   68  145 1    
   136   68  146 1    
   137   69   70 am   BACKBONE|DICT|INTERRES
   138   69  147 1    
   139   70   71 2    
   140   70   72 1    
   141   72   73 1    
   142   72   74 1    
   143   72  148 1    
   144   73  149 1    
   145   73  150 1    
   146   73  151 1    
   147   74   75 am   BACKBONE|DICT|INTERRES
   148   74  152 1    
   149   75   76 2    
   150   75   77 1    
   151   77   78 1    
   152   77   79 1    
   153   77  153 1    
   154   78  154 1    
   155   78  155 1    
   156   78  156 1    
   157   79   80 am   BACKBONE|DICT|INTERRES
   158   79  157 1    
   159   80   81 2    
@<TRIPOS>SUBSTRUCTURE
     1 UNK         1 GROUP             0       ****    0 ROOT    
