@<TRIPOS>MOLECULE
3R207
157   159    1
SMALL
USER_CHARGES


@<TRIPOS>ATOM
      1 CA        -45.6806  -27.9031    5.1863 C.3       0 UNK        -0.1975 
      2 C         -46.0273  -28.5752    6.5135 C.2       0 UNK         0.4852 
      3 O         -45.1364  -28.7626    7.3405 O.2       0 UNK        -0.5216 
      4 N         -47.2839  -28.9723    6.7614 N.am      1 UNK        -0.4461 
      5 CA        -48.4755  -28.7833    5.9200 C.3       1 UNK         0.0864 
      6 C6        -49.6500  -29.6661    6.4092 C.3       14 UNK        -0.0898 
      7 S7        -49.2347  -31.4463    6.3708 S.3       14 UNK        -0.2598 
      8 C8        -50.7781  -32.2160    6.9676 C.3       14 UNK         0.0286 
      9 C9        -51.2480  -31.6013    8.2774 C.ar      14 UNK        -0.0844 
     10 C10       -50.4719  -31.7249    9.4326 C.ar      14 UNK        -0.0881 
     11 C11       -50.8371  -31.0633   10.6087 C.ar      14 UNK        -0.0643 
     12 C12       -52.0193  -30.3136   10.6358 C.ar      14 UNK        -0.0930 
     13 C13       -52.8151  -30.2008    9.4901 C.ar      14 UNK        -0.0827 
     14 C14       -52.4265  -30.8528    8.3171 C.ar      14 UNK        -0.1249 
     15 C15       -54.0754  -29.3476    9.4911 C.3       14 UNK         0.0141 
     16 S16       -53.7907  -27.7913    8.5927 S.3       14 UNK        -0.2313 
     17 C17       -55.4592  -27.0626    8.5241 C.3       14 UNK        -0.0915 
     18 CA        -55.6192  -25.8688    9.5028 C.3       13 UNK         0.0968 
     19 C         -56.8221  -24.9633    9.1051 C.2       13 UNK         0.5732 
     20 N         -57.8347  -24.7847    9.9457 N.am      13 UNK        -0.7310 
     21 O         -56.8303  -24.3994    8.0136 O.2       13 UNK        -0.5035 
     22 N         -55.6478  -26.3225   10.9035 N.am      13 UNK        -0.4233 
     23 C         -55.2337  -25.5930   11.9463 C.2       13 UNK         0.4989 
     24 O         -54.7346  -24.4706   11.8369 O.2       13 UNK        -0.4996 
     25 CA        -55.4260  -26.2235   13.3380 C.3       12 UNK         0.0216 
     26 CB        -54.9771  -27.6986   13.3773 C.3       12 UNK        -0.1964 
     27 N         -54.6499  -25.4820   14.3282 N.am      12 UNK        -0.4276 
     28 C         -55.1280  -24.7496   15.3393 C.2       12 UNK         0.5020 
     29 O         -56.3276  -24.6144   15.5913 O.2       12 UNK        -0.5489 
     30 CA        -54.0576  -24.0804   16.2260 C.3       11 UNK         0.0294 
     31 CB        -54.6379  -23.3546   17.4589 C.3       11 UNK        -0.2019 
     32 N         -53.0060  -25.0362   16.5998 N.am      11 UNK        -0.4493 
     33 C         -53.1389  -26.1424   17.3477 C.2       11 UNK         0.4932 
     34 O         -54.1554  -26.4328   17.9791 O.2       11 UNK        -0.5029 
     35 CA        -51.9554  -27.1273   17.3697 C.3       10 UNK         0.0280 
     36 CB        -52.2706  -28.3360   16.4721 C.3       10 UNK        -0.1976 
     37 N         -50.6776  -26.5431   16.9499 N.am      10 UNK        -0.4242 
     38 C         -49.9338  -25.7146   17.6970 C.2       10 UNK         0.5072 
     39 O         -50.2418  -25.3540   18.8338 O.2       10 UNK        -0.5224 
     40 CA        -48.6296  -25.1898   17.0676 C.3       9 UNK         0.0343 
     41 CB        -47.5174  -26.2483   17.1438 C.3       9 UNK        -0.2003 
     42 N         -48.8003  -24.7568   15.6789 N.am      9 UNK        -0.4272 
     43 C         -49.5517  -23.7143   15.2938 C.2       9 UNK         0.4988 
     44 O         -50.1374  -22.9620   16.0724 O.2       9 UNK        -0.5108 
     45 CA        -49.7149  -23.5011   13.7804 C.3       8 UNK         0.0248 
     46 CB        -48.5283  -22.7190   13.1952 C.3       8 UNK        -0.2001 
     47 N         -49.8877  -24.7665   13.0653 N.am      8 UNK        -0.4140 
     48 C         -50.9676  -25.5508   13.1876 C.2       8 UNK         0.5028 
     49 O         -51.9457  -25.2674   13.8754 O.2       8 UNK        -0.5428 
     50 CA        -50.9360  -26.9015   12.4647 C.3       7 UNK         0.0264 
     51 CB        -51.3825  -26.7361   11.0099 C.3       7 UNK        -0.1988 
     52 N         -49.6133  -27.5190   12.5089 N.am      7 UNK        -0.4454 
     53 C         -49.0604  -28.0181   13.6246 C.2       7 UNK         0.5027 
     54 O         -49.6134  -28.0017   14.7234 O.2       7 UNK        -0.5083 
     55 CA        -47.6359  -28.5975   13.5093 C.3       6 UNK         0.0844 
     56 C56       -47.6612  -30.1101   13.1689 C.3       14 UNK        -0.0967 
     57 S57       -48.2703  -30.4773   11.4838 S.3       14 UNK        -0.2604 
     58 C58       -49.9369  -31.1355   11.8353 C.3       14 UNK         0.0134 
     59 N         -46.7834  -27.8334   12.5942 N.am      6 UNK        -0.4116 
     60 C         -46.5034  -26.5269   12.7002 C.2       5 UNK         0.5034 
     61 O         -46.9150  -25.8110   13.6154 O.2       5 UNK        -0.5045 
     62 CA        -45.6549  -25.8922   11.5826 C.3       5 UNK         0.0224 
     63 CB        -44.9403  -26.9187   10.6723 C.3       5 UNK        -0.1978 
     64 N         -46.4332  -24.9492   10.7675 N.am      5 UNK        -0.4737 
     65 C         -47.5564  -25.2112   10.0824 C.2       4 UNK         0.5027 
     66 O         -48.1410  -26.2973   10.1164 O.2       4 UNK        -0.5211 
     67 CA        -48.1075  -24.0566    9.2280 C.3       4 UNK         0.0297 
     68 CB        -47.0854  -23.6158    8.1636 C.3       4 UNK        -0.1993 
     69 N         -49.3234  -24.4831    8.5403 N.am      4 UNK        -0.4486 
     70 C         -50.5352  -23.9251    8.6550 C.2       3 UNK         0.4961 
     71 O         -50.7645  -22.9354    9.3520 O.2       3 UNK        -0.5105 
     72 CA        -51.6904  -24.6015    7.8796 C.3       3 UNK         0.0299 
     73 CB        -52.8844  -23.6564    7.6259 C.3       3 UNK        -0.1972 
     74 N         -51.2626  -25.2612    6.6375 N.am      3 UNK        -0.4305 
     75 C         -50.6735  -24.6803    5.5800 C.2       2 UNK         0.5006 
     76 O         -50.5131  -23.4631    5.4724 O.2       2 UNK        -0.5106 
     77 CA        -50.1626  -25.6137    4.4571 C.3       2 UNK         0.0296 
     78 CB        -49.0106  -24.9700    3.6548 C.3       2 UNK        -0.2002 
     79 N         -49.7637  -26.9690    4.8777 N.am      2 UNK        -0.4032 
     80 C         -48.8930  -27.2971    5.8462 C.2       1 UNK         0.5000 
     81 O         -48.4278  -26.4849    6.6482 O.2       1 UNK        -0.5238 
     82 H82       -46.0423  -26.8754    5.1701 H         1 UNK         0.0889 
     83 H83       -46.1026  -28.4413    4.3389 H         1 UNK         0.0889 
     84 H84       -44.6001  -27.8752    5.0475 H         1 UNK         0.0889 
     85 H85       -47.4723  -29.4060    7.6530 H         1 UNK         0.3028 
     86 H86       -48.2249  -29.0996    4.9061 H         1 UNK         0.0864 
     87 H87       -50.5399  -29.5202    5.7941 H         1 UNK         0.0720 
     88 H88       -49.9277  -29.3844    7.4271 H         1 UNK         0.0720 
     89 H89       -50.6145  -33.2854    7.1071 H         1 UNK         0.0814 
     90 H90       -51.5432  -32.1193    6.1958 H         1 UNK         0.0814 
     91 H91       -49.5506  -32.2906    9.4002 H         1 UNK         0.1469 
     92 H92       -52.3063  -29.7951   11.5401 H         1 UNK         0.1381 
     93 H93       -53.0261  -30.7420    7.4237 H         1 UNK         0.1206 
     94 H94       -54.3932  -29.1261   10.5105 H         1 UNK         0.0813 
     95 H95       -54.8888  -29.9011    9.0197 H         1 UNK         0.0813 
     96 H96       -55.6055  -26.7401    7.4915 H         1 UNK         0.0638 
     97 H97       -56.2163  -27.8261    8.7101 H         1 UNK         0.0638 
     98 H98       -54.7414  -25.2325    9.3771 H         1 UNK         0.0568 
     99 H99       -57.8429  -25.2339   10.8464 H         1 UNK         0.3450 
    100 H100      -58.6008  -24.1900    9.6716 H         1 UNK         0.3450 
    101 H101      -56.0690  -27.2238   11.0685 H         1 UNK         0.2987 
    102 H102      -56.4894  -26.1725   13.5795 H         1 UNK         0.0766 
    103 H103      -54.9924  -28.0877   14.3958 H         1 UNK         0.0798 
    104 H104      -55.6374  -28.3354   12.7884 H         1 UNK         0.0798 
    105 H105      -53.9662  -27.8246   12.9903 H         1 UNK         0.0798 
    106 H106      -53.6428  -25.4393   14.1549 H         1 UNK         0.3198 
    107 H107      -53.5725  -23.3280   15.6018 H         1 UNK         0.0843 
    108 H108      -55.3161  -22.5570   17.1537 H         1 UNK         0.0831 
    109 H109      -53.8494  -22.8992   18.0579 H         1 UNK         0.0831 
    110 H110      -55.2037  -24.0281   18.1028 H         1 UNK         0.0831 
    111 H111      -52.1449  -24.9418   16.0750 H         1 UNK         0.3133 
    112 H112      -51.8462  -27.4858   18.3953 H         1 UNK         0.0566 
    113 H113      -51.4832  -29.0880   16.5269 H         1 UNK         0.0814 
    114 H114      -53.2007  -28.8192   16.7746 H         1 UNK         0.0814 
    115 H115      -52.3809  -28.0417   15.4275 H         1 UNK         0.0814 
    116 H116      -50.3123  -26.8555   16.0528 H         1 UNK         0.3091 
    117 H117      -48.3086  -24.3214   17.6469 H         1 UNK         0.0702 
    118 H118      -46.5761  -25.8629   16.7513 H         1 UNK         0.0785 
    119 H119      -47.7715  -27.1456   16.5794 H         1 UNK         0.0785 
    120 H120      -47.3392  -26.5520   18.1762 H         1 UNK         0.0785 
    121 H121      -48.3038  -25.2842   14.9672 H         1 UNK         0.2998 
    122 H122      -50.6176  -22.9053   13.6271 H         1 UNK         0.0697 
    123 H123      -47.5930  -23.2737   13.2705 H         1 UNK         0.0825 
    124 H124      -48.3885  -21.7747   13.7230 H         1 UNK         0.0825 
    125 H125      -48.6956  -22.4774   12.1461 H         1 UNK         0.0825 
    126 H126      -49.1048  -25.1048   12.5246 H         1 UNK         0.3029 
    127 H127      -51.6350  -27.5715   12.9678 H         1 UNK         0.0897 
    128 H128      -51.3462  -27.6771   10.4647 H         1 UNK         0.0792 
    129 H129      -50.7420  -26.0334   10.4841 H         1 UNK         0.0792 
    130 H130      -52.4035  -26.3571   10.9533 H         1 UNK         0.0792 
    131 H131      -49.0772  -27.5234   11.6467 H         1 UNK         0.3086 
    132 H132      -47.1839  -28.4983   14.4983 H         1 UNK         0.0583 
    133 H133      -46.6512  -30.5148   13.2516 H         1 UNK         0.1020 
    134 H134      -48.2487  -30.6599   13.9072 H         1 UNK         0.1020 
    135 H135      -49.8541  -32.1713   12.1668 H         1 UNK         0.0694 
    136 H136      -50.3817  -30.5777   12.6607 H         1 UNK         0.0694 
    137 H137      -46.4502  -28.3304   11.7811 H         1 UNK         0.2989 
    138 H138      -44.8843  -25.3093   12.0899 H         1 UNK         0.1055 
    139 H139      -44.3270  -27.6077   11.2548 H         1 UNK         0.0806 
    140 H140      -44.2723  -26.4170    9.9720 H         1 UNK         0.0806 
    141 H141      -45.6398  -27.5110   10.0804 H         1 UNK         0.0806 
    142 H142      -46.0518  -24.0149   10.7118 H         1 UNK         0.3061 
    143 H143      -48.3162  -23.2162    9.8917 H         1 UNK         0.0734 
    144 H144      -47.5017  -22.8464    7.5129 H         1 UNK         0.0832 
    145 H145      -46.1860  -23.1989    8.6171 H         1 UNK         0.0832 
    146 H146      -46.7776  -24.4512    7.5328 H         1 UNK         0.0832 
    147 H147      -49.2057  -25.3134    7.9627 H         1 UNK         0.3156 
    148 H148      -52.0499  -25.3991    8.5280 H         1 UNK         0.0589 
    149 H149      -52.5983  -22.7931    7.0249 H         1 UNK         0.0808 
    150 H150      -53.6959  -24.1717    7.1119 H         1 UNK         0.0808 
    151 H151      -53.2890  -23.2770    8.5651 H         1 UNK         0.0808 
    152 H152      -51.3486  -26.2676    6.6282 H         1 UNK         0.3098 
    153 H153      -51.0054  -25.7431    3.7764 H         1 UNK         0.0720 
    154 H154      -48.6813  -25.6169    2.8417 H         1 UNK         0.0791 
    155 H155      -48.1478  -24.7636    4.2896 H         1 UNK         0.0791 
    156 H156      -49.3192  -24.0250    3.2057 H         1 UNK         0.0791 
    157 H157      -50.1254  -27.7141    4.2977 H         1 UNK         0.3028 
@<TRIPOS>BOND
     1    1    2 1    
     2    1   82 1    
     3    1   83 1    
     4    1   84 1    
     5    2    3 2    
     6    2    4 am   BACKBONE|DICT|INTERRES
     7    4    5 1    
     8    4   85 1    
     9    5    6 1    
    10    5   80 1    
    11    5   86 1    
    12    6    7 1    
    13    6   87 1    
    14    6   88 1    
    15    7    8 1    
    16    8    9 1    
    17    8   89 1    
    18    8   90 1    
    19    9   10 ar   
    20    9   14 ar   
    21   10   11 ar   
    22   10   91 1    
    23   11   12 ar   
    24   11   58 1    
    25   12   13 ar   
    26   12   92 1    
    27   13   14 ar   
    28   13   15 1    
    29   14   93 1    
    30   15   16 1    
    31   15   94 1    
    32   15   95 1    
    33   16   17 1    
    34   17   18 1    
    35   17   96 1    
    36   17   97 1    
    37   18   19 1    
    38   18   22 1    
    39   18   98 1    
    40   19   20 am   BACKBONE|DICT|INTERRES
    41   19   21 2    
    42   20   99 1    
    43   20  100 1    
    44   22   23 am   BACKBONE|DICT|INTERRES
    45   22  101 1    
    46   23   24 2    
    47   23   25 1    
    48   25   26 1    
    49   25   27 1    
    50   25  102 1    
    51   26  103 1    
    52   26  104 1    
    53   26  105 1    
    54   27   28 am   BACKBONE|DICT|INTERRES
    55   27  106 1    
    56   28   29 2    
    57   28   30 1    
    58   30   31 1    
    59   30   32 1    
    60   30  107 1    
    61   31  108 1    
    62   31  109 1    
    63   31  110 1    
    64   32   33 am   BACKBONE|DICT|INTERRES
    65   32  111 1    
    66   33   34 2    
    67   33   35 1    
    68   35   36 1    
    69   35   37 1    
    70   35  112 1    
    71   36  113 1    
    72   36  114 1    
    73   36  115 1    
    74   37   38 am   BACKBONE|DICT|INTERRES
    75   37  116 1    
    76   38   39 2    
    77   38   40 1    
    78   40   41 1    
    79   40   42 1    
    80   40  117 1    
    81   41  118 1    
    82   41  119 1    
    83   41  120 1    
    84   42   43 am   BACKBONE|DICT|INTERRES
    85   42  121 1    
    86   43   44 2    
    87   43   45 1    
    88   45   46 1    
    89   45   47 1    
    90   45  122 1    
    91   46  123 1    
    92   46  124 1    
    93   46  125 1    
    94   47   48 am   BACKBONE|DICT|INTERRES
    95   47  126 1    
    96   48   49 2    
    97   48   50 1    
    98   50   51 1    
    99   50   52 1    
   100   50  127 1    
   101   51  128 1    
   102   51  129 1    
   103   51  130 1    
   104   52   53 am   BACKBONE|DICT|INTERRES
   105   52  131 1    
   106   53   54 2    
   107   53   55 1    
   108   55   56 1    
   109   55   59 1    
   110   55  132 1    
   111   56   57 1    
   112   56  133 1    
   113   56  134 1    
   114   57   58 1    
   115   58  135 1    
   116   58  136 1    
   117   59   60 am   BACKBONE|DICT|INTERRES
   118   59  137 1    
   119   60   61 2    
   120   60   62 1    
   121   62   63 1    
   122   62   64 1    
   123   62  138 1    
   124   63  139 1    
   125   63  140 1    
   126   63  141 1    
   127   64   65 am   BACKBONE|DICT|INTERRES
   128   64  142 1    
   129   65   66 2    
   130   65   67 1    
   131   67   68 1    
   132   67   69 1    
   133   67  143 1    
   134   68  144 1    
   135   68  145 1    
   136   68  146 1    
   137   69   70 am   BACKBONE|DICT|INTERRES
   138   69  147 1    
   139   70   71 2    
   140   70   72 1    
   141   72   73 1    
   142   72   74 1    
   143   72  148 1    
   144   73  149 1    
   145   73  150 1    
   146   73  151 1    
   147   74   75 am   BACKBONE|DICT|INTERRES
   148   74  152 1    
   149   75   76 2    
   150   75   77 1    
   151   77   78 1    
   152   77   79 1    
   153   77  153 1    
   154   78  154 1    
   155   78  155 1    
   156   78  156 1    
   157   79   80 am   BACKBONE|DICT|INTERRES
   158   79  157 1    
   159   80   81 2    
@<TRIPOS>SUBSTRUCTURE
     1 UNK         1 GROUP             0       ****    0 ROOT    
