@<TRIPOS>MOLECULE
3R207
157   159    1
SMALL
USER_CHARGES


@<TRIPOS>ATOM
      1 CA        -49.3480  -29.8767    1.2323 C.3       0 UNK        -0.1975 
      2 C         -48.9855  -29.1012    2.4897 C.2       0 UNK         0.4852 
      3 O         -47.8297  -29.1362    2.9150 O.2       0 UNK        -0.5216 
      4 N         -49.9589  -28.3865    3.0733 N.am      1 UNK        -0.4461 
      5 CA        -49.8968  -27.5904    4.3128 C.3       1 UNK         0.0864 
      6 C6        -49.5169  -28.4130    5.5758 C.3       14 UNK        -0.0898 
      7 S7        -50.7657  -29.6884    5.9493 S.3       14 UNK        -0.2598 
      8 C8        -51.6683  -28.9037    7.3269 C.3       14 UNK         0.0286 
      9 C9        -51.2655  -29.4370    8.6994 C.ar      14 UNK        -0.0844 
     10 C10       -49.9228  -29.5650    9.0761 C.ar      14 UNK        -0.0881 
     11 C11       -49.5784  -30.0632   10.3378 C.ar      14 UNK        -0.0643 
     12 C12       -50.5918  -30.3914   11.2462 C.ar      14 UNK        -0.0930 
     13 C13       -51.9384  -30.2641   10.8844 C.ar      14 UNK        -0.0827 
     14 C14       -52.2632  -29.7956    9.6091 C.ar      14 UNK        -0.1249 
     15 C15       -53.0467  -30.6797   11.8450 C.3       14 UNK         0.0141 
     16 S16       -53.7683  -29.2668   12.7393 S.3       14 UNK        -0.2313 
     17 C17       -54.7796  -28.4563   11.4538 C.3       14 UNK        -0.0915 
     18 CA        -55.9813  -27.6394   12.0022 C.3       13 UNK         0.0968 
     19 C         -57.0860  -28.5382   12.6304 C.2       13 UNK         0.5732 
     20 N         -57.8129  -29.2823   11.8061 N.am      13 UNK        -0.7310 
     21 O         -57.2844  -28.5896   13.8423 O.2       13 UNK        -0.5035 
     22 N         -55.5389  -26.5286   12.8573 N.am      13 UNK        -0.4233 
     23 C         -56.2958  -25.4869   13.2196 C.2       13 UNK         0.4989 
     24 O         -57.4632  -25.3274   12.8544 O.2       13 UNK        -0.4996 
     25 CA        -55.6105  -24.4305   14.1109 C.3       12 UNK         0.0216 
     26 CB        -56.4695  -23.1639   14.3172 C.3       12 UNK        -0.1964 
     27 N         -55.1621  -24.9678   15.4032 N.am      12 UNK        -0.4276 
     28 C         -55.9260  -25.5328   16.3512 C.2       12 UNK         0.5020 
     29 O         -57.1442  -25.6926   16.2511 O.2       12 UNK        -0.5489 
     30 CA        -55.2147  -25.9412   17.6578 C.3       11 UNK         0.0294 
     31 CB        -56.0905  -26.8298   18.5680 C.3       11 UNK        -0.2019 
     32 N         -53.8967  -26.5541   17.4596 N.am      11 UNK        -0.4493 
     33 C         -53.5980  -27.6819   16.7986 C.2       11 UNK         0.4932 
     34 O         -54.4295  -28.3678   16.2054 O.2       11 UNK        -0.5029 
     35 CA        -52.1200  -28.1299   16.8485 C.3       10 UNK         0.0280 
     36 CB        -51.8109  -29.3149   15.9172 C.3       10 UNK        -0.1976 
     37 N         -51.1858  -27.0378   16.5583 N.am      10 UNK        -0.4242 
     38 C         -50.8177  -26.0923   17.4335 C.2       10 UNK         0.5072 
     39 O         -51.2242  -26.0489   18.5957 O.2       10 UNK        -0.5224 
     40 CA        -49.8892  -24.9785   16.9277 C.3       9 UNK         0.0343 
     41 CB        -48.4257  -25.4448   16.9589 C.3       9 UNK        -0.2003 
     42 N         -50.2299  -24.4772   15.5927 N.am      9 UNK        -0.4272 
     43 C         -51.4037  -23.9187   15.2549 C.2       9 UNK         0.4988 
     44 O         -52.3705  -23.8191   16.0130 O.2       9 UNK        -0.5108 
     45 CA        -51.5279  -23.3923   13.8162 C.3       8 UNK         0.0248 
     46 CB        -50.6804  -22.1254   13.6159 C.3       8 UNK        -0.2001 
     47 N         -51.1610  -24.3969   12.8193 N.am      8 UNK        -0.4140 
     48 C         -51.8044  -25.5593   12.6378 C.2       8 UNK         0.5028 
     49 O         -52.8187  -25.8871   13.2509 O.2       8 UNK        -0.5428 
     50 CA        -51.1775  -26.5420   11.6384 C.3       7 UNK         0.0264 
     51 CB        -51.4211  -26.0908   10.1892 C.3       7 UNK        -0.1988 
     52 N         -49.7453  -26.7227   11.8730 N.am      7 UNK        -0.4454 
     53 C         -49.2126  -27.1812   13.0169 C.2       7 UNK         0.5027 
     54 O         -49.8689  -27.5302   13.9983 O.2       7 UNK        -0.5083 
     55 CA        -47.6777  -27.1982   13.1116 C.3       6 UNK         0.0844 
     56 C56       -47.0779  -28.5472   12.6482 C.3       14 UNK        -0.0967 
     57 S57       -47.1176  -28.8189   10.8436 S.3       14 UNK        -0.2604 
     58 C58       -48.1156  -30.3340   10.6728 C.3       14 UNK         0.0134 
     59 N         -47.0727  -26.0274   12.4668 N.am      6 UNK        -0.4116 
     60 C         -47.2038  -24.7746   12.9294 C.2       5 UNK         0.5034 
     61 O         -47.8277  -24.4799   13.9487 O.2       5 UNK        -0.5045 
     62 CA        -46.5662  -23.6528   12.0971 C.3       5 UNK         0.0224 
     63 CB        -45.0343  -23.6723   12.2264 C.3       5 UNK        -0.1978 
     64 N         -46.9448  -23.6954   10.6833 N.am      5 UNK        -0.4737 
     65 C         -48.1970  -23.5859   10.2155 C.2       4 UNK         0.5027 
     66 O         -49.1865  -23.4597   10.9355 O.2       4 UNK        -0.5211 
     67 CA        -48.3795  -23.6234    8.6876 C.3       4 UNK         0.0297 
     68 CB        -48.4955  -22.1982    8.1258 C.3       4 UNK        -0.1993 
     69 N         -47.3013  -24.3317    7.9922 N.am      4 UNK        -0.4486 
     70 C         -47.0996  -25.6524    8.0628 C.2       3 UNK         0.4961 
     71 O         -47.8340  -26.4162    8.6886 O.2       3 UNK        -0.5105 
     72 CA        -45.8909  -26.1962    7.2791 C.3       3 UNK         0.0299 
     73 CB        -45.4803  -27.6075    7.7356 C.3       3 UNK        -0.1972 
     74 N         -46.1924  -26.2306    5.8510 N.am      3 UNK        -0.4305 
     75 C         -46.2133  -25.1699    5.0308 C.2       2 UNK         0.5006 
     76 O         -45.8439  -24.0416    5.3602 O.2       2 UNK        -0.5106 
     77 CA        -46.7875  -25.4040    3.6214 C.3       2 UNK         0.0296 
     78 CB        -45.6744  -25.7953    2.6368 C.3       2 UNK        -0.2002 
     79 N         -47.8288  -26.4361    3.6179 N.am      2 UNK        -0.4032 
     80 C         -49.0239  -26.3220    4.2128 C.2       1 UNK         0.5000 
     81 O         -49.4404  -25.2698    4.7000 O.2       1 UNK        -0.5238 
     82 H82       -50.3971  -29.7532    0.9639 H         1 UNK         0.0889 
     83 H83       -49.1594  -30.9394    1.3816 H         1 UNK         0.0889 
     84 H84       -48.7406  -29.5369    0.3939 H         1 UNK         0.0889 
     85 H85       -50.8712  -28.3924    2.6381 H         1 UNK         0.3028 
     86 H86       -50.9142  -27.2242    4.4624 H         1 UNK         0.0864 
     87 H87       -48.5520  -28.9056    5.4491 H         1 UNK         0.0720 
     88 H88       -49.3996  -27.7632    6.4460 H         1 UNK         0.0720 
     89 H89       -52.7318  -29.0774    7.1564 H         1 UNK         0.0814 
     90 H90       -51.5394  -27.8211    7.3063 H         1 UNK         0.0814 
     91 H91       -49.1389  -29.2999    8.3803 H         1 UNK         0.1469 
     92 H92       -50.3339  -30.7770   12.2229 H         1 UNK         0.1381 
     93 H93       -53.3018  -29.7105    9.3231 H         1 UNK         0.1206 
     94 H94       -52.6548  -31.3851   12.5791 H         1 UNK         0.0813 
     95 H95       -53.8312  -31.2134   11.3066 H         1 UNK         0.0813 
     96 H96       -55.1339  -29.2108   10.7503 H         1 UNK         0.0638 
     97 H97       -54.1244  -27.7996   10.8804 H         1 UNK         0.0638 
     98 H98       -56.4496  -27.1668   11.1366 H         1 UNK         0.0568 
     99 H99       -58.5287  -29.8785   12.1908 H         1 UNK         0.3450 
    100 H100      -57.6639  -29.2582   10.8097 H         1 UNK         0.3450 
    101 H101      -54.5729  -26.5624   13.1767 H         1 UNK         0.2987 
    102 H102      -54.7134  -24.1181   13.5776 H         1 UNK         0.0766 
    103 H103      -55.9333  -22.4123   14.8967 H         1 UNK         0.0798 
    104 H104      -57.4033  -23.3840   14.8355 H         1 UNK         0.0798 
    105 H105      -56.7294  -22.7100   13.3601 H         1 UNK         0.0798 
    106 H106      -54.1673  -24.8811   15.5877 H         1 UNK         0.3198 
    107 H107      -55.0308  -25.0094   18.1950 H         1 UNK         0.0843 
    108 H108      -56.3632  -27.7643   18.0764 H         1 UNK         0.0831 
    109 H109      -57.0177  -26.3220   18.8367 H         1 UNK         0.0831 
    110 H110      -55.5774  -27.0757   19.4976 H         1 UNK         0.0831 
    111 H111      -53.1206  -26.0858   17.9179 H         1 UNK         0.3133 
    112 H112      -51.9407  -28.4754   17.8687 H         1 UNK         0.0566 
    113 H113      -51.9147  -29.0317   14.8710 H         1 UNK         0.0814 
    114 H114      -50.7924  -29.6754   16.0609 H         1 UNK         0.0814 
    115 H115      -52.4819  -30.1548   16.1010 H         1 UNK         0.0814 
    116 H116      -50.8106  -27.0087   15.6125 H         1 UNK         0.3091 
    117 H117      -49.9873  -24.1375   17.6171 H         1 UNK         0.0702 
    118 H118      -47.7447  -24.6327   16.7035 H         1 UNK         0.0785 
    119 H119      -48.2505  -26.2629   16.2603 H         1 UNK         0.0785 
    120 H120      -48.1483  -25.7983   17.9529 H         1 UNK         0.0785 
    121 H121      -49.4859  -24.5082   14.8996 H         1 UNK         0.2998 
    122 H122      -52.5721  -23.1242   13.6480 H         1 UNK         0.0697 
    123 H123      -49.6137  -22.3295   13.7163 H         1 UNK         0.0825 
    124 H124      -50.9392  -21.3609   14.3496 H         1 UNK         0.0825 
    125 H125      -50.8424  -21.6951   12.6274 H         1 UNK         0.0825 
    126 H126      -50.3522  -24.1887   12.2370 H         1 UNK         0.3029 
    127 H127      -51.6483  -27.5153   11.7790 H         1 UNK         0.0897 
    128 H128      -52.4840  -26.1224    9.9486 H         1 UNK         0.0792 
    129 H129      -50.9054  -26.7372    9.4804 H         1 UNK         0.0792 
    130 H130      -51.0794  -25.0714   10.0134 H         1 UNK         0.0792 
    131 H131      -49.1224  -26.4861   11.1126 H         1 UNK         0.3086 
    132 H132      -47.4426  -27.1164   14.1748 H         1 UNK         0.0583 
    133 H133      -46.0332  -28.5963   12.9589 H         1 UNK         0.1020 
    134 H134      -47.5672  -29.3736   13.1672 H         1 UNK         0.1020 
    135 H135      -47.6865  -30.9268    9.8638 H         1 UNK         0.0694 
    136 H136      -48.0249  -30.9521   11.5668 H         1 UNK         0.0694 
    137 H137      -46.5829  -26.1905   11.5990 H         1 UNK         0.2989 
    138 H138      -46.9289  -22.7057   12.5035 H         1 UNK         0.1055 
    139 H139      -44.7313  -23.6380   13.2740 H         1 UNK         0.0806 
    140 H140      -44.5845  -22.8096   11.7344 H         1 UNK         0.0806 
    141 H141      -44.5983  -24.5719   11.7903 H         1 UNK         0.0806 
    142 H142      -46.1979  -23.7898   10.0109 H         1 UNK         0.3061 
    143 H143      -49.3151  -24.1479    8.4818 H         1 UNK         0.0734 
    144 H144      -49.3108  -21.6556    8.6067 H         1 UNK         0.0832 
    145 H145      -48.7030  -22.2099    7.0555 H         1 UNK         0.0832 
    146 H146      -47.5823  -21.6238    8.2863 H         1 UNK         0.0832 
    147 H147      -46.6978  -23.7886    7.3854 H         1 UNK         0.3156 
    148 H148      -45.0437  -25.5286    7.4505 H         1 UNK         0.0589 
    149 H149      -46.2872  -28.3303    7.6056 H         1 UNK         0.0808 
    150 H150      -44.6133  -27.9685    7.1823 H         1 UNK         0.0808 
    151 H151      -45.2109  -27.6080    8.7923 H         1 UNK         0.0808 
    152 H152      -46.5228  -27.1120    5.4877 H         1 UNK         0.3098 
    153 H153      -47.2347  -24.4667    3.2837 H         1 UNK         0.0720 
    154 H154      -46.0613  -25.8985    1.6228 H         1 UNK         0.0791 
    155 H155      -45.2025  -26.7392    2.9130 H         1 UNK         0.0791 
    156 H156      -44.8931  -25.0345    2.6091 H         1 UNK         0.0791 
    157 H157      -47.5857  -27.3536    3.2479 H         1 UNK         0.3028 
@<TRIPOS>BOND
     1    1    2 1    
     2    1   82 1    
     3    1   83 1    
     4    1   84 1    
     5    2    3 2    
     6    2    4 am   BACKBONE|DICT|INTERRES
     7    4    5 1    
     8    4   85 1    
     9    5    6 1    
    10    5   80 1    
    11    5   86 1    
    12    6    7 1    
    13    6   87 1    
    14    6   88 1    
    15    7    8 1    
    16    8    9 1    
    17    8   89 1    
    18    8   90 1    
    19    9   10 ar   
    20    9   14 ar   
    21   10   11 ar   
    22   10   91 1    
    23   11   12 ar   
    24   11   58 1    
    25   12   13 ar   
    26   12   92 1    
    27   13   14 ar   
    28   13   15 1    
    29   14   93 1    
    30   15   16 1    
    31   15   94 1    
    32   15   95 1    
    33   16   17 1    
    34   17   18 1    
    35   17   96 1    
    36   17   97 1    
    37   18   19 1    
    38   18   22 1    
    39   18   98 1    
    40   19   20 am   BACKBONE|DICT|INTERRES
    41   19   21 2    
    42   20   99 1    
    43   20  100 1    
    44   22   23 am   BACKBONE|DICT|INTERRES
    45   22  101 1    
    46   23   24 2    
    47   23   25 1    
    48   25   26 1    
    49   25   27 1    
    50   25  102 1    
    51   26  103 1    
    52   26  104 1    
    53   26  105 1    
    54   27   28 am   BACKBONE|DICT|INTERRES
    55   27  106 1    
    56   28   29 2    
    57   28   30 1    
    58   30   31 1    
    59   30   32 1    
    60   30  107 1    
    61   31  108 1    
    62   31  109 1    
    63   31  110 1    
    64   32   33 am   BACKBONE|DICT|INTERRES
    65   32  111 1    
    66   33   34 2    
    67   33   35 1    
    68   35   36 1    
    69   35   37 1    
    70   35  112 1    
    71   36  113 1    
    72   36  114 1    
    73   36  115 1    
    74   37   38 am   BACKBONE|DICT|INTERRES
    75   37  116 1    
    76   38   39 2    
    77   38   40 1    
    78   40   41 1    
    79   40   42 1    
    80   40  117 1    
    81   41  118 1    
    82   41  119 1    
    83   41  120 1    
    84   42   43 am   BACKBONE|DICT|INTERRES
    85   42  121 1    
    86   43   44 2    
    87   43   45 1    
    88   45   46 1    
    89   45   47 1    
    90   45  122 1    
    91   46  123 1    
    92   46  124 1    
    93   46  125 1    
    94   47   48 am   BACKBONE|DICT|INTERRES
    95   47  126 1    
    96   48   49 2    
    97   48   50 1    
    98   50   51 1    
    99   50   52 1    
   100   50  127 1    
   101   51  128 1    
   102   51  129 1    
   103   51  130 1    
   104   52   53 am   BACKBONE|DICT|INTERRES
   105   52  131 1    
   106   53   54 2    
   107   53   55 1    
   108   55   56 1    
   109   55   59 1    
   110   55  132 1    
   111   56   57 1    
   112   56  133 1    
   113   56  134 1    
   114   57   58 1    
   115   58  135 1    
   116   58  136 1    
   117   59   60 am   BACKBONE|DICT|INTERRES
   118   59  137 1    
   119   60   61 2    
   120   60   62 1    
   121   62   63 1    
   122   62   64 1    
   123   62  138 1    
   124   63  139 1    
   125   63  140 1    
   126   63  141 1    
   127   64   65 am   BACKBONE|DICT|INTERRES
   128   64  142 1    
   129   65   66 2    
   130   65   67 1    
   131   67   68 1    
   132   67   69 1    
   133   67  143 1    
   134   68  144 1    
   135   68  145 1    
   136   68  146 1    
   137   69   70 am   BACKBONE|DICT|INTERRES
   138   69  147 1    
   139   70   71 2    
   140   70   72 1    
   141   72   73 1    
   142   72   74 1    
   143   72  148 1    
   144   73  149 1    
   145   73  150 1    
   146   73  151 1    
   147   74   75 am   BACKBONE|DICT|INTERRES
   148   74  152 1    
   149   75   76 2    
   150   75   77 1    
   151   77   78 1    
   152   77   79 1    
   153   77  153 1    
   154   78  154 1    
   155   78  155 1    
   156   78  156 1    
   157   79   80 am   BACKBONE|DICT|INTERRES
   158   79  157 1    
   159   80   81 2    
@<TRIPOS>SUBSTRUCTURE
     1 UNK         1 GROUP             0       ****    0 ROOT    
