@<TRIPOS>MOLECULE
3R207
157   159    1
SMALL
USER_CHARGES


@<TRIPOS>ATOM
      1 CA        -53.5568  -25.0238    4.1056 C.3       0 UNK        -0.1975 
      2 C         -53.1498  -26.1407    3.1463 C.2       0 UNK         0.4852 
      3 O         -52.9873  -25.8791    1.9555 O.2       0 UNK        -0.5216 
      4 N         -52.9888  -27.3940    3.5966 N.am      1 UNK        -0.4461 
      5 CA        -53.0523  -27.8555    4.9870 C.3       1 UNK         0.0864 
      6 C6        -53.1301  -29.4033    5.0458 C.3       14 UNK        -0.0898 
      7 S7        -53.4723  -30.0426    6.7221 S.3       14 UNK        -0.2598 
      8 C8        -51.8577  -30.7778    7.1541 C.3       14 UNK         0.0286 
      9 C9        -51.6913  -31.0073    8.6532 C.ar      14 UNK        -0.0844 
     10 C10       -50.5143  -30.6042    9.2965 C.ar      14 UNK        -0.0881 
     11 C11       -50.3361  -30.8184   10.6706 C.ar      14 UNK        -0.0643 
     12 C12       -51.3616  -31.4317   11.3967 C.ar      14 UNK        -0.0930 
     13 C13       -52.5379  -31.8480   10.7675 C.ar      14 UNK        -0.0827 
     14 C14       -52.6888  -31.6500    9.3938 C.ar      14 UNK        -0.1249 
     15 C15       -53.6331  -32.5282   11.5741 C.3       14 UNK         0.0141 
     16 S16       -54.7896  -31.3157   12.2846 S.3       14 UNK        -0.2313 
     17 C17       -56.0025  -31.0853   10.9355 C.3       14 UNK        -0.0915 
     18 CA        -55.7709  -29.8162   10.0709 C.3       13 UNK         0.0968 
     19 C         -56.9218  -29.6461    9.0424 C.2       13 UNK         0.5732 
     20 N         -56.6948  -29.9896    7.7825 N.am      13 UNK        -0.7310 
     21 O         -58.0314  -29.2465    9.3916 O.2       13 UNK        -0.5035 
     22 N         -55.5729  -28.6259   10.9041 N.am      13 UNK        -0.4233 
     23 C         -55.2397  -27.4074   10.4627 C.2       13 UNK         0.4989 
     24 O         -55.1073  -27.1100    9.2742 O.2       13 UNK        -0.4996 
     25 CA        -54.9842  -26.3330   11.5365 C.3       12 UNK         0.0216 
     26 CB        -56.2497  -25.4910   11.7656 C.3       12 UNK        -0.1964 
     27 N         -54.5104  -26.8559   12.8250 N.am      12 UNK        -0.4276 
     28 C         -53.3599  -27.5184   13.0146 C.2       12 UNK         0.5020 
     29 O         -52.5723  -27.8027   12.1151 O.2       12 UNK        -0.5489 
     30 CA        -53.0043  -27.8505   14.4679 C.3       11 UNK         0.0294 
     31 CB        -51.9175  -28.9375   14.5736 C.3       11 UNK        -0.2019 
     32 N         -52.5108  -26.6262   15.0873 N.am      11 UNK        -0.4493 
     33 C         -53.2509  -25.7539   15.7820 C.2       11 UNK         0.4932 
     34 O         -54.4449  -25.9289   16.0322 O.2       11 UNK        -0.5029 
     35 CA        -52.5485  -24.4588   16.2396 C.3       10 UNK         0.0280 
     36 CB        -53.2353  -23.7942   17.4516 C.3       10 UNK        -0.1976 
     37 N         -51.1088  -24.6324   16.4695 N.am      10 UNK        -0.4242 
     38 C         -50.5148  -25.4156   17.3847 C.2       10 UNK         0.5072 
     39 O         -51.1280  -26.0521   18.2430 O.2       10 UNK        -0.5224 
     40 CA        -48.9792  -25.5487   17.3287 C.3       9 UNK         0.0343 
     41 CB        -48.5868  -26.9834   16.9354 C.3       9 UNK        -0.2003 
     42 N         -48.3332  -24.6130   16.4037 N.am      9 UNK        -0.4272 
     43 C         -48.1515  -23.3053   16.6363 C.2       9 UNK         0.4988 
     44 O         -48.4461  -22.7511   17.6956 O.2       9 UNK        -0.5108 
     45 CA        -47.5809  -22.4653   15.4786 C.3       8 UNK         0.0248 
     46 CB        -46.0459  -22.5342   15.4658 C.3       8 UNK        -0.2001 
     47 N         -48.1044  -22.8544   14.1640 N.am      8 UNK        -0.4140 
     48 C         -49.3967  -22.7981   13.8070 C.2       8 UNK         0.5028 
     49 O         -50.2925  -22.3818   14.5409 O.2       8 UNK        -0.5428 
     50 CA        -49.7663  -23.3593   12.4246 C.3       7 UNK         0.0264 
     51 CB        -49.4657  -22.3480   11.3072 C.3       7 UNK        -0.1988 
     52 N         -49.0903  -24.6258   12.1445 N.am      7 UNK        -0.4454 
     53 C         -49.3232  -25.7690   12.8067 C.2       7 UNK         0.5027 
     54 O         -50.1472  -25.8818   13.7144 O.2       7 UNK        -0.5083 
     55 CA        -48.4446  -26.9718   12.4188 C.3       6 UNK         0.0844 
     56 C56       -49.0051  -27.6620   11.1519 C.3       14 UNK        -0.0967 
     57 S57       -48.0441  -29.1272   10.6586 S.3       14 UNK        -0.2604 
     58 C58       -49.0361  -30.4686   11.3999 C.3       14 UNK         0.0134 
     59 N         -47.0388  -26.5701   12.2859 N.am      6 UNK        -0.4116 
     60 C         -46.2769  -26.1610   13.3117 C.2       5 UNK         0.5034 
     61 O         -46.6749  -26.0914   14.4736 O.2       5 UNK        -0.5045 
     62 CA        -44.8397  -25.7158   12.9958 C.3       5 UNK         0.0224 
     63 CB        -43.8902  -26.9241   13.0051 C.3       5 UNK        -0.1978 
     64 N         -44.7007  -24.9960   11.7277 N.am      5 UNK        -0.4737 
     65 C         -45.3316  -23.8588   11.4039 C.2       4 UNK         0.5027 
     66 O         -46.1340  -23.2889   12.1441 O.2       4 UNK        -0.5211 
     67 CA        -45.0501  -23.2671   10.0078 C.3       4 UNK         0.0297 
     68 CB        -43.8763  -23.9441    9.2629 C.3       4 UNK        -0.1993 
     69 N         -46.2427  -23.2579    9.1508 N.am      4 UNK        -0.4486 
     70 C         -47.0404  -24.2985    8.8752 C.2       3 UNK         0.4961 
     71 O         -46.9234  -25.4207    9.3808 O.2       3 UNK        -0.5105 
     72 CA        -48.1594  -24.0469    7.8569 C.3       3 UNK         0.0299 
     73 CB        -47.6049  -23.9614    6.4228 C.3       3 UNK        -0.1972 
     74 N         -49.0883  -25.1610    7.9698 N.am      3 UNK        -0.4305 
     75 C         -50.3655  -25.1934    7.5880 C.2       2 UNK         0.5006 
     76 O         -50.9456  -24.2781    6.9997 O.2       2 UNK        -0.5106 
     77 CA        -51.1340  -26.4525    8.0132 C.3       2 UNK         0.0296 
     78 CB        -51.8487  -26.1981    9.3450 C.3       2 UNK        -0.2002 
     79 N         -52.1240  -26.8974    7.0361 N.am      2 UNK        -0.4032 
     80 C         -51.8515  -27.3209    5.7957 C.2       1 UNK         0.5000 
     81 O         -50.7207  -27.3498    5.3025 O.2       1 UNK        -0.5238 
     82 H82       -54.3902  -25.3207    4.7407 H         1 UNK         0.0889 
     83 H83       -53.8737  -24.1430    3.5473 H         1 UNK         0.0889 
     84 H84       -52.7177  -24.7296    4.7356 H         1 UNK         0.0889 
     85 H85       -52.7018  -28.0974    2.9314 H         1 UNK         0.3028 
     86 H86       -53.9735  -27.4663    5.4249 H         1 UNK         0.0864 
     87 H87       -53.9395  -29.7527    4.4026 H         1 UNK         0.0720 
     88 H88       -52.2198  -29.8570    4.6485 H         1 UNK         0.0720 
     89 H89       -51.0631  -30.1259    6.7877 H         1 UNK         0.0814 
     90 H90       -51.7457  -31.7288    6.6319 H         1 UNK         0.0814 
     91 H91       -49.7284  -30.1401    8.7181 H         1 UNK         0.1469 
     92 H92       -51.2384  -31.6016   12.4575 H         1 UNK         0.1381 
     93 H93       -53.5916  -31.9848    8.9021 H         1 UNK         0.1206 
     94 H94       -54.1694  -33.2556   10.9632 H         1 UNK         0.0813 
     95 H95       -53.1851  -33.0975   12.3898 H         1 UNK         0.0813 
     96 H96       -56.0116  -31.9743   10.3028 H         1 UNK         0.0638 
     97 H97       -56.9881  -31.0446   11.4034 H         1 UNK         0.0638 
     98 H98       -54.8416  -29.9497    9.5174 H         1 UNK         0.0568 
     99 H99       -55.7776  -30.2863    7.4821 H         1 UNK         0.3450 
    100 H100      -57.4389  -29.9001    7.1092 H         1 UNK         0.3450 
    101 H101      -55.6454  -28.7735   11.8985 H         1 UNK         0.2987 
    102 H102      -54.2043  -25.6735   11.1516 H         1 UNK         0.0766 
    103 H103      -56.0579  -24.6606   12.4454 H         1 UNK         0.0798 
    104 H104      -57.0621  -26.0878   12.1824 H         1 UNK         0.0798 
    105 H105      -56.6082  -25.0630   10.8282 H         1 UNK         0.0798 
    106 H106      -55.0663  -26.6318   13.6397 H         1 UNK         0.3198 
    107 H107      -53.9005  -28.2117   14.9772 H         1 UNK         0.0843 
    108 H108      -50.9885  -28.6330   14.0894 H         1 UNK         0.0831 
    109 H109      -52.2474  -29.8604   14.0949 H         1 UNK         0.0831 
    110 H110      -51.6910  -29.1706   15.6139 H         1 UNK         0.0831 
    111 H111      -51.5711  -26.3470   14.8087 H         1 UNK         0.3133 
    112 H112      -52.6300  -23.7667   15.4004 H         1 UNK         0.0566 
    113 H113      -52.7195  -22.8806   17.7473 H         1 UNK         0.0814 
    114 H114      -54.2648  -23.5217   17.2161 H         1 UNK         0.0814 
    115 H115      -53.2666  -24.4581   18.3159 H         1 UNK         0.0814 
    116 H116      -50.5140  -24.1422   15.8114 H         1 UNK         0.3091 
    117 H117      -48.6004  -25.3556   18.3345 H         1 UNK         0.0702 
    118 H118      -49.0168  -27.7129   17.6229 H         1 UNK         0.0785 
    119 H119      -48.9357  -27.2344   15.9327 H         1 UNK         0.0785 
    120 H120      -47.5052  -27.1186   16.9569 H         1 UNK         0.0785 
    121 H121      -47.9904  -25.0074   15.5328 H         1 UNK         0.2998 
    122 H122      -47.8728  -21.4271   15.6498 H         1 UNK         0.0697 
    123 H123      -45.6907  -23.5521   15.3059 H         1 UNK         0.0825 
    124 H124      -45.6321  -22.1900   16.4146 H         1 UNK         0.0825 
    125 H125      -45.6257  -21.9053   14.6807 H         1 UNK         0.0825 
    126 H126      -47.4225  -23.1599   13.4715 H         1 UNK         0.3029 
    127 H127      -50.8420  -23.5503   12.4259 H         1 UNK         0.0897 
    128 H128      -49.8171  -22.7116   10.3416 H         1 UNK         0.0792 
    129 H129      -48.3992  -22.1378   11.2217 H         1 UNK         0.0792 
    130 H130      -49.9697  -21.3993   11.4968 H         1 UNK         0.0792 
    131 H131      -48.3386  -24.6053   11.4698 H         1 UNK         0.3086 
    132 H132      -48.5031  -27.6898   13.2399 H         1 UNK         0.0583 
    133 H133      -50.0474  -27.9538   11.3000 H         1 UNK         0.1020 
    134 H134      -49.0019  -26.9715   10.3098 H         1 UNK         0.1020 
    135 H135      -48.4182  -31.3667   11.4321 H         1 UNK         0.0694 
    136 H136      -49.2482  -30.2054   12.4377 H         1 UNK         0.0694 
    137 H137      -46.6550  -26.5570   11.3489 H         1 UNK         0.2989 
    138 H138      -44.5302  -25.0349   13.7910 H         1 UNK         0.1055 
    139 H139      -42.8515  -26.6149   12.8863 H         1 UNK         0.0806 
    140 H140      -44.1251  -27.6301   12.2073 H         1 UNK         0.0806 
    141 H141      -43.9580  -27.4659   13.9498 H         1 UNK         0.0806 
    142 H142      -44.0835  -25.4040   11.0404 H         1 UNK         0.3061 
    143 H143      -44.7774  -22.2239   10.1749 H         1 UNK         0.0734 
    144 H144      -43.6604  -23.4267    8.3280 H         1 UNK         0.0832 
    145 H145      -42.9606  -23.9177    9.8553 H         1 UNK         0.0832 
    146 H146      -44.0888  -24.9851    9.0156 H         1 UNK         0.0832 
    147 H147      -46.4539  -22.3702    8.7160 H         1 UNK         0.3156 
    148 H148      -48.6729  -23.1192    8.1169 H         1 UNK         0.0589 
    149 H149      -47.0778  -24.8741    6.1413 H         1 UNK         0.0808 
    150 H150      -48.4024  -23.8004    5.6971 H         1 UNK         0.0808 
    151 H151      -46.9035  -23.1329    6.3184 H         1 UNK         0.0808 
    152 H152      -48.6851  -25.9464    8.4670 H         1 UNK         0.3098 
    153 H153      -50.4243  -27.2715    8.1502 H         1 UNK         0.0720 
    154 H154      -52.3151  -27.1144    9.7031 H         1 UNK         0.0791 
    155 H155      -52.6263  -25.4399    9.2453 H         1 UNK         0.0791 
    156 H156      -51.1616  -25.8569   10.1194 H         1 UNK         0.0791 
    157 H157      -53.0804  -26.9252    7.3623 H         1 UNK         0.3028 
@<TRIPOS>BOND
     1    1    2 1    
     2    1   82 1    
     3    1   83 1    
     4    1   84 1    
     5    2    3 2    
     6    2    4 am   BACKBONE|DICT|INTERRES
     7    4    5 1    
     8    4   85 1    
     9    5    6 1    
    10    5   80 1    
    11    5   86 1    
    12    6    7 1    
    13    6   87 1    
    14    6   88 1    
    15    7    8 1    
    16    8    9 1    
    17    8   89 1    
    18    8   90 1    
    19    9   10 ar   
    20    9   14 ar   
    21   10   11 ar   
    22   10   91 1    
    23   11   12 ar   
    24   11   58 1    
    25   12   13 ar   
    26   12   92 1    
    27   13   14 ar   
    28   13   15 1    
    29   14   93 1    
    30   15   16 1    
    31   15   94 1    
    32   15   95 1    
    33   16   17 1    
    34   17   18 1    
    35   17   96 1    
    36   17   97 1    
    37   18   19 1    
    38   18   22 1    
    39   18   98 1    
    40   19   20 am   BACKBONE|DICT|INTERRES
    41   19   21 2    
    42   20   99 1    
    43   20  100 1    
    44   22   23 am   BACKBONE|DICT|INTERRES
    45   22  101 1    
    46   23   24 2    
    47   23   25 1    
    48   25   26 1    
    49   25   27 1    
    50   25  102 1    
    51   26  103 1    
    52   26  104 1    
    53   26  105 1    
    54   27   28 am   BACKBONE|DICT|INTERRES
    55   27  106 1    
    56   28   29 2    
    57   28   30 1    
    58   30   31 1    
    59   30   32 1    
    60   30  107 1    
    61   31  108 1    
    62   31  109 1    
    63   31  110 1    
    64   32   33 am   BACKBONE|DICT|INTERRES
    65   32  111 1    
    66   33   34 2    
    67   33   35 1    
    68   35   36 1    
    69   35   37 1    
    70   35  112 1    
    71   36  113 1    
    72   36  114 1    
    73   36  115 1    
    74   37   38 am   BACKBONE|DICT|INTERRES
    75   37  116 1    
    76   38   39 2    
    77   38   40 1    
    78   40   41 1    
    79   40   42 1    
    80   40  117 1    
    81   41  118 1    
    82   41  119 1    
    83   41  120 1    
    84   42   43 am   BACKBONE|DICT|INTERRES
    85   42  121 1    
    86   43   44 2    
    87   43   45 1    
    88   45   46 1    
    89   45   47 1    
    90   45  122 1    
    91   46  123 1    
    92   46  124 1    
    93   46  125 1    
    94   47   48 am   BACKBONE|DICT|INTERRES
    95   47  126 1    
    96   48   49 2    
    97   48   50 1    
    98   50   51 1    
    99   50   52 1    
   100   50  127 1    
   101   51  128 1    
   102   51  129 1    
   103   51  130 1    
   104   52   53 am   BACKBONE|DICT|INTERRES
   105   52  131 1    
   106   53   54 2    
   107   53   55 1    
   108   55   56 1    
   109   55   59 1    
   110   55  132 1    
   111   56   57 1    
   112   56  133 1    
   113   56  134 1    
   114   57   58 1    
   115   58  135 1    
   116   58  136 1    
   117   59   60 am   BACKBONE|DICT|INTERRES
   118   59  137 1    
   119   60   61 2    
   120   60   62 1    
   121   62   63 1    
   122   62   64 1    
   123   62  138 1    
   124   63  139 1    
   125   63  140 1    
   126   63  141 1    
   127   64   65 am   BACKBONE|DICT|INTERRES
   128   64  142 1    
   129   65   66 2    
   130   65   67 1    
   131   67   68 1    
   132   67   69 1    
   133   67  143 1    
   134   68  144 1    
   135   68  145 1    
   136   68  146 1    
   137   69   70 am   BACKBONE|DICT|INTERRES
   138   69  147 1    
   139   70   71 2    
   140   70   72 1    
   141   72   73 1    
   142   72   74 1    
   143   72  148 1    
   144   73  149 1    
   145   73  150 1    
   146   73  151 1    
   147   74   75 am   BACKBONE|DICT|INTERRES
   148   74  152 1    
   149   75   76 2    
   150   75   77 1    
   151   77   78 1    
   152   77   79 1    
   153   77  153 1    
   154   78  154 1    
   155   78  155 1    
   156   78  156 1    
   157   79   80 am   BACKBONE|DICT|INTERRES
   158   79  157 1    
   159   80   81 2    
@<TRIPOS>SUBSTRUCTURE
     1 UNK         1 GROUP             0       ****    0 ROOT    
