@<TRIPOS>MOLECULE
3R207
157   159    1
SMALL
USER_CHARGES


@<TRIPOS>ATOM
      1 CA        -45.0682  -29.9176    2.1987 C.3       0 UNK        -0.1975 
      2 C         -46.3393  -29.2640    2.7213 C.2       0 UNK         0.4852 
      3 O         -47.2162  -28.9156    1.9297 O.2       0 UNK        -0.5216 
      4 N         -46.4456  -29.1003    4.0480 N.am      1 UNK        -0.4461 
      5 CA        -47.5815  -28.4718    4.7335 C.3       1 UNK         0.0864 
      6 C6        -47.5193  -28.7458    6.2632 C.3       14 UNK        -0.0898 
      7 S7        -48.7874  -27.9166    7.2864 S.3       14 UNK        -0.2598 
      8 C8        -50.2387  -28.9665    6.9605 C.3       14 UNK         0.0286 
      9 C9        -51.4213  -28.5779    7.8377 C.ar      14 UNK        -0.0844 
     10 C10       -52.0323  -27.3302    7.6818 C.ar      14 UNK        -0.0881 
     11 C11       -53.1133  -26.9618    8.4895 C.ar      14 UNK        -0.0643 
     12 C12       -53.6062  -27.8658    9.4332 C.ar      14 UNK        -0.0930 
     13 C13       -53.0060  -29.1170    9.5984 C.ar      14 UNK        -0.0827 
     14 C14       -51.9133  -29.4671    8.7990 C.ar      14 UNK        -0.1249 
     15 C15       -53.5531  -30.0935   10.6278 C.3       14 UNK         0.0141 
     16 S16       -53.3669  -29.4649   12.3258 S.3       14 UNK        -0.2313 
     17 C17       -54.1312  -30.8314   13.2612 C.3       14 UNK        -0.0915 
     18 CA        -55.6709  -30.6550   13.4370 C.3       13 UNK         0.0968 
     19 C         -56.4034  -31.9063   14.0172 C.2       13 UNK         0.5732 
     20 N         -55.8779  -33.1115   13.8336 N.am      13 UNK        -0.7310 
     21 O         -57.4898  -31.8027   14.5859 O.2       13 UNK        -0.5035 
     22 N         -56.0232  -29.4077   14.1358 N.am      13 UNK        -0.4233 
     23 C         -55.8222  -29.1355   15.4310 C.2       13 UNK         0.4989 
     24 O         -55.2455  -29.8912   16.2161 O.2       13 UNK        -0.4996 
     25 CA        -56.3520  -27.7742   15.9183 C.3       12 UNK         0.0216 
     26 CB        -56.2872  -27.6213   17.4495 C.3       12 UNK        -0.1964 
     27 N         -55.6312  -26.6658   15.2858 N.am      12 UNK        -0.4276 
     28 C         -55.8908  -26.1896   14.0588 C.2       12 UNK         0.5020 
     29 O         -56.7663  -26.6695   13.3349 O.2       12 UNK        -0.5489 
     30 CA        -55.0418  -25.0226   13.5114 C.3       11 UNK         0.0294 
     31 CB        -55.9229  -23.8741   12.9799 C.3       11 UNK        -0.2019 
     32 N         -54.0073  -24.5123   14.4185 N.am      11 UNK        -0.4493 
     33 C         -54.1387  -23.8868   15.5970 C.2       11 UNK         0.4932 
     34 O         -55.2191  -23.5970   16.1124 O.2       11 UNK        -0.5029 
     35 CA        -52.8132  -23.6016   16.3367 C.3       10 UNK         0.0280 
     36 CB        -53.0171  -23.1130   17.7862 C.3       10 UNK        -0.1976 
     37 N         -51.9076  -24.7602   16.2908 N.am      10 UNK        -0.4242 
     38 C         -52.1721  -26.0006   16.7310 C.2       10 UNK         0.5072 
     39 O         -53.1863  -26.2926   17.3634 O.2       10 UNK        -0.5224 
     40 CA        -51.1969  -27.1294   16.3540 C.3       9 UNK         0.0343 
     41 CB        -51.8894  -28.1144   15.3981 C.3       9 UNK        -0.2003 
     42 N         -49.9594  -26.6567   15.7285 N.am      9 UNK        -0.4272 
     43 C         -48.8905  -26.2201   16.4085 C.2       9 UNK         0.4988 
     44 O         -48.8348  -26.1695   17.6378 O.2       9 UNK        -0.5108 
     45 CA        -47.6803  -25.7509   15.5818 C.3       8 UNK         0.0248 
     46 CB        -46.8554  -26.9548   15.1005 C.3       8 UNK        -0.2001 
     47 N         -48.0445  -24.9074   14.4391 N.am      8 UNK        -0.4140 
     48 C         -48.6389  -23.7088   14.5427 C.2       8 UNK         0.5028 
     49 O         -48.9479  -23.1841   15.6130 O.2       8 UNK        -0.5428 
     50 CA        -48.9766  -22.9799   13.2329 C.3       7 UNK         0.0264 
     51 CB        -47.7301  -22.2970   12.6476 C.3       7 UNK        -0.1988 
     52 N         -49.5690  -23.8601   12.2267 N.am      7 UNK        -0.4454 
     53 C         -50.7349  -24.5079   12.3628 C.2       7 UNK         0.5027 
     54 O         -51.4546  -24.4259   13.3565 O.2       7 UNK        -0.5083 
     55 CA        -51.1353  -25.4451   11.2091 C.3       6 UNK         0.0844 
     56 C56       -51.5869  -24.6358    9.9596 C.3       14 UNK        -0.0967 
     57 S57       -53.4041  -24.5407    9.8293 S.3       14 UNK        -0.2604 
     58 C58       -53.7315  -25.5764    8.3629 C.3       14 UNK         0.0134 
     59 N         -50.0631  -26.3986   10.9113 N.am      6 UNK        -0.4116 
     60 C         -49.5352  -27.2716   11.7841 C.2       5 UNK         0.5034 
     61 O         -49.9330  -27.4277   12.9373 O.2       5 UNK        -0.5045 
     62 CA        -48.2984  -28.0531   11.3156 C.3       5 UNK         0.0224 
     63 CB        -48.6954  -29.3947   10.6839 C.3       5 UNK        -0.1978 
     64 N         -47.4712  -27.2741   10.3891 N.am      5 UNK        -0.4737 
     65 C         -46.7575  -26.2026   10.7636 C.2       4 UNK         0.5027 
     66 O         -46.6990  -25.7912   11.9232 O.2       4 UNK        -0.5211 
     67 CA        -46.0286  -25.4381    9.6489 C.3       4 UNK         0.0297 
     68 CB        -44.8234  -26.2388    9.1296 C.3       4 UNK        -0.1993 
     69 N         -46.8996  -25.0782    8.5266 N.am      4 UNK        -0.4486 
     70 C         -47.9713  -24.2763    8.5997 C.2       3 UNK         0.4961 
     71 O         -48.3998  -23.8213    9.6598 O.2       3 UNK        -0.5105 
     72 CA        -48.7197  -23.9360    7.2928 C.3       3 UNK         0.0299 
     73 CB        -49.0549  -22.4333    7.2042 C.3       3 UNK        -0.1972 
     74 N         -48.0765  -24.4033    6.0574 N.am      3 UNK        -0.4305 
     75 C         -46.8939  -24.0514    5.5313 C.2       2 UNK         0.5006 
     76 O         -46.1360  -23.2252    6.0409 O.2       2 UNK        -0.5106 
     77 CA        -46.4745  -24.7975    4.2439 C.3       2 UNK         0.0296 
     78 CB        -45.0527  -24.4290    3.7793 C.3       2 UNK        -0.2002 
     79 N         -46.5593  -26.2554    4.3990 N.am      2 UNK        -0.4032 
     80 C         -47.6958  -26.9684    4.4023 C.2       1 UNK         0.5000 
     81 O         -48.8056  -26.4712    4.1972 O.2       1 UNK        -0.5238 
     82 H82       -44.3870  -30.1902    3.0049 H         1 UNK         0.0889 
     83 H83       -44.5448  -29.2363    1.5283 H         1 UNK         0.0889 
     84 H84       -45.3131  -30.8221    1.6422 H         1 UNK         0.0889 
     85 H85       -45.6966  -29.4270    4.6427 H         1 UNK         0.3028 
     86 H86       -48.4896  -28.9434    4.3512 H         1 UNK         0.0864 
     87 H87       -47.5774  -29.8198    6.4475 H         1 UNK         0.0720 
     88 H88       -46.5488  -28.4352    6.6544 H         1 UNK         0.0720 
     89 H89       -49.9700  -30.0117    7.1208 H         1 UNK         0.0814 
     90 H90       -50.5236  -28.8748    5.9115 H         1 UNK         0.0814 
     91 H91       -51.6481  -26.6392    6.9438 H         1 UNK         0.1469 
     92 H92       -54.4430  -27.5848   10.0584 H         1 UNK         0.1381 
     93 H93       -51.4471  -30.4350    8.9231 H         1 UNK         0.1206 
     94 H94       -54.6086  -30.2739   10.4204 H         1 UNK         0.0813 
     95 H95       -53.0501  -31.0583   10.5470 H         1 UNK         0.0813 
     96 H96       -53.6403  -30.8970   14.2333 H         1 UNK         0.0638 
     97 H97       -53.8934  -31.7600   12.7412 H         1 UNK         0.0638 
     98 H98       -56.0980  -30.5447   12.4401 H         1 UNK         0.0568 
     99 H99       -56.3684  -33.9165   14.1908 H         1 UNK         0.3450 
    100 H100      -55.0005  -33.2323   13.3538 H         1 UNK         0.3450 
    101 H101      -56.4818  -28.6958   13.5775 H         1 UNK         0.2987 
    102 H102      -57.4055  -27.7160   15.6357 H         1 UNK         0.0766 
    103 H103      -56.6565  -26.6464   17.7688 H         1 UNK         0.0798 
    104 H104      -55.2719  -27.7360   17.8289 H         1 UNK         0.0798 
    105 H105      -56.9008  -28.3779   17.9399 H         1 UNK         0.0798 
    106 H106      -54.8797  -26.2526   15.8250 H         1 UNK         0.3198 
    107 H107      -54.4983  -25.4358   12.6600 H         1 UNK         0.0843 
    108 H108      -56.5355  -23.4337   13.7670 H         1 UNK         0.0831 
    109 H109      -56.6004  -24.2289   12.2022 H         1 UNK         0.0831 
    110 H110      -55.3168  -23.0823   12.5395 H         1 UNK         0.0831 
    111 H111      -53.0502  -24.6391   14.0850 H         1 UNK         0.3133 
    112 H112      -52.3161  -22.8035   15.7833 H         1 UNK         0.0566 
    113 H113      -52.0631  -22.9101   18.2729 H         1 UNK         0.0814 
    114 H114      -53.5953  -22.1884   17.8073 H         1 UNK         0.0814 
    115 H115      -53.5538  -23.8444   18.3911 H         1 UNK         0.0814 
    116 H116      -51.0644  -24.6289   15.7463 H         1 UNK         0.3091 
    117 H117      -50.9489  -27.6675   17.2713 H         1 UNK         0.0702 
    118 H118      -52.7704  -28.5600   15.8613 H         1 UNK         0.0785 
    119 H119      -51.2262  -28.9317   15.1144 H         1 UNK         0.0785 
    120 H120      -52.2179  -27.6192   14.4833 H         1 UNK         0.0785 
    121 H121      -49.9146  -26.7193   14.7134 H         1 UNK         0.2998 
    122 H122      -47.0464  -25.1507   16.2379 H         1 UNK         0.0697 
    123 H123      -47.4367  -27.6049   14.4471 H         1 UNK         0.0825 
    124 H124      -46.5189  -27.5589   15.9441 H         1 UNK         0.0825 
    125 H125      -45.9671  -26.6368   14.5542 H         1 UNK         0.0825 
    126 H126      -47.7810  -25.2433   13.5165 H         1 UNK         0.3029 
    127 H127      -49.7116  -22.2066   13.4664 H         1 UNK         0.0897 
    128 H128      -47.9808  -21.7052   11.7669 H         1 UNK         0.0792 
    129 H129      -47.2752  -21.6226   13.3742 H         1 UNK         0.0792 
    130 H130      -46.9715  -23.0238   12.3536 H         1 UNK         0.0792 
    131 H131      -49.0542  -23.9608   11.3522 H         1 UNK         0.3086 
    132 H132      -51.9704  -26.0544   11.5631 H         1 UNK         0.0583 
    133 H133      -51.1910  -23.6177    9.9515 H         1 UNK         0.1020 
    134 H134      -51.1930  -25.0821    9.0485 H         1 UNK         0.1020 
    135 H135      -54.8099  -25.6721    8.2293 H         1 UNK         0.0694 
    136 H136      -53.3560  -25.0634    7.4761 H         1 UNK         0.0694 
    137 H137      -49.6434  -26.3405    9.9968 H         1 UNK         0.2989 
    138 H138      -47.6957  -28.2709   12.1994 H         1 UNK         0.1055 
    139 H139      -47.8192  -29.9744   10.3936 H         1 UNK         0.0806 
    140 H140      -49.3154  -29.2572    9.8012 H         1 UNK         0.0806 
    141 H141      -49.2685  -29.9998   11.3879 H         1 UNK         0.0806 
    142 H142      -47.4956  -27.5350    9.4122 H         1 UNK         0.3061 
    143 H143      -45.6554  -24.5078   10.0828 H         1 UNK         0.0734 
    144 H144      -44.2374  -25.6558    8.4187 H         1 UNK         0.0832 
    145 H145      -44.1559  -26.5120    9.9483 H         1 UNK         0.0832 
    146 H146      -45.1280  -27.1625    8.6360 H         1 UNK         0.0832 
    147 H147      -46.6246  -25.4044    7.6131 H         1 UNK         0.3156 
    148 H148      -49.6640  -24.4782    7.3439 H         1 UNK         0.0589 
    149 H149      -48.1548  -21.8178    7.2009 H         1 UNK         0.0808 
    150 H150      -49.6215  -22.2052    6.3014 H         1 UNK         0.0808 
    151 H151      -49.6613  -22.1144    8.0530 H         1 UNK         0.0808 
    152 H152      -48.5962  -25.1089    5.5392 H         1 UNK         0.3098 
    153 H153      -47.1684  -24.4902    3.4583 H         1 UNK         0.0720 
    154 H154      -44.7979  -24.9311    2.8456 H         1 UNK         0.0791 
    155 H155      -44.3011  -24.6991    4.5224 H         1 UNK         0.0791 
    156 H156      -44.9648  -23.3563    3.6010 H         1 UNK         0.0791 
    157 H157      -45.6923  -26.7401    4.5805 H         1 UNK         0.3028 
@<TRIPOS>BOND
     1    1    2 1    
     2    1   82 1    
     3    1   83 1    
     4    1   84 1    
     5    2    3 2    
     6    2    4 am   BACKBONE|DICT|INTERRES
     7    4    5 1    
     8    4   85 1    
     9    5    6 1    
    10    5   80 1    
    11    5   86 1    
    12    6    7 1    
    13    6   87 1    
    14    6   88 1    
    15    7    8 1    
    16    8    9 1    
    17    8   89 1    
    18    8   90 1    
    19    9   10 ar   
    20    9   14 ar   
    21   10   11 ar   
    22   10   91 1    
    23   11   12 ar   
    24   11   58 1    
    25   12   13 ar   
    26   12   92 1    
    27   13   14 ar   
    28   13   15 1    
    29   14   93 1    
    30   15   16 1    
    31   15   94 1    
    32   15   95 1    
    33   16   17 1    
    34   17   18 1    
    35   17   96 1    
    36   17   97 1    
    37   18   19 1    
    38   18   22 1    
    39   18   98 1    
    40   19   20 am   BACKBONE|DICT|INTERRES
    41   19   21 2    
    42   20   99 1    
    43   20  100 1    
    44   22   23 am   BACKBONE|DICT|INTERRES
    45   22  101 1    
    46   23   24 2    
    47   23   25 1    
    48   25   26 1    
    49   25   27 1    
    50   25  102 1    
    51   26  103 1    
    52   26  104 1    
    53   26  105 1    
    54   27   28 am   BACKBONE|DICT|INTERRES
    55   27  106 1    
    56   28   29 2    
    57   28   30 1    
    58   30   31 1    
    59   30   32 1    
    60   30  107 1    
    61   31  108 1    
    62   31  109 1    
    63   31  110 1    
    64   32   33 am   BACKBONE|DICT|INTERRES
    65   32  111 1    
    66   33   34 2    
    67   33   35 1    
    68   35   36 1    
    69   35   37 1    
    70   35  112 1    
    71   36  113 1    
    72   36  114 1    
    73   36  115 1    
    74   37   38 am   BACKBONE|DICT|INTERRES
    75   37  116 1    
    76   38   39 2    
    77   38   40 1    
    78   40   41 1    
    79   40   42 1    
    80   40  117 1    
    81   41  118 1    
    82   41  119 1    
    83   41  120 1    
    84   42   43 am   BACKBONE|DICT|INTERRES
    85   42  121 1    
    86   43   44 2    
    87   43   45 1    
    88   45   46 1    
    89   45   47 1    
    90   45  122 1    
    91   46  123 1    
    92   46  124 1    
    93   46  125 1    
    94   47   48 am   BACKBONE|DICT|INTERRES
    95   47  126 1    
    96   48   49 2    
    97   48   50 1    
    98   50   51 1    
    99   50   52 1    
   100   50  127 1    
   101   51  128 1    
   102   51  129 1    
   103   51  130 1    
   104   52   53 am   BACKBONE|DICT|INTERRES
   105   52  131 1    
   106   53   54 2    
   107   53   55 1    
   108   55   56 1    
   109   55   59 1    
   110   55  132 1    
   111   56   57 1    
   112   56  133 1    
   113   56  134 1    
   114   57   58 1    
   115   58  135 1    
   116   58  136 1    
   117   59   60 am   BACKBONE|DICT|INTERRES
   118   59  137 1    
   119   60   61 2    
   120   60   62 1    
   121   62   63 1    
   122   62   64 1    
   123   62  138 1    
   124   63  139 1    
   125   63  140 1    
   126   63  141 1    
   127   64   65 am   BACKBONE|DICT|INTERRES
   128   64  142 1    
   129   65   66 2    
   130   65   67 1    
   131   67   68 1    
   132   67   69 1    
   133   67  143 1    
   134   68  144 1    
   135   68  145 1    
   136   68  146 1    
   137   69   70 am   BACKBONE|DICT|INTERRES
   138   69  147 1    
   139   70   71 2    
   140   70   72 1    
   141   72   73 1    
   142   72   74 1    
   143   72  148 1    
   144   73  149 1    
   145   73  150 1    
   146   73  151 1    
   147   74   75 am   BACKBONE|DICT|INTERRES
   148   74  152 1    
   149   75   76 2    
   150   75   77 1    
   151   77   78 1    
   152   77   79 1    
   153   77  153 1    
   154   78  154 1    
   155   78  155 1    
   156   78  156 1    
   157   79   80 am   BACKBONE|DICT|INTERRES
   158   79  157 1    
   159   80   81 2    
@<TRIPOS>SUBSTRUCTURE
     1 UNK         1 GROUP             0       ****    0 ROOT    
