@<TRIPOS>MOLECULE
3R207
157   159    1
SMALL
USER_CHARGES


@<TRIPOS>ATOM
      1 CA        -54.3101  -32.4303    4.4238 C.3       0 UNK        -0.1975 
      2 C         -53.4210  -31.6004    5.3387 C.2       0 UNK         0.4852 
      3 O         -53.1521  -32.0151    6.4661 O.2       0 UNK        -0.5216 
      4 N         -52.9748  -30.4347    4.8608 N.am      1 UNK        -0.4461 
      5 CA        -52.1415  -29.4706    5.5774 C.3       1 UNK         0.0864 
      6 C6        -50.6201  -29.7781    5.4400 C.3       14 UNK        -0.0898 
      7 S7        -49.9406  -30.5816    6.9257 S.3       14 UNK        -0.2598 
      8 C8        -49.3055  -29.1404    7.8390 C.3       14 UNK         0.0286 
      9 C9        -48.6481  -29.5713    9.1398 C.ar      14 UNK        -0.0844 
     10 C10       -47.2702  -29.8020    9.1926 C.ar      14 UNK        -0.0881 
     11 C11       -46.6668  -30.2178   10.3829 C.ar      14 UNK        -0.0643 
     12 C12       -47.4512  -30.3842   11.5289 C.ar      14 UNK        -0.0930 
     13 C13       -48.8301  -30.1533   11.4911 C.ar      14 UNK        -0.0827 
     14 C14       -49.4225  -29.7545   10.2889 C.ar      14 UNK        -0.1249 
     15 C15       -49.6745  -30.3920   12.7381 C.3       14 UNK         0.0141 
     16 S16       -50.5335  -28.8920   13.3170 S.3       14 UNK        -0.2313 
     17 C17       -52.1702  -29.0472   12.5147 C.3       14 UNK        -0.0915 
     18 CA        -52.5649  -27.8066   11.6713 C.3       13 UNK         0.0968 
     19 C         -53.8637  -28.0768   10.8626 C.2       13 UNK         0.5732 
     20 N         -55.0228  -27.5691   11.2626 N.am      13 UNK        -0.7310 
     21 O         -53.8149  -28.7618    9.8438 O.2       13 UNK        -0.5035 
     22 N         -52.5835  -26.5808   12.4818 N.am      13 UNK        -0.4233 
     23 C         -52.5513  -25.3397   11.9830 C.2       13 UNK         0.4989 
     24 O         -52.6078  -25.0791   10.7807 O.2       13 UNK        -0.4996 
     25 CA        -52.3981  -24.2067   13.0124 C.3       12 UNK         0.0216 
     26 CB        -52.0350  -22.8480   12.3760 C.3       12 UNK        -0.1964 
     27 N         -53.5631  -24.0876   13.8922 N.am      12 UNK        -0.4276 
     28 C         -54.8259  -23.7984   13.5481 C.2       12 UNK         0.5020 
     29 O         -55.1927  -23.5188   12.4053 O.2       12 UNK        -0.5489 
     30 CA        -55.8514  -23.8492   14.6987 C.3       11 UNK         0.0294 
     31 CB        -57.2985  -23.5758   14.2343 C.3       11 UNK        -0.2019 
     32 N         -55.7766  -25.1085   15.4518 N.am      11 UNK        -0.4493 
     33 C         -55.9254  -26.3510   14.9640 C.2       11 UNK         0.4932 
     34 O         -56.1959  -26.6042   13.7895 O.2       11 UNK        -0.5029 
     35 CA        -55.7033  -27.5015   15.9678 C.3       10 UNK         0.0280 
     36 CB        -55.6477  -28.8860   15.2880 C.3       10 UNK        -0.1976 
     37 N         -54.5225  -27.2968   16.8190 N.am      10 UNK        -0.4242 
     38 C         -53.2631  -27.0880   16.4069 C.2       10 UNK         0.5072 
     39 O         -52.9101  -27.0711   15.2268 O.2       10 UNK        -0.5224 
     40 CA        -52.2202  -26.8576   17.5132 C.3       9 UNK         0.0343 
     41 CB        -51.5450  -28.1872   17.8868 C.3       9 UNK        -0.2003 
     42 N         -51.1833  -25.8952   17.1322 N.am      9 UNK        -0.4272 
     43 C         -51.3803  -24.6377   16.7082 C.2       9 UNK         0.4988 
     44 O         -52.4931  -24.1180   16.5976 O.2       9 UNK        -0.5108 
     45 CA        -50.1307  -23.8052   16.3577 C.3       8 UNK         0.0248 
     46 CB        -49.9362  -22.6754   17.3827 C.3       8 UNK        -0.2001 
     47 N         -48.8997  -24.6011   16.2854 N.am      8 UNK        -0.4140 
     48 C         -48.5432  -25.3583   15.2400 C.2       8 UNK         0.5028 
     49 O         -49.1867  -25.4394   14.1921 O.2       8 UNK        -0.5428 
     50 CA        -47.2694  -26.1916   15.4150 C.3       7 UNK         0.0264 
     51 CB        -47.5563  -27.4662   16.2300 C.3       7 UNK        -0.1988 
     52 N         -46.7698  -26.5672   14.0972 N.am      7 UNK        -0.4454 
     53 C         -45.4806  -26.6728   13.7520 C.2       7 UNK         0.5027 
     54 O         -44.5521  -26.4863   14.5405 O.2       7 UNK        -0.5083 
     55 CA        -45.1528  -27.0703   12.2949 C.3       6 UNK         0.0844 
     56 C56       -44.5259  -28.4866   12.2554 C.3       14 UNK        -0.0967 
     57 S57       -44.1410  -29.0475   10.5603 S.3       14 UNK        -0.2604 
     58 C58       -45.1777  -30.5374   10.4151 C.3       14 UNK         0.0134 
     59 N         -46.3015  -26.9415   11.3903 N.am      6 UNK        -0.4116 
     60 C         -46.7729  -25.7795   10.9235 C.2       5 UNK         0.5034 
     61 O         -46.3176  -24.6765   11.2379 O.2       5 UNK        -0.5045 
     62 CA        -47.9764  -25.8800    9.9766 C.3       5 UNK         0.0224 
     63 CB        -49.2601  -26.1554   10.7694 C.3       5 UNK        -0.1978 
     64 N         -48.1707  -24.6498    9.2150 N.am      5 UNK        -0.4737 
     65 C         -47.5119  -24.3041    8.1055 C.2       4 UNK         0.5027 
     66 O         -46.6585  -25.0156    7.5728 O.2       4 UNK        -0.5211 
     67 CA        -47.9050  -22.9496    7.4746 C.3       4 UNK         0.0297 
     68 CB        -47.2185  -22.7058    6.1175 C.3       4 UNK        -0.1993 
     69 N         -49.3570  -22.8373    7.2981 N.am      4 UNK        -0.4486 
     70 C         -50.2408  -22.5408    8.2617 C.2       3 UNK         0.4961 
     71 O         -49.9110  -22.2188    9.4033 O.2       3 UNK        -0.5105 
     72 CA        -51.7382  -22.6600    7.9161 C.3       3 UNK         0.0299 
     73 CB        -52.3331  -21.2722    7.6279 C.3       3 UNK        -0.1972 
     74 N         -52.0350  -23.5588    6.7919 N.am      3 UNK        -0.4305 
     75 C         -51.7821  -24.8752    6.7714 C.2       2 UNK         0.5006 
     76 O         -51.2414  -25.4924    7.6928 O.2       2 UNK        -0.5106 
     77 CA        -52.1600  -25.6257    5.4883 C.3       2 UNK         0.0296 
     78 CB        -51.2300  -25.2286    4.3227 C.3       2 UNK        -0.2002 
     79 N         -52.0337  -27.0493    5.7752 N.am      2 UNK        -0.4032 
     80 C         -52.4795  -28.0698    5.0393 C.2       1 UNK         0.5000 
     81 O         -53.1017  -27.9423    3.9792 O.2       1 UNK        -0.5238 
     82 H82       -55.2848  -32.5843    4.8860 H         1 UNK         0.0889 
     83 H83       -53.8585  -33.4060    4.2466 H         1 UNK         0.0889 
     84 H84       -54.4648  -31.9485    3.4584 H         1 UNK         0.0889 
     85 H85       -53.2808  -30.0992    3.9548 H         1 UNK         0.3028 
     86 H86       -52.4370  -29.4709    6.6298 H         1 UNK         0.0864 
     87 H87       -50.0239  -28.8844    5.2431 H         1 UNK         0.0720 
     88 H88       -50.4326  -30.4301    4.5850 H         1 UNK         0.0720 
     89 H89       -50.1228  -28.4487    8.0497 H         1 UNK         0.0814 
     90 H90       -48.5911  -28.5962    7.2189 H         1 UNK         0.0814 
     91 H91       -46.6685  -29.6789    8.3021 H         1 UNK         0.1469 
     92 H92       -46.9908  -30.7221   12.4471 H         1 UNK         0.1381 
     93 H93       -50.4899  -29.5953   10.2409 H         1 UNK         0.1206 
     94 H94       -49.0447  -30.7438   13.5564 H         1 UNK         0.0813 
     95 H95       -50.3877  -31.1951   12.5503 H         1 UNK         0.0813 
     96 H96       -52.1830  -29.9439   11.8936 H         1 UNK         0.0638 
     97 H97       -52.9073  -29.2187   13.2992 H         1 UNK         0.0638 
     98 H98       -51.7841  -27.6718   10.9225 H         1 UNK         0.0568 
     99 H99       -55.1047  -27.0458   12.1268 H         1 UNK         0.3450 
    100 H100      -55.8489  -27.7540   10.7181 H         1 UNK         0.3450 
    101 H101      -52.5834  -26.7208   13.4918 H         1 UNK         0.2987 
    102 H102      -51.5649  -24.4942   13.6523 H         1 UNK         0.0766 
    103 H103      -51.8783  -22.0827   13.1358 H         1 UNK         0.0798 
    104 H104      -52.8094  -22.4945   11.6946 H         1 UNK         0.0798 
    105 H105      -51.1120  -22.9285   11.8007 H         1 UNK         0.0798 
    106 H106      -53.3781  -24.2921   14.8713 H         1 UNK         0.3198 
    107 H107      -55.5726  -23.0539   15.3922 H         1 UNK         0.0843 
    108 H108      -57.6379  -24.3142   13.5072 H         1 UNK         0.0831 
    109 H109      -57.3767  -22.5962   13.7612 H         1 UNK         0.0831 
    110 H110      -57.9940  -23.5866   15.0733 H         1 UNK         0.0831 
    111 H111      -55.5234  -25.0182   16.4262 H         1 UNK         0.3133 
    112 H112      -56.5683  -27.4965   16.6325 H         1 UNK         0.0566 
    113 H113      -55.5079  -29.6831   16.0180 H         1 UNK         0.0814 
    114 H114      -56.5741  -29.0962   14.7520 H         1 UNK         0.0814 
    115 H115      -54.8353  -28.9467   14.5649 H         1 UNK         0.0814 
    116 H116      -54.7018  -27.2918   17.8140 H         1 UNK         0.3091 
    117 H117      -52.7256  -26.4577   18.3945 H         1 UNK         0.0702 
    118 H118      -50.8405  -28.0606   18.7091 H         1 UNK         0.0785 
    119 H119      -51.0026  -28.6121   17.0403 H         1 UNK         0.0785 
    120 H120      -52.2818  -28.9263   18.2043 H         1 UNK         0.0785 
    121 H121      -50.2350  -26.2348   17.1537 H         1 UNK         0.2998 
    122 H122      -50.3080  -23.3469   15.3825 H         1 UNK         0.0697 
    123 H123      -49.7589  -23.0644   18.3861 H         1 UNK         0.0825 
    124 H124      -50.8197  -22.0371   17.4330 H         1 UNK         0.0825 
    125 H125      -49.0943  -22.0366   17.1150 H         1 UNK         0.0825 
    126 H126      -48.3075  -24.5889   17.1042 H         1 UNK         0.3029 
    127 H127      -46.5277  -25.5796   15.9334 H         1 UNK         0.0897 
    128 H128      -48.3198  -28.0837   15.7537 H         1 UNK         0.0792 
    129 H129      -47.9074  -27.2254   17.2339 H         1 UNK         0.0792 
    130 H130      -46.6584  -28.0744   16.3415 H         1 UNK         0.0792 
    131 H131      -47.4894  -26.6515   13.3901 H         1 UNK         0.3086 
    132 H132      -44.3887  -26.3702   11.9497 H         1 UNK         0.0583 
    133 H133      -43.5925  -28.4964   12.8220 H         1 UNK         0.1020 
    134 H134      -45.1734  -29.2108   12.7506 H         1 UNK         0.1020 
    135 H135      -44.9030  -31.0642    9.4999 H         1 UNK         0.0694 
    136 H136      -44.9469  -31.2205   11.2342 H         1 UNK         0.0694 
    137 H137      -46.7205  -27.8085   11.0821 H         1 UNK         0.2989 
    138 H138      -47.8038  -26.7028    9.2794 H         1 UNK         0.1055 
    139 H139      -49.1835  -27.0746   11.3494 H         1 UNK         0.0806 
    140 H140      -50.1128  -26.2635   10.0995 H         1 UNK         0.0806 
    141 H141      -49.4849  -25.3484   11.4678 H         1 UNK         0.0806 
    142 H142      -48.8337  -23.9808    9.5903 H         1 UNK         0.3061 
    143 H143      -47.5713  -22.1682    8.1608 H         1 UNK         0.0734 
    144 H144      -46.1326  -22.7298    6.2194 H         1 UNK         0.0832 
    145 H145      -47.4939  -23.4640    5.3832 H         1 UNK         0.0832 
    146 H146      -47.4809  -21.7299    5.7087 H         1 UNK         0.0832 
    147 H147      -49.7224  -23.1228    6.4020 H         1 UNK         0.3156 
    148 H148      -52.2369  -23.0668    8.7986 H         1 UNK         0.0589 
    149 H149      -51.8933  -20.8204    6.7379 H         1 UNK         0.0808 
    150 H150      -53.4123  -21.3241    7.4829 H         1 UNK         0.0808 
    151 H151      -52.1540  -20.5911    8.4613 H         1 UNK         0.0808 
    152 H152      -52.4776  -23.1390    5.9866 H         1 UNK         0.3098 
    153 H153      -53.1988  -25.4005    5.2387 H         1 UNK         0.0720 
    154 H154      -50.1852  -25.4428    4.5521 H         1 UNK         0.0791 
    155 H155      -51.3052  -24.1642    4.0983 H         1 UNK         0.0791 
    156 H156      -51.4849  -25.7627    3.4073 H         1 UNK         0.0791 
    157 H157      -51.5731  -27.2208    6.6621 H         1 UNK         0.3028 
@<TRIPOS>BOND
     1    1    2 1    
     2    1   82 1    
     3    1   83 1    
     4    1   84 1    
     5    2    3 2    
     6    2    4 am   BACKBONE|DICT|INTERRES
     7    4    5 1    
     8    4   85 1    
     9    5    6 1    
    10    5   80 1    
    11    5   86 1    
    12    6    7 1    
    13    6   87 1    
    14    6   88 1    
    15    7    8 1    
    16    8    9 1    
    17    8   89 1    
    18    8   90 1    
    19    9   10 ar   
    20    9   14 ar   
    21   10   11 ar   
    22   10   91 1    
    23   11   12 ar   
    24   11   58 1    
    25   12   13 ar   
    26   12   92 1    
    27   13   14 ar   
    28   13   15 1    
    29   14   93 1    
    30   15   16 1    
    31   15   94 1    
    32   15   95 1    
    33   16   17 1    
    34   17   18 1    
    35   17   96 1    
    36   17   97 1    
    37   18   19 1    
    38   18   22 1    
    39   18   98 1    
    40   19   20 am   BACKBONE|DICT|INTERRES
    41   19   21 2    
    42   20   99 1    
    43   20  100 1    
    44   22   23 am   BACKBONE|DICT|INTERRES
    45   22  101 1    
    46   23   24 2    
    47   23   25 1    
    48   25   26 1    
    49   25   27 1    
    50   25  102 1    
    51   26  103 1    
    52   26  104 1    
    53   26  105 1    
    54   27   28 am   BACKBONE|DICT|INTERRES
    55   27  106 1    
    56   28   29 2    
    57   28   30 1    
    58   30   31 1    
    59   30   32 1    
    60   30  107 1    
    61   31  108 1    
    62   31  109 1    
    63   31  110 1    
    64   32   33 am   BACKBONE|DICT|INTERRES
    65   32  111 1    
    66   33   34 2    
    67   33   35 1    
    68   35   36 1    
    69   35   37 1    
    70   35  112 1    
    71   36  113 1    
    72   36  114 1    
    73   36  115 1    
    74   37   38 am   BACKBONE|DICT|INTERRES
    75   37  116 1    
    76   38   39 2    
    77   38   40 1    
    78   40   41 1    
    79   40   42 1    
    80   40  117 1    
    81   41  118 1    
    82   41  119 1    
    83   41  120 1    
    84   42   43 am   BACKBONE|DICT|INTERRES
    85   42  121 1    
    86   43   44 2    
    87   43   45 1    
    88   45   46 1    
    89   45   47 1    
    90   45  122 1    
    91   46  123 1    
    92   46  124 1    
    93   46  125 1    
    94   47   48 am   BACKBONE|DICT|INTERRES
    95   47  126 1    
    96   48   49 2    
    97   48   50 1    
    98   50   51 1    
    99   50   52 1    
   100   50  127 1    
   101   51  128 1    
   102   51  129 1    
   103   51  130 1    
   104   52   53 am   BACKBONE|DICT|INTERRES
   105   52  131 1    
   106   53   54 2    
   107   53   55 1    
   108   55   56 1    
   109   55   59 1    
   110   55  132 1    
   111   56   57 1    
   112   56  133 1    
   113   56  134 1    
   114   57   58 1    
   115   58  135 1    
   116   58  136 1    
   117   59   60 am   BACKBONE|DICT|INTERRES
   118   59  137 1    
   119   60   61 2    
   120   60   62 1    
   121   62   63 1    
   122   62   64 1    
   123   62  138 1    
   124   63  139 1    
   125   63  140 1    
   126   63  141 1    
   127   64   65 am   BACKBONE|DICT|INTERRES
   128   64  142 1    
   129   65   66 2    
   130   65   67 1    
   131   67   68 1    
   132   67   69 1    
   133   67  143 1    
   134   68  144 1    
   135   68  145 1    
   136   68  146 1    
   137   69   70 am   BACKBONE|DICT|INTERRES
   138   69  147 1    
   139   70   71 2    
   140   70   72 1    
   141   72   73 1    
   142   72   74 1    
   143   72  148 1    
   144   73  149 1    
   145   73  150 1    
   146   73  151 1    
   147   74   75 am   BACKBONE|DICT|INTERRES
   148   74  152 1    
   149   75   76 2    
   150   75   77 1    
   151   77   78 1    
   152   77   79 1    
   153   77  153 1    
   154   78  154 1    
   155   78  155 1    
   156   78  156 1    
   157   79   80 am   BACKBONE|DICT|INTERRES
   158   79  157 1    
   159   80   81 2    
@<TRIPOS>SUBSTRUCTURE
     1 UNK         1 GROUP             0       ****    0 ROOT    
