@<TRIPOS>MOLECULE
3R207
157   159    1
SMALL
USER_CHARGES


@<TRIPOS>ATOM
      1 CA        -47.9474  -30.9890    2.9785 C.3       0 UNK        -0.1975 
      2 C         -47.7606  -29.7919    3.8973 C.2       0 UNK         0.4852 
      3 O         -46.7751  -29.7346    4.6362 O.2       0 UNK        -0.5216 
      4 N         -48.6767  -28.8124    3.8363 N.am      1 UNK        -0.4461 
      5 CA        -48.7660  -27.6001    4.6740 C.3       1 UNK         0.0864 
      6 C6        -48.9117  -27.9512    6.1838 C.3       14 UNK        -0.0898 
      7 S7        -49.9532  -26.7749    7.1097 S.3       14 UNK        -0.2598 
      8 C8        -51.5862  -27.5546    6.9059 C.3       14 UNK         0.0286 
      9 C9        -52.6818  -26.8110    7.6578 C.ar      14 UNK        -0.0844 
     10 C10       -52.9887  -25.4862    7.3318 C.ar      14 UNK        -0.0881 
     11 C11       -54.0152  -24.8068    7.9955 C.ar      14 UNK        -0.0643 
     12 C12       -54.7488  -25.4712    8.9841 C.ar      14 UNK        -0.0930 
     13 C13       -54.4676  -26.8040    9.3038 C.ar      14 UNK        -0.0827 
     14 C14       -53.4256  -27.4641    8.6456 C.ar      14 UNK        -0.1249 
     15 C15       -55.3296  -27.5437   10.3182 C.3       14 UNK         0.0141 
     16 S16       -54.7762  -27.2628   12.0260 S.3       14 UNK        -0.2313 
     17 C17       -53.4848  -28.5362   12.2357 C.3       14 UNK        -0.0915 
     18 CA        -53.9269  -29.7158   13.1445 C.3       13 UNK         0.0968 
     19 C         -52.8271  -30.8151   13.2330 C.2       13 UNK         0.5732 
     20 N         -52.4010  -31.2551   14.4126 N.am      13 UNK        -0.7310 
     21 O         -52.3581  -31.2953   12.2039 O.2       13 UNK        -0.5035 
     22 N         -54.4053  -29.2621   14.4619 N.am      13 UNK        -0.4233 
     23 C         -55.3887  -29.8610   15.1467 C.2       13 UNK         0.4989 
     24 O         -56.0356  -30.8152   14.7096 O.2       13 UNK        -0.4996 
     25 CA        -55.7132  -29.3053   16.5494 C.3       12 UNK         0.0216 
     26 CB        -56.5092  -30.3044   17.4165 C.3       12 UNK        -0.1964 
     27 N         -54.5473  -28.8098   17.2914 N.am      12 UNK        -0.4276 
     28 C         -53.4331  -29.4862   17.6175 C.2       12 UNK         0.5020 
     29 O         -53.2219  -30.6506   17.2736 O.2       12 UNK        -0.5489 
     30 CA        -52.3662  -28.7341   18.4403 C.3       11 UNK         0.0294 
     31 CB        -50.9393  -29.1497   18.0362 C.3       11 UNK        -0.2019 
     32 N         -52.4984  -27.2876   18.2651 N.am      11 UNK        -0.4493 
     33 C         -52.8922  -26.4074   19.1960 C.2       11 UNK         0.4932 
     34 O         -53.1023  -26.7036   20.3721 O.2       11 UNK        -0.5029 
     35 CA        -53.1216  -24.9507   18.7369 C.3       10 UNK         0.0280 
     36 CB        -51.9060  -24.0812   19.0942 C.3       10 UNK        -0.1976 
     37 N         -53.4007  -24.8197   17.3018 N.am      10 UNK        -0.4242 
     38 C         -54.4625  -25.3555   16.6764 C.2       10 UNK         0.5072 
     39 O         -55.3839  -25.9190   17.2673 O.2       10 UNK        -0.5224 
     40 CA        -54.4567  -25.3601   15.1353 C.3       9 UNK         0.0343 
     41 CB        -55.2822  -24.1872   14.5877 C.3       9 UNK        -0.2003 
     42 N         -53.1085  -25.3289   14.5562 N.am      9 UNK        -0.4272 
     43 C         -52.1484  -26.2365   14.7988 C.2       9 UNK         0.4988 
     44 O         -52.3742  -27.2970   15.3810 O.2       9 UNK        -0.5108 
     45 CA        -50.6922  -25.9068   14.4086 C.3       8 UNK         0.0248 
     46 CB        -50.1560  -26.9009   13.3661 C.3       8 UNK        -0.2001 
     47 N         -50.4839  -24.5371   13.9314 N.am      8 UNK        -0.4140 
     48 C         -50.6933  -23.4199   14.6480 C.2       8 UNK         0.5028 
     49 O         -50.9943  -23.4274   15.8430 O.2       8 UNK        -0.5428 
     50 CA        -50.6469  -22.0753   13.8928 C.3       7 UNK         0.0264 
     51 CB        -49.2850  -21.3934   14.0971 C.3       7 UNK        -0.1988 
     52 N         -50.9158  -22.1927   12.4539 N.am      7 UNK        -0.4454 
     53 C         -52.0218  -22.7213   11.9037 C.2       7 UNK         0.5027 
     54 O         -53.0097  -23.0455   12.5622 O.2       7 UNK        -0.5083 
     55 CA        -52.0088  -22.9954   10.3817 C.3       6 UNK         0.0844 
     56 C56       -52.9499  -22.0060    9.6508 C.3       14 UNK        -0.0967 
     57 S57       -52.9697  -22.2242    7.8382 S.3       14 UNK        -0.2604 
     58 C58       -54.3630  -23.3753    7.6052 C.3       14 UNK         0.0134 
     59 N         -50.6643  -23.0411    9.7847 N.am      6 UNK        -0.4116 
     60 C         -49.6831  -23.8858   10.1292 C.2       5 UNK         0.5034 
     61 O         -49.7555  -24.6778   11.0731 O.2       5 UNK        -0.5045 
     62 CA        -48.3820  -23.7858    9.3275 C.3       5 UNK         0.0224 
     63 CB        -47.6005  -22.5087    9.6880 C.3       5 UNK        -0.1978 
     64 N         -47.5671  -24.9586    9.6286 N.am      5 UNK        -0.4737 
     65 C         -46.7325  -25.5554    8.7766 C.2       4 UNK         0.5027 
     66 O         -46.4831  -25.1222    7.6486 O.2       4 UNK        -0.5211 
     67 CA        -46.0666  -26.8539    9.2583 C.3       4 UNK         0.0297 
     68 CB        -47.0739  -27.8545    9.8620 C.3       4 UNK        -0.1993 
     69 N         -45.4009  -27.4534    8.1097 N.am      4 UNK        -0.4486 
     70 C         -44.3091  -28.2225    8.1125 C.2       3 UNK         0.4961 
     71 O         -43.7316  -28.5842    9.1384 O.2       3 UNK        -0.5105 
     72 CA        -43.7711  -28.6761    6.7397 C.3       3 UNK         0.0299 
     73 CB        -43.8579  -30.2060    6.6056 C.3       3 UNK        -0.1972 
     74 N         -44.4899  -28.0675    5.6143 N.am      3 UNK        -0.4305 
     75 C         -44.2473  -26.8430    5.1137 C.2       2 UNK         0.5006 
     76 O         -43.3318  -26.1199    5.5067 O.2       2 UNK        -0.5106 
     77 CA        -45.1855  -26.3205    4.0091 C.3       2 UNK         0.0296 
     78 CB        -44.5352  -26.4909    2.6263 C.3       2 UNK        -0.2002 
     79 N         -46.4581  -27.0379    4.0317 N.am      2 UNK        -0.4032 
     80 C         -47.6400  -26.5612    4.4349 C.2       1 UNK         0.5000 
     81 O         -47.8682  -25.3640    4.6116 O.2       1 UNK        -0.5238 
     82 H82       -48.0207  -31.9029    3.5673 H         1 UNK         0.0889 
     83 H83       -47.0941  -31.0834    2.3075 H         1 UNK         0.0889 
     84 H84       -48.8491  -30.9022    2.3727 H         1 UNK         0.0889 
     85 H85       -49.4281  -28.9076    3.1662 H         1 UNK         0.3028 
     86 H86       -49.6880  -27.1163    4.3474 H         1 UNK         0.0864 
     87 H87       -47.9368  -28.0172    6.6695 H         1 UNK         0.0720 
     88 H88       -49.3513  -28.9426    6.3036 H         1 UNK         0.0720 
     89 H89       -51.8411  -27.5874    5.8457 H         1 UNK         0.0814 
     90 H90       -51.5298  -28.5907    7.2434 H         1 UNK         0.0814 
     91 H91       -52.4264  -24.9817    6.5577 H         1 UNK         0.1469 
     92 H92       -55.5564  -24.9603    9.4905 H         1 UNK         0.1381 
     93 H93       -53.2112  -28.4965    8.8850 H         1 UNK         0.1206 
     94 H94       -55.3495  -28.6136   10.1050 H         1 UNK         0.0813 
     95 H95       -56.3625  -27.2035   10.2303 H         1 UNK         0.0813 
     96 H96       -53.1844  -28.9016   11.2531 H         1 UNK         0.0638 
     97 H97       -52.6037  -28.0555   12.6519 H         1 UNK         0.0638 
     98 H98       -54.7600  -30.1957   12.6281 H         1 UNK         0.0568 
     99 H99       -52.7900  -30.9059   15.2814 H         1 UNK         0.3450 
    100 H100      -51.6937  -31.9715   14.4381 H         1 UNK         0.3450 
    101 H101      -53.8629  -28.5227   14.8963 H         1 UNK         0.2987 
    102 H102      -56.3525  -28.4374   16.3807 H         1 UNK         0.0766 
    103 H103      -56.7570  -29.8768   18.3880 H         1 UNK         0.0798 
    104 H104      -57.4499  -30.5799   16.9381 H         1 UNK         0.0798 
    105 H105      -55.9487  -31.2242   17.5879 H         1 UNK         0.0798 
    106 H106      -54.6187  -27.8428   17.5896 H         1 UNK         0.3198 
    107 H107      -52.5212  -29.0081   19.4857 H         1 UNK         0.0843 
    108 H108      -50.7733  -30.2127   18.2156 H         1 UNK         0.0831 
    109 H109      -50.1900  -28.6056   18.6110 H         1 UNK         0.0831 
    110 H110      -50.7515  -28.9639   16.9777 H         1 UNK         0.0831 
    111 H111      -52.3784  -26.9714   17.3075 H         1 UNK         0.3133 
    112 H112      -53.9885  -24.5683   19.2795 H         1 UNK         0.0566 
    113 H113      -51.0084  -24.4077   18.5669 H         1 UNK         0.0814 
    114 H114      -51.6923  -24.1265   20.1630 H         1 UNK         0.0814 
    115 H115      -52.0782  -23.0345   18.8425 H         1 UNK         0.0814 
    116 H116      -52.6832  -24.3675   16.7429 H         1 UNK         0.3091 
    117 H117      -54.9322  -26.2892   14.8175 H         1 UNK         0.0702 
    118 H118      -56.2925  -24.1922   14.9989 H         1 UNK         0.0785 
    119 H119      -55.3747  -24.2448   13.5027 H         1 UNK         0.0785 
    120 H120      -54.8302  -23.2257   14.8348 H         1 UNK         0.0785 
    121 H121      -52.8796  -24.5064   14.0081 H         1 UNK         0.2998 
    122 H122      -50.0986  -26.0252   15.3172 H         1 UNK         0.0697 
    123 H123      -50.6711  -26.7998   12.4105 H         1 UNK         0.0825 
    124 H124      -50.2813  -27.9316   13.7014 H         1 UNK         0.0825 
    125 H125      -49.0920  -26.7481   13.1857 H         1 UNK         0.0825 
    126 H126      -50.2440  -24.4463   12.9476 H         1 UNK         0.3029 
    127 H127      -51.4227  -21.4375   14.3218 H         1 UNK         0.0897 
    128 H128      -49.2658  -20.4001   13.6482 H         1 UNK         0.0792 
    129 H129      -49.0663  -21.2706   15.1590 H         1 UNK         0.0792 
    130 H130      -48.4719  -21.9763   13.6623 H         1 UNK         0.0792 
    131 H131      -50.1573  -21.9477   11.8350 H         1 UNK         0.3086 
    132 H132      -52.4244  -23.9976   10.2590 H         1 UNK         0.0583 
    133 H133      -53.9693  -22.0970   10.0319 H         1 UNK         0.1020 
    134 H134      -52.6474  -20.9765    9.8530 H         1 UNK         0.1020 
    135 H135      -55.2310  -23.0135    8.1586 H         1 UNK         0.0694 
    136 H136      -54.6484  -23.3639    6.5524 H         1 UNK         0.0694 
    137 H137      -50.5223  -22.4236    8.9984 H         1 UNK         0.2989 
    138 H138      -48.6395  -23.7807    8.2652 H         1 UNK         0.1055 
    139 H139      -46.6704  -22.4435    9.1229 H         1 UNK         0.0806 
    140 H140      -47.3482  -22.4765   10.7488 H         1 UNK         0.0806 
    141 H141      -48.1767  -21.6115    9.4593 H         1 UNK         0.0806 
    142 H142      -47.7941  -25.4012   10.5108 H         1 UNK         0.3061 
    143 H143      -45.3203  -26.5863   10.0091 H         1 UNK         0.0734 
    144 H144      -47.5187  -27.4697   10.7802 H         1 UNK         0.0832 
    145 H145      -47.8886  -28.0735    9.1712 H         1 UNK         0.0832 
    146 H146      -46.5911  -28.7982   10.1160 H         1 UNK         0.0832 
    147 H147      -45.7414  -27.1057    7.2225 H         1 UNK         0.3156 
    148 H148      -42.7188  -28.3888    6.6886 H         1 UNK         0.0589 
    149 H149      -44.8891  -30.5575    6.6639 H         1 UNK         0.0808 
    150 H150      -43.4418  -30.5456    5.6569 H         1 UNK         0.0808 
    151 H151      -43.2983  -30.7024    7.3995 H         1 UNK         0.0808 
    152 H152      -45.2591  -28.6184    5.2456 H         1 UNK         0.3098 
    153 H153      -45.3492  -25.2562    4.1909 H         1 UNK         0.0720 
    154 H154      -45.1744  -26.0928    1.8380 H         1 UNK         0.0791 
    155 H155      -43.5851  -25.9574    2.5734 H         1 UNK         0.0791 
    156 H156      -44.3355  -27.5389    2.3987 H         1 UNK         0.0791 
    157 H157      -46.4106  -28.0466    3.9267 H         1 UNK         0.3028 
@<TRIPOS>BOND
     1    1    2 1    
     2    1   82 1    
     3    1   83 1    
     4    1   84 1    
     5    2    3 2    
     6    2    4 am   BACKBONE|DICT|INTERRES
     7    4    5 1    
     8    4   85 1    
     9    5    6 1    
    10    5   80 1    
    11    5   86 1    
    12    6    7 1    
    13    6   87 1    
    14    6   88 1    
    15    7    8 1    
    16    8    9 1    
    17    8   89 1    
    18    8   90 1    
    19    9   10 ar   
    20    9   14 ar   
    21   10   11 ar   
    22   10   91 1    
    23   11   12 ar   
    24   11   58 1    
    25   12   13 ar   
    26   12   92 1    
    27   13   14 ar   
    28   13   15 1    
    29   14   93 1    
    30   15   16 1    
    31   15   94 1    
    32   15   95 1    
    33   16   17 1    
    34   17   18 1    
    35   17   96 1    
    36   17   97 1    
    37   18   19 1    
    38   18   22 1    
    39   18   98 1    
    40   19   20 am   BACKBONE|DICT|INTERRES
    41   19   21 2    
    42   20   99 1    
    43   20  100 1    
    44   22   23 am   BACKBONE|DICT|INTERRES
    45   22  101 1    
    46   23   24 2    
    47   23   25 1    
    48   25   26 1    
    49   25   27 1    
    50   25  102 1    
    51   26  103 1    
    52   26  104 1    
    53   26  105 1    
    54   27   28 am   BACKBONE|DICT|INTERRES
    55   27  106 1    
    56   28   29 2    
    57   28   30 1    
    58   30   31 1    
    59   30   32 1    
    60   30  107 1    
    61   31  108 1    
    62   31  109 1    
    63   31  110 1    
    64   32   33 am   BACKBONE|DICT|INTERRES
    65   32  111 1    
    66   33   34 2    
    67   33   35 1    
    68   35   36 1    
    69   35   37 1    
    70   35  112 1    
    71   36  113 1    
    72   36  114 1    
    73   36  115 1    
    74   37   38 am   BACKBONE|DICT|INTERRES
    75   37  116 1    
    76   38   39 2    
    77   38   40 1    
    78   40   41 1    
    79   40   42 1    
    80   40  117 1    
    81   41  118 1    
    82   41  119 1    
    83   41  120 1    
    84   42   43 am   BACKBONE|DICT|INTERRES
    85   42  121 1    
    86   43   44 2    
    87   43   45 1    
    88   45   46 1    
    89   45   47 1    
    90   45  122 1    
    91   46  123 1    
    92   46  124 1    
    93   46  125 1    
    94   47   48 am   BACKBONE|DICT|INTERRES
    95   47  126 1    
    96   48   49 2    
    97   48   50 1    
    98   50   51 1    
    99   50   52 1    
   100   50  127 1    
   101   51  128 1    
   102   51  129 1    
   103   51  130 1    
   104   52   53 am   BACKBONE|DICT|INTERRES
   105   52  131 1    
   106   53   54 2    
   107   53   55 1    
   108   55   56 1    
   109   55   59 1    
   110   55  132 1    
   111   56   57 1    
   112   56  133 1    
   113   56  134 1    
   114   57   58 1    
   115   58  135 1    
   116   58  136 1    
   117   59   60 am   BACKBONE|DICT|INTERRES
   118   59  137 1    
   119   60   61 2    
   120   60   62 1    
   121   62   63 1    
   122   62   64 1    
   123   62  138 1    
   124   63  139 1    
   125   63  140 1    
   126   63  141 1    
   127   64   65 am   BACKBONE|DICT|INTERRES
   128   64  142 1    
   129   65   66 2    
   130   65   67 1    
   131   67   68 1    
   132   67   69 1    
   133   67  143 1    
   134   68  144 1    
   135   68  145 1    
   136   68  146 1    
   137   69   70 am   BACKBONE|DICT|INTERRES
   138   69  147 1    
   139   70   71 2    
   140   70   72 1    
   141   72   73 1    
   142   72   74 1    
   143   72  148 1    
   144   73  149 1    
   145   73  150 1    
   146   73  151 1    
   147   74   75 am   BACKBONE|DICT|INTERRES
   148   74  152 1    
   149   75   76 2    
   150   75   77 1    
   151   77   78 1    
   152   77   79 1    
   153   77  153 1    
   154   78  154 1    
   155   78  155 1    
   156   78  156 1    
   157   79   80 am   BACKBONE|DICT|INTERRES
   158   79  157 1    
   159   80   81 2    
@<TRIPOS>SUBSTRUCTURE
     1 UNK         1 GROUP             0       ****    0 ROOT    
