@<TRIPOS>MOLECULE
3R207
157   159    1
SMALL
USER_CHARGES


@<TRIPOS>ATOM
      1 CA        -49.2204  -28.1465    4.3155 C.3       0 UNK        -0.1975 
      2 C         -49.3907  -28.3828    5.8133 C.2       0 UNK         0.4852 
      3 O         -49.2738  -29.5238    6.2551 O.2       0 UNK        -0.5216 
      4 N         -49.6602  -27.3549    6.6284 N.am      1 UNK        -0.4461 
      5 CA        -49.7921  -25.9384    6.2739 C.3       1 UNK         0.0864 
      6 C6        -51.2568  -25.4322    6.3515 C.3       14 UNK        -0.0898 
      7 S7        -52.4209  -26.3602    5.2930 S.3       14 UNK        -0.2598 
      8 C8        -53.9206  -26.4535    6.3418 C.3       14 UNK         0.0286 
      9 C9        -53.6799  -26.9867    7.7542 C.ar      14 UNK        -0.0844 
     10 C10       -52.7715  -28.0232    7.9925 C.ar      14 UNK        -0.0881 
     11 C11       -52.5032  -28.4521    9.2936 C.ar      14 UNK        -0.0643 
     12 C12       -53.1958  -27.8811   10.3638 C.ar      14 UNK        -0.0930 
     13 C13       -54.1250  -26.8604   10.1410 C.ar      14 UNK        -0.0827 
     14 C14       -54.3561  -26.4131    8.8363 C.ar      14 UNK        -0.1249 
     15 C15       -54.8509  -26.2146   11.3133 C.3       14 UNK         0.0141 
     16 S16       -56.6090  -26.6843   11.3836 S.3       14 UNK        -0.2313 
     17 C17       -56.5049  -28.4358   11.8802 C.3       14 UNK        -0.0915 
     18 CA        -56.8368  -28.6605   13.3874 C.3       13 UNK         0.0968 
     19 C         -58.3550  -28.8414   13.6915 C.2       13 UNK         0.5732 
     20 N         -59.2262  -28.1147   13.0052 N.am      13 UNK        -0.7310 
     21 O         -58.7541  -29.5986   14.5755 O.2       13 UNK        -0.5035 
     22 N         -55.9930  -29.7045   13.9836 N.am      13 UNK        -0.4233 
     23 C         -55.9363  -30.9899   13.6036 C.2       13 UNK         0.4989 
     24 O         -56.6172  -31.4637   12.6919 O.2       13 UNK        -0.4996 
     25 CA        -54.9576  -31.9082   14.3697 C.3       12 UNK         0.0216 
     26 CB        -54.3876  -33.0378   13.4839 C.3       12 UNK        -0.1964 
     27 N         -53.8792  -31.1817   15.0555 N.am      12 UNK        -0.4276 
     28 C         -52.9273  -30.4218   14.4942 C.2       12 UNK         0.5020 
     29 O         -52.7588  -30.2849   13.2811 O.2       12 UNK        -0.5489 
     30 CA        -52.0502  -29.6247   15.4699 C.3       11 UNK         0.0294 
     31 CB        -50.5550  -29.9169   15.2623 C.3       11 UNK        -0.2019 
     32 N         -52.2944  -28.1901   15.3267 N.am      11 UNK        -0.4493 
     33 C         -53.4380  -27.5597   15.6328 C.2       11 UNK         0.4932 
     34 O         -54.4469  -28.1413   16.0384 O.2       11 UNK        -0.5029 
     35 CA        -53.4529  -26.0273   15.4526 C.3       10 UNK         0.0280 
     36 CB        -54.4664  -25.3215   16.3773 C.3       10 UNK        -0.1976 
     37 N         -52.1148  -25.4280   15.5563 N.am      10 UNK        -0.4242 
     38 C         -51.3113  -25.3932   16.6318 C.2       10 UNK         0.5072 
     39 O         -51.6399  -25.7834   17.7525 O.2       10 UNK        -0.5224 
     40 CA        -49.8755  -24.8762   16.4206 C.3       9 UNK         0.0343 
     41 CB        -48.8939  -26.0553   16.3175 C.3       9 UNK        -0.2003 
     42 N         -49.7171  -24.0203   15.2417 N.am      9 UNK        -0.4272 
     43 C         -50.1715  -22.7616   15.1563 C.2       9 UNK         0.4988 
     44 O         -50.7778  -22.1860   16.0603 O.2       9 UNK        -0.5108 
     45 CA        -49.9076  -22.0232   13.8373 C.3       8 UNK         0.0248 
     46 CB        -48.4627  -21.4990   13.7832 C.3       8 UNK        -0.2001 
     47 N         -50.1631  -22.8806   12.6803 N.am      8 UNK        -0.4140 
     48 C         -51.3764  -23.1051   12.1564 C.2       8 UNK         0.5028 
     49 O         -52.4154  -22.6007   12.5824 O.2       8 UNK        -0.5428 
     50 CA        -51.4378  -24.0473   10.9409 C.3       7 UNK         0.0264 
     51 CB        -51.1325  -23.2473    9.6658 C.3       7 UNK        -0.1988 
     52 N         -50.5263  -25.1928   11.0482 N.am      7 UNK        -0.4454 
     53 C         -50.6113  -26.1304   12.0066 C.2       7 UNK         0.5027 
     54 O         -51.5204  -26.1771   12.8343 O.2       7 UNK        -0.5083 
     55 CA        -49.4515  -27.1354   12.1426 C.3       6 UNK         0.0844 
     56 C56       -49.8009  -28.5514   11.6282 C.3       14 UNK        -0.0967 
     57 S57       -49.8116  -28.7403    9.8150 S.3       14 UNK        -0.2604 
     58 C58       -51.4392  -29.5092    9.5319 C.3       14 UNK         0.0134 
     59 N         -48.1778  -26.6268   11.6302 N.am      6 UNK        -0.4116 
     60 C         -47.4994  -25.6002   12.1611 C.2       5 UNK         0.5034 
     61 O         -47.9207  -24.9426   13.1155 O.2       5 UNK        -0.5045 
     62 CA        -46.1603  -25.1931   11.5185 C.3       5 UNK         0.0224 
     63 CB        -45.0074  -25.2529   12.5403 C.3       5 UNK        -0.1978 
     64 N         -45.8161  -25.9050   10.2785 N.am      5 UNK        -0.4737 
     65 C         -45.4977  -27.1976   10.1040 C.2       4 UNK         0.5027 
     66 O         -45.4358  -28.0151   11.0213 O.2       4 UNK        -0.5211 
     67 CA        -45.2496  -27.6788    8.6613 C.3       4 UNK         0.0297 
     68 CB        -46.3282  -28.6895    8.2392 C.3       4 UNK        -0.1993 
     69 N         -45.2403  -26.5806    7.6930 N.am      4 UNK        -0.4486 
     70 C         -44.1660  -25.8475    7.3718 C.2       3 UNK         0.4961 
     71 O         -43.0325  -26.0636    7.8005 O.2       3 UNK        -0.5105 
     72 CA        -44.4023  -24.6557    6.4252 C.3       3 UNK         0.0299 
     73 CB        -44.1443  -25.0702    4.9676 C.3       3 UNK        -0.1972 
     74 N         -45.7472  -24.0775    6.5344 N.am      3 UNK        -0.4305 
     75 C         -46.2285  -23.4566    7.6224 C.2       2 UNK         0.5006 
     76 O         -45.5852  -23.2939    8.6582 O.2       2 UNK        -0.5106 
     77 CA        -47.6897  -22.9833    7.5674 C.3       2 UNK         0.0296 
     78 CB        -47.7834  -21.5692    6.9733 C.3       2 UNK        -0.2002 
     79 N         -48.5583  -23.8947    6.8157 N.am      2 UNK        -0.4032 
     80 C         -48.8972  -25.1249    7.2270 C.2       1 UNK         0.5000 
     81 O         -48.5402  -25.6046    8.3091 O.2       1 UNK        -0.5238 
     82 H82       -49.1395  -29.0959    3.7865 H         1 UNK         0.0889 
     83 H83       -48.3135  -27.5764    4.1168 H         1 UNK         0.0889 
     84 H84       -50.0738  -27.6118    3.9005 H         1 UNK         0.0889 
     85 H85       -49.7024  -27.5282    7.6256 H         1 UNK         0.3028 
     86 H86       -49.4177  -25.7594    5.2657 H         1 UNK         0.0864 
     87 H87       -51.3203  -24.3808    6.0655 H         1 UNK         0.0720 
     88 H88       -51.6025  -25.4863    7.3819 H         1 UNK         0.0720 
     89 H89       -54.6546  -27.0914    5.8483 H         1 UNK         0.0814 
     90 H90       -54.3606  -25.4561    6.3877 H         1 UNK         0.0814 
     91 H91       -52.2379  -28.4714    7.1661 H         1 UNK         0.1469 
     92 H92       -52.9956  -28.2173   11.3725 H         1 UNK         0.1381 
     93 H93       -55.0627  -25.6118    8.6678 H         1 UNK         0.1206 
     94 H94       -54.7814  -25.1296   11.2268 H         1 UNK         0.0813 
     95 H95       -54.3689  -26.4771   12.2555 H         1 UNK         0.0813 
     96 H96       -55.4987  -28.7917   11.6585 H         1 UNK         0.0638 
     97 H97       -57.1601  -29.0273   11.2383 H         1 UNK         0.0638 
     98 H98       -56.5500  -27.7630   13.9364 H         1 UNK         0.0568 
     99 H99       -60.2107  -28.2054   13.2004 H         1 UNK         0.3450 
    100 H100      -58.9054  -27.4767   12.2922 H         1 UNK         0.3450 
    101 H101      -55.4249  -29.4000   14.7666 H         1 UNK         0.2987 
    102 H102      -55.5502  -32.3780   15.1560 H         1 UNK         0.0766 
    103 H103      -53.7041  -33.6758   14.0441 H         1 UNK         0.0798 
    104 H104      -53.8486  -32.6434   12.6219 H         1 UNK         0.0798 
    105 H105      -55.1845  -33.6771   13.1021 H         1 UNK         0.0798 
    106 H106      -53.9346  -31.1907   16.0655 H         1 UNK         0.3198 
    107 H107      -52.3055  -29.9049   16.4943 H         1 UNK         0.0843 
    108 H108      -50.2192  -29.6353   14.2657 H         1 UNK         0.0831 
    109 H109      -50.3477  -30.9808   15.3846 H         1 UNK         0.0831 
    110 H110      -49.9409  -29.3824   15.9874 H         1 UNK         0.0831 
    111 H111      -51.5574  -27.6385   14.9138 H         1 UNK         0.3133 
    112 H112      -53.7762  -25.8491   14.4274 H         1 UNK         0.0566 
    113 H113      -54.4500  -24.2414   16.2322 H         1 UNK         0.0814 
    114 H114      -55.4827  -25.6599   16.1717 H         1 UNK         0.0814 
    115 H115      -54.2661  -25.5231   17.4298 H         1 UNK         0.0814 
    116 H116      -51.7211  -25.1386   14.6682 H         1 UNK         0.3091 
    117 H117      -49.6081  -24.2901   17.3025 H         1 UNK         0.0702 
    118 H118      -47.8651  -25.7082   16.2183 H         1 UNK         0.0785 
    119 H119      -49.1150  -26.6929   15.4625 H         1 UNK         0.0785 
    120 H120      -48.9399  -26.6810   17.2100 H         1 UNK         0.0785 
    121 H121      -49.1715  -24.3948   14.4696 H         1 UNK         0.2998 
    122 H122      -50.5785  -21.1622   13.7939 H         1 UNK         0.0697 
    123 H123      -47.7316  -22.3075   13.8198 H         1 UNK         0.0825 
    124 H124      -48.2578  -20.8377   14.6263 H         1 UNK         0.0825 
    125 H125      -48.2831  -20.9264   12.8731 H         1 UNK         0.0825 
    126 H126      -49.3702  -23.3819   12.3041 H         1 UNK         0.3029 
    127 H127      -52.4546  -24.4368   10.8694 H         1 UNK         0.0897 
    128 H128      -51.8193  -22.4061    9.5604 H         1 UNK         0.0792 
    129 H129      -51.2421  -23.8576    8.7755 H         1 UNK         0.0792 
    130 H130      -50.1216  -22.8408    9.6747 H         1 UNK         0.0792 
    131 H131      -49.7697  -25.2546   10.3784 H         1 UNK         0.3086 
    132 H132      -49.3070  -27.2483   13.2181 H         1 UNK         0.0583 
    133 H133      -49.0681  -29.2607   12.0160 H         1 UNK         0.1020 
    134 H134      -50.7567  -28.8743   12.0442 H         1 UNK         0.1020 
    135 H135      -51.3649  -30.1616    8.6603 H         1 UNK         0.0694 
    136 H136      -51.7150  -30.1540   10.3680 H         1 UNK         0.0694 
    137 H137      -47.7885  -27.1053   10.8308 H         1 UNK         0.2989 
    138 H138      -46.2832  -24.1479   11.2298 H         1 UNK         0.1055 
    139 H139      -45.2122  -24.6098   13.3973 H         1 UNK         0.0806 
    140 H140      -44.0696  -24.9143   12.0998 H         1 UNK         0.0806 
    141 H141      -44.8542  -26.2614   12.9251 H         1 UNK         0.0806 
    142 H142      -45.8310  -25.3201    9.4516 H         1 UNK         0.3061 
    143 H143      -44.2824  -28.1858    8.6476 H         1 UNK         0.0734 
    144 H144      -46.1346  -29.0881    7.2433 H         1 UNK         0.0832 
    145 H145      -47.3196  -28.2369    8.2304 H         1 UNK         0.0832 
    146 H146      -46.3654  -29.5378    8.9241 H         1 UNK         0.0832 
    147 H147      -46.1342  -26.3191    7.3034 H         1 UNK         0.3156 
    148 H148      -43.6829  -23.8781    6.6914 H         1 UNK         0.0589 
    149 H149      -44.8475  -25.8337    4.6321 H         1 UNK         0.0808 
    150 H150      -44.2234  -24.2184    4.2917 H         1 UNK         0.0808 
    151 H151      -43.1398  -25.4799    4.8512 H         1 UNK         0.0808 
    152 H152      -46.3408  -24.1520    5.7213 H         1 UNK         0.3098 
    153 H153      -48.0512  -22.9416    8.5963 H         1 UNK         0.0720 
    154 H154      -48.8048  -21.1898    7.0137 H         1 UNK         0.0791 
    155 H155      -47.4547  -21.5415    5.9337 H         1 UNK         0.0791 
    156 H156      -47.1587  -20.8701    7.5313 H         1 UNK         0.0791 
    157 H157      -48.9076  -23.5573    5.9297 H         1 UNK         0.3028 
@<TRIPOS>BOND
     1    1    2 1    
     2    1   82 1    
     3    1   83 1    
     4    1   84 1    
     5    2    3 2    
     6    2    4 am   BACKBONE|DICT|INTERRES
     7    4    5 1    
     8    4   85 1    
     9    5    6 1    
    10    5   80 1    
    11    5   86 1    
    12    6    7 1    
    13    6   87 1    
    14    6   88 1    
    15    7    8 1    
    16    8    9 1    
    17    8   89 1    
    18    8   90 1    
    19    9   10 ar   
    20    9   14 ar   
    21   10   11 ar   
    22   10   91 1    
    23   11   12 ar   
    24   11   58 1    
    25   12   13 ar   
    26   12   92 1    
    27   13   14 ar   
    28   13   15 1    
    29   14   93 1    
    30   15   16 1    
    31   15   94 1    
    32   15   95 1    
    33   16   17 1    
    34   17   18 1    
    35   17   96 1    
    36   17   97 1    
    37   18   19 1    
    38   18   22 1    
    39   18   98 1    
    40   19   20 am   BACKBONE|DICT|INTERRES
    41   19   21 2    
    42   20   99 1    
    43   20  100 1    
    44   22   23 am   BACKBONE|DICT|INTERRES
    45   22  101 1    
    46   23   24 2    
    47   23   25 1    
    48   25   26 1    
    49   25   27 1    
    50   25  102 1    
    51   26  103 1    
    52   26  104 1    
    53   26  105 1    
    54   27   28 am   BACKBONE|DICT|INTERRES
    55   27  106 1    
    56   28   29 2    
    57   28   30 1    
    58   30   31 1    
    59   30   32 1    
    60   30  107 1    
    61   31  108 1    
    62   31  109 1    
    63   31  110 1    
    64   32   33 am   BACKBONE|DICT|INTERRES
    65   32  111 1    
    66   33   34 2    
    67   33   35 1    
    68   35   36 1    
    69   35   37 1    
    70   35  112 1    
    71   36  113 1    
    72   36  114 1    
    73   36  115 1    
    74   37   38 am   BACKBONE|DICT|INTERRES
    75   37  116 1    
    76   38   39 2    
    77   38   40 1    
    78   40   41 1    
    79   40   42 1    
    80   40  117 1    
    81   41  118 1    
    82   41  119 1    
    83   41  120 1    
    84   42   43 am   BACKBONE|DICT|INTERRES
    85   42  121 1    
    86   43   44 2    
    87   43   45 1    
    88   45   46 1    
    89   45   47 1    
    90   45  122 1    
    91   46  123 1    
    92   46  124 1    
    93   46  125 1    
    94   47   48 am   BACKBONE|DICT|INTERRES
    95   47  126 1    
    96   48   49 2    
    97   48   50 1    
    98   50   51 1    
    99   50   52 1    
   100   50  127 1    
   101   51  128 1    
   102   51  129 1    
   103   51  130 1    
   104   52   53 am   BACKBONE|DICT|INTERRES
   105   52  131 1    
   106   53   54 2    
   107   53   55 1    
   108   55   56 1    
   109   55   59 1    
   110   55  132 1    
   111   56   57 1    
   112   56  133 1    
   113   56  134 1    
   114   57   58 1    
   115   58  135 1    
   116   58  136 1    
   117   59   60 am   BACKBONE|DICT|INTERRES
   118   59  137 1    
   119   60   61 2    
   120   60   62 1    
   121   62   63 1    
   122   62   64 1    
   123   62  138 1    
   124   63  139 1    
   125   63  140 1    
   126   63  141 1    
   127   64   65 am   BACKBONE|DICT|INTERRES
   128   64  142 1    
   129   65   66 2    
   130   65   67 1    
   131   67   68 1    
   132   67   69 1    
   133   67  143 1    
   134   68  144 1    
   135   68  145 1    
   136   68  146 1    
   137   69   70 am   BACKBONE|DICT|INTERRES
   138   69  147 1    
   139   70   71 2    
   140   70   72 1    
   141   72   73 1    
   142   72   74 1    
   143   72  148 1    
   144   73  149 1    
   145   73  150 1    
   146   73  151 1    
   147   74   75 am   BACKBONE|DICT|INTERRES
   148   74  152 1    
   149   75   76 2    
   150   75   77 1    
   151   77   78 1    
   152   77   79 1    
   153   77  153 1    
   154   78  154 1    
   155   78  155 1    
   156   78  156 1    
   157   79   80 am   BACKBONE|DICT|INTERRES
   158   79  157 1    
   159   80   81 2    
@<TRIPOS>SUBSTRUCTURE
     1 UNK         1 GROUP             0       ****    0 ROOT    
