@<TRIPOS>MOLECULE
3R207
157   159    1
SMALL
USER_CHARGES


@<TRIPOS>ATOM
      1 CA        -46.6464  -29.8617    3.7152 C.3       0 UNK        -0.1975 
      2 C         -46.3335  -30.0855    5.1925 C.2       0 UNK         0.4852 
      3 O         -45.2212  -30.4978    5.5163 O.2       0 UNK        -0.5216 
      4 N         -47.2662  -29.8359    6.1239 N.am      1 UNK        -0.4461 
      5 CA        -48.6279  -29.3197    5.9106 C.3       1 UNK         0.0864 
      6 C6        -49.5262  -29.5593    7.1476 C.3       14 UNK        -0.0898 
      7 S7        -49.7063  -31.3291    7.5578 S.3       14 UNK        -0.2598 
      8 C8        -50.4737  -31.2445    9.2094 C.3       14 UNK         0.0286 
      9 C9        -51.8100  -30.5180    9.1688 C.ar      14 UNK        -0.0844 
     10 C10       -51.8787  -29.1653    9.5080 C.ar      14 UNK        -0.0881 
     11 C11       -53.0827  -28.4650    9.3985 C.ar      14 UNK        -0.0643 
     12 C12       -54.2335  -29.1407    8.9827 C.ar      14 UNK        -0.0930 
     13 C13       -54.1926  -30.5096    8.6874 C.ar      14 UNK        -0.0827 
     14 C14       -52.9713  -31.1871    8.7719 C.ar      14 UNK        -0.1249 
     15 C15       -55.4413  -31.2780    8.2534 C.3       14 UNK         0.0141 
     16 S16       -57.0008  -30.7234    9.0296 S.3       14 UNK        -0.2313 
     17 C17       -56.6783  -31.0200   10.8012 C.3       14 UNK        -0.0915 
     18 CA        -57.4852  -30.0455   11.7110 C.3       13 UNK         0.0968 
     19 C         -58.8627  -30.6168   12.1401 C.2       13 UNK         0.5732 
     20 N         -59.7411  -30.9005   11.1892 N.am      13 UNK        -0.7310 
     21 O         -59.1433  -30.8116   13.3224 O.2       13 UNK        -0.5035 
     22 N         -56.7098  -29.6098   12.8775 N.am      13 UNK        -0.4233 
     23 C         -55.8057  -28.6266   12.8757 C.2       13 UNK         0.4989 
     24 O         -55.4920  -27.9820   11.8730 O.2       13 UNK        -0.4996 
     25 CA        -55.1124  -28.3432   14.2213 C.3       12 UNK         0.0216 
     26 CB        -53.9876  -29.3631   14.4631 C.3       12 UNK        -0.1964 
     27 N         -54.5460  -26.9933   14.2804 N.am      12 UNK        -0.4276 
     28 C         -55.2593  -25.8597   14.2870 C.2       12 UNK         0.5020 
     29 O         -56.4900  -25.8235   14.3601 O.2       12 UNK        -0.5489 
     30 CA        -54.4461  -24.5550   14.1887 C.3       11 UNK         0.0294 
     31 CB        -55.3081  -23.2835   14.3436 C.3       11 UNK        -0.2019 
     32 N         -53.2974  -24.5288   15.1021 N.am      11 UNK        -0.4493 
     33 C         -53.3194  -24.5590   16.4434 C.2       11 UNK         0.4932 
     34 O         -54.3492  -24.6242   17.1170 O.2       11 UNK        -0.5029 
     35 CA        -51.9469  -24.4844   17.1410 C.3       10 UNK         0.0280 
     36 CB        -52.0235  -24.7086   18.6667 C.3       10 UNK        -0.1976 
     37 N         -50.9451  -25.3644   16.5292 N.am      10 UNK        -0.4242 
     38 C         -50.9772  -26.7044   16.4461 C.2       10 UNK         0.5072 
     39 O         -51.8899  -27.3934   16.9029 O.2       10 UNK        -0.5224 
     40 CA        -49.8129  -27.4164   15.7256 C.3       9 UNK         0.0343 
     41 CB        -50.3314  -28.2214   14.5217 C.3       9 UNK        -0.2003 
     42 N         -48.7517  -26.5160   15.2685 N.am      9 UNK        -0.4272 
     43 C         -47.8134  -25.9630   16.0489 C.2       9 UNK         0.4988 
     44 O         -47.6948  -26.2005   17.2511 O.2       9 UNK        -0.5108 
     45 CA        -46.8745  -24.9388   15.3843 C.3       8 UNK         0.0248 
     46 CB        -45.6806  -25.6472   14.7253 C.3       8 UNK        -0.2001 
     47 N         -47.5488  -24.0820   14.4006 N.am      8 UNK        -0.4140 
     48 C         -48.5613  -23.2481   14.6857 C.2       8 UNK         0.5028 
     49 O         -49.0188  -23.0898   15.8176 O.2       8 UNK        -0.5428 
     50 CA        -49.2199  -22.5126   13.5068 C.3       7 UNK         0.0264 
     51 CB        -48.3500  -21.3401   13.0270 C.3       7 UNK        -0.1988 
     52 N         -49.5231  -23.4069   12.3871 N.am      7 UNK        -0.4454 
     53 C         -50.3747  -24.4409   12.4548 C.2       7 UNK         0.5027 
     54 O         -51.0472  -24.7063   13.4516 O.2       7 UNK        -0.5083 
     55 CA        -50.4721  -25.3626   11.2244 C.3       6 UNK         0.0844 
     56 C56       -51.4738  -24.7929   10.1915 C.3       14 UNK        -0.0967 
     57 S57       -51.8744  -26.0077    8.8972 S.3       14 UNK        -0.2604 
     58 C58       -53.1463  -26.9888    9.7632 C.3       14 UNK         0.0134 
     59 N         -49.1540  -25.6657   10.6552 N.am      6 UNK        -0.4116 
     60 C         -48.1766  -26.3039   11.3172 C.2       5 UNK         0.5034 
     61 O         -48.3072  -26.7750   12.4451 O.2       5 UNK        -0.5045 
     62 CA        -46.7991  -26.3694   10.6439 C.3       5 UNK         0.0224 
     63 CB        -46.7168  -27.5376    9.6473 C.3       5 UNK        -0.1978 
     64 N         -46.4655  -25.1038    9.9869 N.am      5 UNK        -0.4737 
     65 C         -46.1651  -23.9767   10.6494 C.2       4 UNK         0.5027 
     66 O         -46.0798  -23.9107   11.8752 O.2       4 UNK        -0.5211 
     67 CA        -45.9660  -22.7017    9.8114 C.3       4 UNK         0.0297 
     68 CB        -44.5108  -22.5983    9.3294 C.3       4 UNK        -0.1993 
     69 N         -46.8700  -22.6277    8.6610 N.am      4 UNK        -0.4486 
     70 C         -48.2038  -22.5168    8.7457 C.2       3 UNK         0.4961 
     71 O         -48.8139  -22.3962    9.8072 O.2       3 UNK        -0.5105 
     72 CA        -48.9944  -22.6213    7.4275 C.3       3 UNK         0.0299 
     73 CB        -49.1443  -21.2369    6.7781 C.3       3 UNK        -0.1972 
     74 N         -48.4040  -23.5598    6.4638 N.am      3 UNK        -0.4305 
     75 C         -48.1948  -24.8614    6.7063 C.2       2 UNK         0.5006 
     76 O         -48.4916  -25.4098    7.7696 O.2       2 UNK        -0.5106 
     77 CA        -47.4493  -25.6501    5.6176 C.3       2 UNK         0.0296 
     78 CB        -45.9539  -25.2867    5.6254 C.3       2 UNK        -0.2002 
     79 N         -47.5737  -27.0932    5.8242 N.am      2 UNK        -0.4032 
     80 C         -48.6556  -27.8239    5.5221 C.2       1 UNK         0.5000 
     81 O         -49.6433  -27.3710    4.9410 O.2       1 UNK        -0.5238 
     82 H82       -46.7496  -28.8003    3.4946 H         1 UNK         0.0889 
     83 H83       -47.5595  -30.3761    3.4198 H         1 UNK         0.0889 
     84 H84       -45.8397  -30.2501    3.0939 H         1 UNK         0.0889 
     85 H85       -47.0385  -30.0400    7.0863 H         1 UNK         0.3028 
     86 H86       -49.0741  -29.8671    5.0785 H         1 UNK         0.0864 
     87 H87       -50.5268  -29.1593    6.9694 H         1 UNK         0.0720 
     88 H88       -49.1340  -29.0309    8.0183 H         1 UNK         0.0720 
     89 H89       -50.6167  -32.2577    9.5878 H         1 UNK         0.0814 
     90 H90       -49.7887  -30.7538    9.9027 H         1 UNK         0.0814 
     91 H91       -50.9865  -28.6446    9.8282 H         1 UNK         0.1469 
     92 H92       -55.1673  -28.6008    8.9128 H         1 UNK         0.1381 
     93 H93       -52.9182  -32.2369    8.5167 H         1 UNK         0.1206 
     94 H94       -55.5419  -31.1875    7.1713 H         1 UNK         0.0813 
     95 H95       -55.3200  -32.3419    8.4634 H         1 UNK         0.0813 
     96 H96       -55.6088  -30.8947   10.9733 H         1 UNK         0.0638 
     97 H97       -56.8879  -32.0650   11.0368 H         1 UNK         0.0638 
     98 H98       -57.7190  -29.1386   11.1493 H         1 UNK         0.0568 
     99 H99       -59.5073  -30.7626   10.2180 H         1 UNK         0.3450 
    100 H100      -60.6414  -31.2749   11.4442 H         1 UNK         0.3450 
    101 H101      -56.9593  -30.0717   13.7419 H         1 UNK         0.2987 
    102 H102      -55.8515  -28.4338   15.0201 H         1 UNK         0.0766 
    103 H103      -53.4958  -29.1916   15.4209 H         1 UNK         0.0798 
    104 H104      -53.2301  -29.3186   13.6792 H         1 UNK         0.0798 
    105 H105      -54.3763  -30.3820   14.4803 H         1 UNK         0.0798 
    106 H106      -53.5412  -26.9214   14.2297 H         1 UNK         0.3198 
    107 H107      -54.0283  -24.5402   13.1807 H         1 UNK         0.0843 
    108 H108      -55.8040  -23.2439   15.3138 H         1 UNK         0.0831 
    109 H109      -56.0870  -23.2466   13.5810 H         1 UNK         0.0831 
    110 H110      -54.7071  -22.3808   14.2358 H         1 UNK         0.0831 
    111 H111      -52.3871  -24.5195   14.6405 H         1 UNK         0.3133 
    112 H112      -51.5860  -23.4674   16.9816 H         1 UNK         0.0566 
    113 H113      -51.0402  -24.6238   19.1292 H         1 UNK         0.0814 
    114 H114      -52.6678  -23.9656   19.1381 H         1 UNK         0.0814 
    115 H115      -52.4276  -25.6907   18.9137 H         1 UNK         0.0814 
    116 H116      -50.1601  -24.8818   16.1057 H         1 UNK         0.3091 
    117 H117      -49.3784  -28.1199   16.4387 H         1 UNK         0.0702 
    118 H118      -51.0479  -28.9790   14.8385 H         1 UNK         0.0785 
    119 H119      -50.8267  -27.5805   13.7917 H         1 UNK         0.0785 
    120 H120      -49.5202  -28.7428   14.0135 H         1 UNK         0.0785 
    121 H121      -48.7221  -26.3295   14.2694 H         1 UNK         0.2998 
    122 H122      -46.4894  -24.2879   16.1719 H         1 UNK         0.0697 
    123 H123      -45.9986  -26.3052   13.9165 H         1 UNK         0.0825 
    124 H124      -45.1403  -26.2580   15.4497 H         1 UNK         0.0825 
    125 H125      -44.9712  -24.9294   14.3128 H         1 UNK         0.0825 
    126 H126      -47.1986  -24.1199   13.4462 H         1 UNK         0.3029 
    127 H127      -50.1677  -22.1034   13.8637 H         1 UNK         0.0897 
    128 H128      -48.8429  -20.7811   12.2312 H         1 UNK         0.0792 
    129 H129      -47.3852  -21.6770   12.6490 H         1 UNK         0.0792 
    130 H130      -48.1548  -20.6416   13.8417 H         1 UNK         0.0792 
    131 H131      -49.0712  -23.2007   11.4988 H         1 UNK         0.3086 
    132 H132      -50.8721  -26.3101   11.5902 H         1 UNK         0.0583 
    133 H133      -52.4045  -24.4837   10.6724 H         1 UNK         0.1020 
    134 H134      -51.0708  -23.8977    9.7162 H         1 UNK         0.1020 
    135 H135      -53.0256  -26.9066   10.8438 H         1 UNK         0.0694 
    136 H136      -54.1273  -26.5701    9.5338 H         1 UNK         0.0694 
    137 H137      -48.9807  -25.3640    9.7010 H         1 UNK         0.2989 
    138 H138      -46.0582  -26.5472   11.4266 H         1 UNK         0.1055 
    139 H139      -46.8811  -28.4887   10.1554 H         1 UNK         0.0806 
    140 H140      -45.7359  -27.5885    9.1749 H         1 UNK         0.0806 
    141 H141      -47.4661  -27.4615    8.8615 H         1 UNK         0.0806 
    142 H142      -46.6060  -25.0600    8.9874 H         1 UNK         0.3061 
    143 H143      -46.1739  -21.8455   10.4564 H         1 UNK         0.0734 
    144 H144      -44.3320  -21.6608    8.8026 H         1 UNK         0.0832 
    145 H145      -43.8192  -22.6303   10.1727 H         1 UNK         0.0832 
    146 H146      -44.2451  -23.4174    8.6598 H         1 UNK         0.0832 
    147 H147      -46.4548  -22.7114    7.7449 H         1 UNK         0.3156 
    148 H148      -49.9919  -22.9916    7.6727 H         1 UNK         0.0589 
    149 H149      -48.1811  -20.8227    6.4775 H         1 UNK         0.0808 
    150 H150      -49.7832  -21.2788    5.8957 H         1 UNK         0.0808 
    151 H151      -49.6009  -20.5292    7.4718 H         1 UNK         0.0808 
    152 H152      -48.1268  -23.1793    5.5700 H         1 UNK         0.3098 
    153 H153      -47.8748  -25.3919    4.6455 H         1 UNK         0.0720 
    154 H154      -45.4878  -25.5049    6.5874 H         1 UNK         0.0791 
    155 H155      -45.8008  -24.2263    5.4210 H         1 UNK         0.0791 
    156 H156      -45.4098  -25.8395    4.8591 H         1 UNK         0.0791 
    157 H157      -46.8216  -27.5459    6.3215 H         1 UNK         0.3028 
@<TRIPOS>BOND
     1    1    2 1    
     2    1   82 1    
     3    1   83 1    
     4    1   84 1    
     5    2    3 2    
     6    2    4 am   BACKBONE|DICT|INTERRES
     7    4    5 1    
     8    4   85 1    
     9    5    6 1    
    10    5   80 1    
    11    5   86 1    
    12    6    7 1    
    13    6   87 1    
    14    6   88 1    
    15    7    8 1    
    16    8    9 1    
    17    8   89 1    
    18    8   90 1    
    19    9   10 ar   
    20    9   14 ar   
    21   10   11 ar   
    22   10   91 1    
    23   11   12 ar   
    24   11   58 1    
    25   12   13 ar   
    26   12   92 1    
    27   13   14 ar   
    28   13   15 1    
    29   14   93 1    
    30   15   16 1    
    31   15   94 1    
    32   15   95 1    
    33   16   17 1    
    34   17   18 1    
    35   17   96 1    
    36   17   97 1    
    37   18   19 1    
    38   18   22 1    
    39   18   98 1    
    40   19   20 am   BACKBONE|DICT|INTERRES
    41   19   21 2    
    42   20   99 1    
    43   20  100 1    
    44   22   23 am   BACKBONE|DICT|INTERRES
    45   22  101 1    
    46   23   24 2    
    47   23   25 1    
    48   25   26 1    
    49   25   27 1    
    50   25  102 1    
    51   26  103 1    
    52   26  104 1    
    53   26  105 1    
    54   27   28 am   BACKBONE|DICT|INTERRES
    55   27  106 1    
    56   28   29 2    
    57   28   30 1    
    58   30   31 1    
    59   30   32 1    
    60   30  107 1    
    61   31  108 1    
    62   31  109 1    
    63   31  110 1    
    64   32   33 am   BACKBONE|DICT|INTERRES
    65   32  111 1    
    66   33   34 2    
    67   33   35 1    
    68   35   36 1    
    69   35   37 1    
    70   35  112 1    
    71   36  113 1    
    72   36  114 1    
    73   36  115 1    
    74   37   38 am   BACKBONE|DICT|INTERRES
    75   37  116 1    
    76   38   39 2    
    77   38   40 1    
    78   40   41 1    
    79   40   42 1    
    80   40  117 1    
    81   41  118 1    
    82   41  119 1    
    83   41  120 1    
    84   42   43 am   BACKBONE|DICT|INTERRES
    85   42  121 1    
    86   43   44 2    
    87   43   45 1    
    88   45   46 1    
    89   45   47 1    
    90   45  122 1    
    91   46  123 1    
    92   46  124 1    
    93   46  125 1    
    94   47   48 am   BACKBONE|DICT|INTERRES
    95   47  126 1    
    96   48   49 2    
    97   48   50 1    
    98   50   51 1    
    99   50   52 1    
   100   50  127 1    
   101   51  128 1    
   102   51  129 1    
   103   51  130 1    
   104   52   53 am   BACKBONE|DICT|INTERRES
   105   52  131 1    
   106   53   54 2    
   107   53   55 1    
   108   55   56 1    
   109   55   59 1    
   110   55  132 1    
   111   56   57 1    
   112   56  133 1    
   113   56  134 1    
   114   57   58 1    
   115   58  135 1    
   116   58  136 1    
   117   59   60 am   BACKBONE|DICT|INTERRES
   118   59  137 1    
   119   60   61 2    
   120   60   62 1    
   121   62   63 1    
   122   62   64 1    
   123   62  138 1    
   124   63  139 1    
   125   63  140 1    
   126   63  141 1    
   127   64   65 am   BACKBONE|DICT|INTERRES
   128   64  142 1    
   129   65   66 2    
   130   65   67 1    
   131   67   68 1    
   132   67   69 1    
   133   67  143 1    
   134   68  144 1    
   135   68  145 1    
   136   68  146 1    
   137   69   70 am   BACKBONE|DICT|INTERRES
   138   69  147 1    
   139   70   71 2    
   140   70   72 1    
   141   72   73 1    
   142   72   74 1    
   143   72  148 1    
   144   73  149 1    
   145   73  150 1    
   146   73  151 1    
   147   74   75 am   BACKBONE|DICT|INTERRES
   148   74  152 1    
   149   75   76 2    
   150   75   77 1    
   151   77   78 1    
   152   77   79 1    
   153   77  153 1    
   154   78  154 1    
   155   78  155 1    
   156   78  156 1    
   157   79   80 am   BACKBONE|DICT|INTERRES
   158   79  157 1    
   159   80   81 2    
@<TRIPOS>SUBSTRUCTURE
     1 UNK         1 GROUP             0       ****    0 ROOT    
