@<TRIPOS>MOLECULE
3R207
157   159    1
SMALL
USER_CHARGES


@<TRIPOS>ATOM
      1 CA        -48.2222  -28.9943    2.6354 C.3       0 UNK        -0.1975 
      2 C         -48.5755  -28.0164    3.7458 C.2       0 UNK         0.4852 
      3 O         -48.9389  -26.8745    3.4645 O.2       0 UNK        -0.5216 
      4 N         -48.4542  -28.4469    5.0086 N.am      1 UNK        -0.4461 
      5 CA        -48.8074  -27.6739    6.2092 C.3       1 UNK         0.0864 
      6 C6        -49.2512  -28.5929    7.3784 C.3       14 UNK        -0.0898 
      7 S7        -50.6459  -29.6847    6.9380 S.3       14 UNK        -0.2598 
      8 C8        -51.7024  -29.5536    8.4251 C.3       14 UNK         0.0286 
      9 C9        -52.5783  -28.3014    8.5338 C.ar      14 UNK        -0.0844 
     10 C10       -52.4458  -27.1907    7.6901 C.ar      14 UNK        -0.0881 
     11 C11       -53.2636  -26.0685    7.8475 C.ar      14 UNK        -0.0643 
     12 C12       -54.2561  -26.0789    8.8322 C.ar      14 UNK        -0.0930 
     13 C13       -54.4040  -27.1722    9.6890 C.ar      14 UNK        -0.0827 
     14 C14       -53.5528  -28.2717    9.5356 C.ar      14 UNK        -0.1249 
     15 C15       -55.4556  -27.1245   10.7954 C.3       14 UNK         0.0141 
     16 S16       -56.5499  -28.5824   10.8313 S.3       14 UNK        -0.2313 
     17 C17       -55.6597  -29.6964   11.9726 C.3       14 UNK        -0.0915 
     18 CA        -56.4015  -29.8986   13.3186 C.3       13 UNK         0.0968 
     19 C         -55.7534  -31.0404   14.1570 C.2       13 UNK         0.5732 
     20 N         -55.3237  -30.8190   15.3945 N.am      13 UNK        -0.7310 
     21 O         -55.6506  -32.1666   13.6763 O.2       13 UNK        -0.5035 
     22 N         -56.5442  -28.6331   14.0542 N.am      13 UNK        -0.4233 
     23 C         -57.5594  -28.3516   14.8815 C.2       13 UNK         0.4989 
     24 O         -58.5368  -29.0875   15.0326 O.2       13 UNK        -0.4996 
     25 CA        -57.4716  -27.0303   15.6776 C.3       12 UNK         0.0216 
     26 CB        -58.3138  -27.0620   16.9714 C.3       12 UNK        -0.1964 
     27 N         -56.0977  -26.6013   15.9747 N.am      12 UNK        -0.4276 
     28 C         -55.1568  -27.2972   16.6292 C.2       12 UNK         0.5020 
     29 O         -55.3198  -28.4293   17.0904 O.2       12 UNK        -0.5489 
     30 CA        -53.7784  -26.6286   16.7385 C.3       11 UNK         0.0294 
     31 CB        -53.3391  -26.5013   18.2063 C.3       11 UNK        -0.2019 
     32 N         -52.7480  -27.3494   15.9888 N.am      11 UNK        -0.4493 
     33 C         -52.7835  -27.6680   14.6877 C.2       11 UNK         0.4932 
     34 O         -53.7485  -27.4506   13.9528 O.2       11 UNK        -0.5029 
     35 CA        -51.5001  -28.3015   14.1155 C.3       10 UNK         0.0280 
     36 CB        -51.6102  -28.6315   12.6156 C.3       10 UNK        -0.1976 
     37 N         -50.3479  -27.4209   14.3299 N.am      10 UNK        -0.4242 
     38 C         -49.6393  -27.3479   15.4672 C.2       10 UNK         0.5072 
     39 O         -49.8675  -28.0483   16.4547 O.2       10 UNK        -0.5224 
     40 CA        -48.5239  -26.2940   15.5379 C.3       9 UNK         0.0343 
     41 CB        -47.2012  -26.8625   15.0048 C.3       9 UNK        -0.2003 
     42 N         -48.8897  -25.0740   14.8113 N.am      9 UNK        -0.4272 
     43 C         -49.6783  -24.1244   15.3392 C.2       9 UNK         0.4988 
     44 O         -50.0885  -24.1452   16.5007 O.2       9 UNK        -0.5108 
     45 CA        -50.0981  -22.9648   14.4220 C.3       8 UNK         0.0248 
     46 CB        -48.8849  -22.1762   13.9085 C.3       8 UNK        -0.2001 
     47 N         -50.9159  -23.4208   13.2965 N.am      8 UNK        -0.4140 
     48 C         -52.1496  -23.9374   13.4109 C.2       8 UNK         0.5028 
     49 O         -52.7394  -24.0368   14.4868 O.2       8 UNK        -0.5428 
     50 CA        -52.8818  -24.3893   12.1301 C.3       7 UNK         0.0264 
     51 CB        -54.2855  -23.7632   12.0479 C.3       7 UNK        -0.1988 
     52 N         -52.1712  -24.1010   10.8825 N.am      7 UNK        -0.4454 
     53 C         -51.1083  -24.7709   10.4243 C.2       7 UNK         0.5027 
     54 O         -50.5695  -25.6836   11.0528 O.2       7 UNK        -0.5083 
     55 CA        -50.5293  -24.3510    9.0518 C.3       6 UNK         0.0844 
     56 C56       -51.2088  -23.1371    8.3467 C.3       14 UNK        -0.0967 
     57 S57       -52.9729  -23.2865    7.8804 S.3       14 UNK        -0.2604 
     58 C58       -53.0779  -24.8520    6.9463 C.3       14 UNK         0.0134 
     59 N         -49.0817  -24.1721    9.1693 N.am      6 UNK        -0.4116 
     60 C         -48.4448  -23.2519    9.9101 C.2       5 UNK         0.5034 
     61 O         -49.0146  -22.3602   10.5421 O.2       5 UNK        -0.5045 
     62 CA        -46.9105  -23.3945    9.9695 C.3       5 UNK         0.0224 
     63 CB        -46.2204  -22.4196   10.9456 C.3       5 UNK        -0.1978 
     64 N         -46.5059  -24.7787   10.2351 N.am      5 UNK        -0.4737 
     65 C         -46.8871  -25.5574   11.2612 C.2       4 UNK         0.5027 
     66 O         -47.5120  -25.1487   12.2415 O.2       4 UNK        -0.5211 
     67 CA        -46.5636  -27.0592   11.1563 C.3       4 UNK         0.0297 
     68 CB        -47.8677  -27.8746   11.1029 C.3       4 UNK        -0.1993 
     69 N         -45.7721  -27.3751    9.9643 N.am      4 UNK        -0.4486 
     70 C         -44.4410  -27.5278    9.9456 C.2       3 UNK         0.4961 
     71 O         -43.7297  -27.4768   10.9492 O.2       3 UNK        -0.5105 
     72 CA        -43.7827  -27.7715    8.5739 C.3       3 UNK         0.0299 
     73 CB        -43.5874  -29.2776    8.3359 C.3       3 UNK        -0.1972 
     74 N         -44.5270  -27.1987    7.4475 N.am      3 UNK        -0.4305 
     75 C         -44.7139  -25.8873    7.2371 C.2       2 UNK         0.5006 
     76 O         -44.2675  -25.0044    7.9687 O.2       2 UNK        -0.5106 
     77 CA        -45.5961  -25.4941    6.0397 C.3       2 UNK         0.0296 
     78 CB        -44.7479  -25.3588    4.7651 C.3       2 UNK        -0.2002 
     79 N         -46.7084  -26.4182    5.7914 N.am      2 UNK        -0.4032 
     80 C         -47.6919  -26.7013    6.6590 C.2       1 UNK         0.5000 
     81 O         -47.7276  -26.2331    7.7991 O.2       1 UNK        -0.5238 
     82 H82       -49.0870  -29.1588    1.9930 H         1 UNK         0.0889 
     83 H83       -47.9037  -29.9599    3.0280 H         1 UNK         0.0889 
     84 H84       -47.4145  -28.5932    2.0237 H         1 UNK         0.0889 
     85 H85       -48.1546  -29.3969    5.1795 H         1 UNK         0.3028 
     86 H86       -49.6542  -27.0341    5.9559 H         1 UNK         0.0864 
     87 H87       -48.4221  -29.2149    7.7207 H         1 UNK         0.0720 
     88 H88       -49.5556  -27.9896    8.2351 H         1 UNK         0.0720 
     89 H89       -51.0767  -29.6284    9.3160 H         1 UNK         0.0814 
     90 H90       -52.3535  -30.4290    8.4378 H         1 UNK         0.0814 
     91 H91       -51.7042  -27.1846    6.9082 H         1 UNK         0.1469 
     92 H92       -54.8994  -25.2172    8.9442 H         1 UNK         0.1381 
     93 H93       -53.6489  -29.1215   10.1934 H         1 UNK         0.1206 
     94 H94       -54.9635  -26.9971   11.7579 H         1 UNK         0.0813 
     95 H95       -56.0914  -26.2473   10.6698 H         1 UNK         0.0813 
     96 H96       -54.6577  -29.3153   12.1628 H         1 UNK         0.0638 
     97 H97       -55.5316  -30.6476   11.4528 H         1 UNK         0.0638 
     98 H98       -57.4010  -30.2620   13.0729 H         1 UNK         0.0568 
     99 H99       -54.9185  -31.5828   15.9106 H         1 UNK         0.3450 
    100 H100      -55.4130  -29.9098   15.8387 H         1 UNK         0.3450 
    101 H101      -55.7427  -28.0125   14.0175 H         1 UNK         0.2987 
    102 H102      -57.8957  -26.2641   15.0271 H         1 UNK         0.0766 
    103 H103      -58.2568  -26.1137   17.5058 H         1 UNK         0.0798 
    104 H104      -57.9816  -27.8492   17.6492 H         1 UNK         0.0798 
    105 H105      -59.3667  -27.2440   16.7522 H         1 UNK         0.0798 
    106 H106      -55.8350  -25.7008   15.5967 H         1 UNK         0.3198 
    107 H107      -53.8391  -25.6229   16.3190 H         1 UNK         0.0843 
    108 H108      -53.2055  -27.4780   18.6736 H         1 UNK         0.0831 
    109 H109      -54.0836  -25.9591   18.7907 H         1 UNK         0.0831 
    110 H110      -52.3993  -25.9550   18.2924 H         1 UNK         0.0831 
    111 H111      -51.9014  -27.5857   16.4941 H         1 UNK         0.3133 
    112 H112      -51.3348  -29.2418   14.6457 H         1 UNK         0.0566 
    113 H113      -51.8827  -27.7573   12.0238 H         1 UNK         0.0814 
    114 H114      -50.6726  -29.0227   12.2212 H         1 UNK         0.0814 
    115 H115      -52.3701  -29.3927   12.4433 H         1 UNK         0.0814 
    116 H116      -50.1292  -26.7771   13.5815 H         1 UNK         0.3091 
    117 H117      -48.3676  -26.0432   16.5895 H         1 UNK         0.0702 
    118 H118      -46.4180  -26.1045   14.9856 H         1 UNK         0.0785 
    119 H119      -47.3117  -27.2592   13.9982 H         1 UNK         0.0785 
    120 H120      -46.8500  -27.6801   15.6356 H         1 UNK         0.0785 
    121 H121      -48.5465  -24.9837   13.8563 H         1 UNK         0.2998 
    122 H122      -50.7073  -22.2802   15.0162 H         1 UNK         0.0697 
    123 H123      -48.2610  -22.7871   13.2597 H         1 UNK         0.0825 
    124 H124      -48.2619  -21.8302   14.7342 H         1 UNK         0.0825 
    125 H125      -49.1927  -21.2978   13.3409 H         1 UNK         0.0825 
    126 H126      -50.4945  -23.3757   12.3783 H         1 UNK         0.3029 
    127 H127      -52.9997  -25.4723   12.2037 H         1 UNK         0.0897 
    128 H128      -54.8937  -24.0514   12.9064 H         1 UNK         0.0792 
    129 H129      -54.8183  -24.0896   11.1556 H         1 UNK         0.0792 
    130 H130      -54.2390  -22.6737   12.0307 H         1 UNK         0.0792 
    131 H131      -52.5611  -23.3776   10.2931 H         1 UNK         0.3086 
    132 H132      -50.6409  -25.2189    8.4045 H         1 UNK         0.0583 
    133 H133      -51.1078  -22.2381    8.9570 H         1 UNK         0.1020 
    134 H134      -50.6628  -22.9157    7.4282 H         1 UNK         0.1020 
    135 H135      -53.9326  -24.7947    6.2711 H         1 UNK         0.0694 
    136 H136      -52.1937  -24.9538    6.3150 H         1 UNK         0.0694 
    137 H137      -48.5217  -24.9050    8.7371 H         1 UNK         0.2989 
    138 H138      -46.5540  -23.1547    8.9662 H         1 UNK         0.1055 
    139 H139      -46.5370  -21.3910   10.7685 H         1 UNK         0.0806 
    140 H140      -45.1378  -22.4486   10.8226 H         1 UNK         0.0806 
    141 H141      -46.4367  -22.6563   11.9854 H         1 UNK         0.0806 
    142 H142      -45.9725  -25.2171    9.4957 H         1 UNK         0.3061 
    143 H143      -46.0131  -27.3427   12.0549 H         1 UNK         0.0734 
    144 H144      -47.6710  -28.9442   11.0327 H         1 UNK         0.0832 
    145 H145      -48.4716  -27.7132   11.9956 H         1 UNK         0.0832 
    146 H146      -48.4843  -27.5852   10.2523 H         1 UNK         0.0832 
    147 H147      -46.2779  -27.3910    9.0879 H         1 UNK         0.3156 
    148 H148      -42.7981  -27.2994    8.5957 H         1 UNK         0.0589 
    149 H149      -44.5400  -29.8063    8.2827 H         1 UNK         0.0808 
    150 H150      -43.0440  -29.4672    7.4100 H         1 UNK         0.0808 
    151 H151      -43.0103  -29.7284    9.1448 H         1 UNK         0.0808 
    152 H152      -44.9278  -27.8501    6.7883 H         1 UNK         0.3098 
    153 H153      -46.0301  -24.5174    6.2645 H         1 UNK         0.0720 
    154 H154      -45.3414  -24.9825    3.9315 H         1 UNK         0.0791 
    155 H155      -44.3125  -26.3127    4.4643 H         1 UNK         0.0791 
    156 H156      -43.9253  -24.6581    4.9161 H         1 UNK         0.0791 
    157 H157      -46.7658  -26.8270    4.8699 H         1 UNK         0.3028 
@<TRIPOS>BOND
     1    1    2 1    
     2    1   82 1    
     3    1   83 1    
     4    1   84 1    
     5    2    3 2    
     6    2    4 am   BACKBONE|DICT|INTERRES
     7    4    5 1    
     8    4   85 1    
     9    5    6 1    
    10    5   80 1    
    11    5   86 1    
    12    6    7 1    
    13    6   87 1    
    14    6   88 1    
    15    7    8 1    
    16    8    9 1    
    17    8   89 1    
    18    8   90 1    
    19    9   10 ar   
    20    9   14 ar   
    21   10   11 ar   
    22   10   91 1    
    23   11   12 ar   
    24   11   58 1    
    25   12   13 ar   
    26   12   92 1    
    27   13   14 ar   
    28   13   15 1    
    29   14   93 1    
    30   15   16 1    
    31   15   94 1    
    32   15   95 1    
    33   16   17 1    
    34   17   18 1    
    35   17   96 1    
    36   17   97 1    
    37   18   19 1    
    38   18   22 1    
    39   18   98 1    
    40   19   20 am   BACKBONE|DICT|INTERRES
    41   19   21 2    
    42   20   99 1    
    43   20  100 1    
    44   22   23 am   BACKBONE|DICT|INTERRES
    45   22  101 1    
    46   23   24 2    
    47   23   25 1    
    48   25   26 1    
    49   25   27 1    
    50   25  102 1    
    51   26  103 1    
    52   26  104 1    
    53   26  105 1    
    54   27   28 am   BACKBONE|DICT|INTERRES
    55   27  106 1    
    56   28   29 2    
    57   28   30 1    
    58   30   31 1    
    59   30   32 1    
    60   30  107 1    
    61   31  108 1    
    62   31  109 1    
    63   31  110 1    
    64   32   33 am   BACKBONE|DICT|INTERRES
    65   32  111 1    
    66   33   34 2    
    67   33   35 1    
    68   35   36 1    
    69   35   37 1    
    70   35  112 1    
    71   36  113 1    
    72   36  114 1    
    73   36  115 1    
    74   37   38 am   BACKBONE|DICT|INTERRES
    75   37  116 1    
    76   38   39 2    
    77   38   40 1    
    78   40   41 1    
    79   40   42 1    
    80   40  117 1    
    81   41  118 1    
    82   41  119 1    
    83   41  120 1    
    84   42   43 am   BACKBONE|DICT|INTERRES
    85   42  121 1    
    86   43   44 2    
    87   43   45 1    
    88   45   46 1    
    89   45   47 1    
    90   45  122 1    
    91   46  123 1    
    92   46  124 1    
    93   46  125 1    
    94   47   48 am   BACKBONE|DICT|INTERRES
    95   47  126 1    
    96   48   49 2    
    97   48   50 1    
    98   50   51 1    
    99   50   52 1    
   100   50  127 1    
   101   51  128 1    
   102   51  129 1    
   103   51  130 1    
   104   52   53 am   BACKBONE|DICT|INTERRES
   105   52  131 1    
   106   53   54 2    
   107   53   55 1    
   108   55   56 1    
   109   55   59 1    
   110   55  132 1    
   111   56   57 1    
   112   56  133 1    
   113   56  134 1    
   114   57   58 1    
   115   58  135 1    
   116   58  136 1    
   117   59   60 am   BACKBONE|DICT|INTERRES
   118   59  137 1    
   119   60   61 2    
   120   60   62 1    
   121   62   63 1    
   122   62   64 1    
   123   62  138 1    
   124   63  139 1    
   125   63  140 1    
   126   63  141 1    
   127   64   65 am   BACKBONE|DICT|INTERRES
   128   64  142 1    
   129   65   66 2    
   130   65   67 1    
   131   67   68 1    
   132   67   69 1    
   133   67  143 1    
   134   68  144 1    
   135   68  145 1    
   136   68  146 1    
   137   69   70 am   BACKBONE|DICT|INTERRES
   138   69  147 1    
   139   70   71 2    
   140   70   72 1    
   141   72   73 1    
   142   72   74 1    
   143   72  148 1    
   144   73  149 1    
   145   73  150 1    
   146   73  151 1    
   147   74   75 am   BACKBONE|DICT|INTERRES
   148   74  152 1    
   149   75   76 2    
   150   75   77 1    
   151   77   78 1    
   152   77   79 1    
   153   77  153 1    
   154   78  154 1    
   155   78  155 1    
   156   78  156 1    
   157   79   80 am   BACKBONE|DICT|INTERRES
   158   79  157 1    
   159   80   81 2    
@<TRIPOS>SUBSTRUCTURE
     1 UNK         1 GROUP             0       ****    0 ROOT    
