@<TRIPOS>MOLECULE
3R207
157   159    1
SMALL
USER_CHARGES


@<TRIPOS>ATOM
      1 CA        -47.7425  -30.7473   10.6499 C.3       0 UNK        -0.1975 
      2 C         -47.4710  -30.7540    9.1522 C.2       0 UNK         0.4852 
      3 O         -46.3129  -30.7380    8.7356 O.2       0 UNK        -0.5216 
      4 N         -48.5370  -30.7790    8.3424 N.am      1 UNK        -0.4461 
      5 CA        -48.5116  -30.7871    6.8723 C.3       1 UNK         0.0864 
      6 C6        -49.8869  -31.2004    6.2851 C.3       14 UNK        -0.0898 
      7 S7        -51.2926  -30.2988    7.0238 S.3       14 UNK        -0.2598 
      8 C8        -51.8041  -29.2148    5.6575 C.3       14 UNK         0.0286 
      9 C9        -52.7666  -28.1445    6.1498 C.ar      14 UNK        -0.0844 
     10 C10       -52.3955  -26.7976    6.1282 C.ar      14 UNK        -0.0881 
     11 C11       -53.2658  -25.8082    6.6003 C.ar      14 UNK        -0.0643 
     12 C12       -54.5174  -26.1806    7.1018 C.ar      14 UNK        -0.0930 
     13 C13       -54.9035  -27.5255    7.1211 C.ar      14 UNK        -0.0827 
     14 C14       -54.0287  -28.4997    6.6335 C.ar      14 UNK        -0.1249 
     15 C15       -56.2647  -27.9339    7.6680 C.3       14 UNK         0.0141 
     16 S16       -56.1236  -28.7513    9.2894 S.3       14 UNK        -0.2313 
     17 C17       -55.4183  -27.3984   10.2897 C.3       14 UNK        -0.0915 
     18 CA        -55.7621  -27.4752   11.7989 C.3       13 UNK         0.0968 
     19 C         -57.2636  -27.1829   12.0893 C.2       13 UNK         0.5732 
     20 N         -58.0076  -28.0798   12.7266 N.am      13 UNK        -0.7310 
     21 O         -57.7602  -26.1133   11.7438 O.2       13 UNK        -0.5035 
     22 N         -55.2369  -28.7056   12.4142 N.am      13 UNK        -0.4233 
     23 C         -54.8679  -28.8063   13.6963 C.2       13 UNK         0.4989 
     24 O         -54.9004  -27.8662   14.4923 O.2       13 UNK        -0.4996 
     25 CA        -54.3991  -30.1785   14.2105 C.3       12 UNK         0.0216 
     26 CB        -54.6226  -31.3623   13.2384 C.3       12 UNK        -0.1964 
     27 N         -53.0153  -30.0734   14.6830 N.am      12 UNK        -0.4276 
     28 C         -51.8994  -29.9790   13.9478 C.2       12 UNK         0.5020 
     29 O         -51.8502  -30.1583   12.7313 O.2       12 UNK        -0.5489 
     30 CA        -50.6291  -29.5590   14.7122 C.3       11 UNK         0.0294 
     31 CB        -49.3358  -29.8382   13.9228 C.3       11 UNK        -0.2019 
     32 N         -50.6828  -28.1356   15.0559 N.am      11 UNK        -0.4493 
     33 C         -51.4270  -27.6108   16.0409 C.2       11 UNK         0.4932 
     34 O         -52.1215  -28.2912   16.8001 O.2       11 UNK        -0.5029 
     35 CA        -51.3757  -26.0777   16.1996 C.3       10 UNK         0.0280 
     36 CB        -52.0090  -25.5794   17.5156 C.3       10 UNK        -0.1976 
     37 N         -50.0195  -25.5452   16.0303 N.am      10 UNK        -0.4242 
     38 C         -48.9266  -25.8481   16.7499 C.2       10 UNK         0.5072 
     39 O         -48.9418  -26.5486   17.7630 O.2       10 UNK        -0.5224 
     40 CA        -47.5764  -25.3039   16.2521 C.3       9 UNK         0.0343 
     41 CB        -46.6899  -26.4550   15.7457 C.3       9 UNK        -0.2003 
     42 N         -47.7310  -24.3095   15.1830 N.am      9 UNK        -0.4272 
     43 C         -47.2311  -23.0674   15.2294 C.2       9 UNK         0.4988 
     44 O         -46.5351  -22.6427   16.1530 O.2       9 UNK        -0.5108 
     45 CA        -47.5584  -22.1178   14.0627 C.3       8 UNK         0.0248 
     46 CB        -46.4285  -22.1021   13.0193 C.3       8 UNK        -0.2001 
     47 N         -48.8532  -22.3466   13.4058 N.am      8 UNK        -0.4140 
     48 C         -50.0318  -22.1120   14.0044 C.2       8 UNK         0.5028 
     49 O         -50.1467  -21.9131   15.2140 O.2       8 UNK        -0.5428 
     50 CA        -51.2929  -22.0070   13.1345 C.3       7 UNK         0.0264 
     51 CB        -51.5354  -20.5250   12.7740 C.3       7 UNK        -0.1988 
     52 N         -51.2722  -22.8342   11.9235 N.am      7 UNK        -0.4454 
     53 C         -52.3676  -23.1031   11.1943 C.2       7 UNK         0.5027 
     54 O         -53.4969  -22.6954   11.4725 O.2       7 UNK        -0.5083 
     55 CA        -52.1799  -23.9743    9.9361 C.3       6 UNK         0.0844 
     56 C56       -51.6397  -23.1014    8.7756 C.3       14 UNK        -0.0967 
     57 S57       -51.2351  -24.0178    7.2536 S.3       14 UNK        -0.2604 
     58 C58       -52.8726  -24.3371    6.5229 C.3       14 UNK         0.0134 
     59 N         -51.3838  -25.1771   10.1970 N.am      6 UNK        -0.4116 
     60 C         -51.7033  -26.1243   11.0925 C.2       5 UNK         0.5034 
     61 O         -52.6780  -26.0746   11.8405 O.2       5 UNK        -0.5045 
     62 CA        -50.7639  -27.3279   11.1853 C.3       5 UNK         0.0224 
     63 CB        -51.0734  -28.3463   10.0772 C.3       5 UNK        -0.1978 
     64 N         -49.3630  -26.9190   11.1204 N.am      5 UNK        -0.4737 
     65 C         -48.6922  -26.3926   12.1522 C.2       4 UNK         0.5027 
     66 O         -49.1596  -26.2693   13.2849 O.2       4 UNK        -0.5211 
     67 CA        -47.2696  -25.8832   11.8690 C.3       4 UNK         0.0297 
     68 CB        -46.2587  -27.0389   11.9335 C.3       4 UNK        -0.1993 
     69 N         -47.1372  -25.2041   10.5790 N.am      4 UNK        -0.4486 
     70 C         -47.8586  -24.1572   10.1529 C.2       3 UNK         0.4961 
     71 O         -48.6653  -23.5404   10.8527 O.2       3 UNK        -0.5105 
     72 CA        -47.6826  -23.7620    8.6750 C.3       3 UNK         0.0299 
     73 CB        -46.6146  -22.6648    8.5500 C.3       3 UNK        -0.1972 
     74 N         -47.3547  -24.8721    7.7643 N.am      3 UNK        -0.4305 
     75 C         -48.0071  -26.0417    7.6606 C.2       2 UNK         0.5006 
     76 O         -48.9700  -26.3512    8.3669 O.2       2 UNK        -0.5106 
     77 CA        -47.4680  -27.0591    6.6424 C.3       2 UNK         0.0296 
     78 CB        -45.9223  -27.0976    6.6073 C.3       2 UNK        -0.2002 
     79 N         -48.0014  -28.3740    6.9935 N.am      2 UNK        -0.4032 
     80 C         -47.9816  -29.4788    6.2389 C.2       1 UNK         0.5000 
     81 O         -47.5517  -29.5057    5.0838 O.2       1 UNK        -0.5238 
     82 H82       -48.7649  -31.0488   10.8779 H         1 UNK         0.0889 
     83 H83       -47.5839  -29.7509   11.0584 H         1 UNK         0.0889 
     84 H84       -47.0693  -31.4363   11.1592 H         1 UNK         0.0889 
     85 H85       -49.4661  -30.7955    8.7402 H         1 UNK         0.3028 
     86 H86       -47.7955  -31.5579    6.5788 H         1 UNK         0.0864 
     87 H87       -49.9028  -31.1045    5.1974 H         1 UNK         0.0720 
     88 H88       -50.0511  -32.2610    6.4813 H         1 UNK         0.0720 
     89 H89       -50.9207  -28.7591    5.2071 H         1 UNK         0.0814 
     90 H90       -52.2828  -29.8101    4.8788 H         1 UNK         0.0814 
     91 H91       -51.4244  -26.5140    5.7459 H         1 UNK         0.1469 
     92 H92       -55.1959  -25.4230    7.4690 H         1 UNK         0.1381 
     93 H93       -54.3205  -29.5411    6.6546 H         1 UNK         0.1206 
     94 H94       -56.9268  -27.0709    7.7536 H         1 UNK         0.0813 
     95 H95       -56.7450  -28.6185    6.9676 H         1 UNK         0.0813 
     96 H96       -55.7396  -26.4382    9.8827 H         1 UNK         0.0638 
     97 H97       -54.3365  -27.4238   10.1564 H         1 UNK         0.0638 
     98 H98       -55.2361  -26.6391   12.2625 H         1 UNK         0.0568 
     99 H99       -58.9762  -27.8736   12.9125 H         1 UNK         0.3450 
    100 H100      -57.6144  -28.9611   13.0129 H         1 UNK         0.3450 
    101 H101      -55.1838  -29.5149   11.8139 H         1 UNK         0.2987 
    102 H102      -54.9987  -30.3824   15.0990 H         1 UNK         0.0766 
    103 H103      -54.2711  -32.2967   13.6760 H         1 UNK         0.0798 
    104 H104      -54.1092  -31.2336   12.2855 H         1 UNK         0.0798 
    105 H105      -55.6836  -31.4920   13.0214 H         1 UNK         0.0798 
    106 H106      -52.9224  -29.7836   15.6526 H         1 UNK         0.3198 
    107 H107      -50.5841  -30.1437   15.6338 H         1 UNK         0.0843 
    108 H108      -49.3001  -29.2850   12.9852 H         1 UNK         0.0831 
    109 H109      -49.2541  -30.8973   13.6758 H         1 UNK         0.0831 
    110 H110      -48.4518  -29.5704   14.5016 H         1 UNK         0.0831 
    111 H111      -50.1518  -27.5015   14.4644 H         1 UNK         0.3133 
    112 H112      -51.9657  -25.6713   15.3765 H         1 UNK         0.0566 
    113 H113      -51.9703  -24.4924   17.5872 H         1 UNK         0.0814 
    114 H114      -53.0582  -25.8709   17.5771 H         1 UNK         0.0814 
    115 H115      -51.5061  -25.9923   18.3905 H         1 UNK         0.0814 
    116 H116      -49.8857  -24.9841   15.2031 H         1 UNK         0.3091 
    117 H117      -47.0877  -24.8576   17.1205 H         1 UNK         0.0702 
    118 H118      -46.4557  -27.1490   16.5540 H         1 UNK         0.0785 
    119 H119      -47.1860  -27.0291   14.9640 H         1 UNK         0.0785 
    120 H120      -45.7435  -26.0873   15.3490 H         1 UNK         0.0785 
    121 H121      -48.2619  -24.5984   14.3715 H         1 UNK         0.2998 
    122 H122      -47.6026  -21.1144   14.4924 H         1 UNK         0.0697 
    123 H123      -46.3032  -23.0642   12.5281 H         1 UNK         0.0825 
    124 H124      -45.4741  -21.8531   13.4854 H         1 UNK         0.0825 
    125 H125      -46.6127  -21.3555   12.2467 H         1 UNK         0.0825 
    126 H126      -48.8197  -22.5560   12.4116 H         1 UNK         0.3029 
    127 H127      -52.1224  -22.3502   13.7573 H         1 UNK         0.0897 
    128 H128      -52.5126  -20.3707   12.3172 H         1 UNK         0.0792 
    129 H129      -50.7798  -20.1535   12.0808 H         1 UNK         0.0792 
    130 H130      -51.5014  -19.8928   13.6627 H         1 UNK         0.0792 
    131 H131      -50.3788  -23.2150   11.6211 H         1 UNK         0.3086 
    132 H132      -53.1699  -24.3296    9.6420 H         1 UNK         0.0583 
    133 H133      -52.3559  -22.3155    8.5273 H         1 UNK         0.1020 
    134 H134      -50.7322  -22.5796    9.0845 H         1 UNK         0.1020 
    135 H135      -53.6239  -23.7052    6.9984 H         1 UNK         0.0694 
    136 H136      -52.8460  -24.0426    5.4731 H         1 UNK         0.0694 
    137 H137      -50.5804  -25.3255    9.5990 H         1 UNK         0.2989 
    138 H138      -50.9477  -27.8040   12.1478 H         1 UNK         0.1055 
    139 H139      -52.1037  -28.6970   10.1533 H         1 UNK         0.0806 
    140 H140      -50.4335  -29.2231   10.1589 H         1 UNK         0.0806 
    141 H141      -50.9513  -27.9234    9.0796 H         1 UNK         0.0806 
    142 H142      -48.9515  -26.8756   10.1928 H         1 UNK         0.3061 
    143 H143      -47.0173  -25.1734   12.6543 H         1 UNK         0.0734 
    144 H144      -45.2346  -26.6654   11.9416 H         1 UNK         0.0832 
    145 H145      -46.3894  -27.6358   12.8365 H         1 UNK         0.0832 
    146 H146      -46.3596  -27.7128   11.0826 H         1 UNK         0.0832 
    147 H147      -46.4946  -25.6178    9.9201 H         1 UNK         0.3156 
    148 H148      -48.6295  -23.3430    8.3386 H         1 UNK         0.0589 
    149 H149      -45.6247  -23.0294    8.8278 H         1 UNK         0.0808 
    150 H150      -46.5582  -22.2785    7.5322 H         1 UNK         0.0808 
    151 H151      -46.8445  -21.8197    9.2010 H         1 UNK         0.0808 
    152 H152      -46.5723  -24.7164    7.1454 H         1 UNK         0.3098 
    153 H153      -47.8510  -26.7782    5.6596 H         1 UNK         0.0720 
    154 H154      -45.5554  -27.8580    5.9180 H         1 UNK         0.0791 
    155 H155      -45.5040  -27.3184    7.5903 H         1 UNK         0.0791 
    156 H156      -45.5006  -26.1505    6.2701 H         1 UNK         0.0791 
    157 H157      -48.4581  -28.4067    7.8955 H         1 UNK         0.3028 
@<TRIPOS>BOND
     1    1    2 1    
     2    1   82 1    
     3    1   83 1    
     4    1   84 1    
     5    2    3 2    
     6    2    4 am   BACKBONE|DICT|INTERRES
     7    4    5 1    
     8    4   85 1    
     9    5    6 1    
    10    5   80 1    
    11    5   86 1    
    12    6    7 1    
    13    6   87 1    
    14    6   88 1    
    15    7    8 1    
    16    8    9 1    
    17    8   89 1    
    18    8   90 1    
    19    9   10 ar   
    20    9   14 ar   
    21   10   11 ar   
    22   10   91 1    
    23   11   12 ar   
    24   11   58 1    
    25   12   13 ar   
    26   12   92 1    
    27   13   14 ar   
    28   13   15 1    
    29   14   93 1    
    30   15   16 1    
    31   15   94 1    
    32   15   95 1    
    33   16   17 1    
    34   17   18 1    
    35   17   96 1    
    36   17   97 1    
    37   18   19 1    
    38   18   22 1    
    39   18   98 1    
    40   19   20 am   BACKBONE|DICT|INTERRES
    41   19   21 2    
    42   20   99 1    
    43   20  100 1    
    44   22   23 am   BACKBONE|DICT|INTERRES
    45   22  101 1    
    46   23   24 2    
    47   23   25 1    
    48   25   26 1    
    49   25   27 1    
    50   25  102 1    
    51   26  103 1    
    52   26  104 1    
    53   26  105 1    
    54   27   28 am   BACKBONE|DICT|INTERRES
    55   27  106 1    
    56   28   29 2    
    57   28   30 1    
    58   30   31 1    
    59   30   32 1    
    60   30  107 1    
    61   31  108 1    
    62   31  109 1    
    63   31  110 1    
    64   32   33 am   BACKBONE|DICT|INTERRES
    65   32  111 1    
    66   33   34 2    
    67   33   35 1    
    68   35   36 1    
    69   35   37 1    
    70   35  112 1    
    71   36  113 1    
    72   36  114 1    
    73   36  115 1    
    74   37   38 am   BACKBONE|DICT|INTERRES
    75   37  116 1    
    76   38   39 2    
    77   38   40 1    
    78   40   41 1    
    79   40   42 1    
    80   40  117 1    
    81   41  118 1    
    82   41  119 1    
    83   41  120 1    
    84   42   43 am   BACKBONE|DICT|INTERRES
    85   42  121 1    
    86   43   44 2    
    87   43   45 1    
    88   45   46 1    
    89   45   47 1    
    90   45  122 1    
    91   46  123 1    
    92   46  124 1    
    93   46  125 1    
    94   47   48 am   BACKBONE|DICT|INTERRES
    95   47  126 1    
    96   48   49 2    
    97   48   50 1    
    98   50   51 1    
    99   50   52 1    
   100   50  127 1    
   101   51  128 1    
   102   51  129 1    
   103   51  130 1    
   104   52   53 am   BACKBONE|DICT|INTERRES
   105   52  131 1    
   106   53   54 2    
   107   53   55 1    
   108   55   56 1    
   109   55   59 1    
   110   55  132 1    
   111   56   57 1    
   112   56  133 1    
   113   56  134 1    
   114   57   58 1    
   115   58  135 1    
   116   58  136 1    
   117   59   60 am   BACKBONE|DICT|INTERRES
   118   59  137 1    
   119   60   61 2    
   120   60   62 1    
   121   62   63 1    
   122   62   64 1    
   123   62  138 1    
   124   63  139 1    
   125   63  140 1    
   126   63  141 1    
   127   64   65 am   BACKBONE|DICT|INTERRES
   128   64  142 1    
   129   65   66 2    
   130   65   67 1    
   131   67   68 1    
   132   67   69 1    
   133   67  143 1    
   134   68  144 1    
   135   68  145 1    
   136   68  146 1    
   137   69   70 am   BACKBONE|DICT|INTERRES
   138   69  147 1    
   139   70   71 2    
   140   70   72 1    
   141   72   73 1    
   142   72   74 1    
   143   72  148 1    
   144   73  149 1    
   145   73  150 1    
   146   73  151 1    
   147   74   75 am   BACKBONE|DICT|INTERRES
   148   74  152 1    
   149   75   76 2    
   150   75   77 1    
   151   77   78 1    
   152   77   79 1    
   153   77  153 1    
   154   78  154 1    
   155   78  155 1    
   156   78  156 1    
   157   79   80 am   BACKBONE|DICT|INTERRES
   158   79  157 1    
   159   80   81 2    
@<TRIPOS>SUBSTRUCTURE
     1 UNK         1 GROUP             0       ****    0 ROOT    
