@<TRIPOS>MOLECULE
3R207
157   159    1
SMALL
USER_CHARGES


@<TRIPOS>ATOM
      1 CA        -44.7457  -29.6042    9.0020 C.3       0 UNK        -0.1975 
      2 C         -45.1960  -29.5351    7.5510 C.2       0 UNK         0.4852 
      3 O         -44.3768  -29.6893    6.6434 O.2       0 UNK        -0.5216 
      4 N         -46.4897  -29.2852    7.3188 N.am      1 UNK        -0.4461 
      5 CA        -47.1272  -29.1667    6.0032 C.3       1 UNK         0.0864 
      6 C6        -48.6404  -29.5108    6.0695 C.3       14 UNK        -0.0898 
      7 S7        -49.5794  -28.6785    7.4037 S.3       14 UNK        -0.2598 
      8 C8        -50.8931  -27.8616    6.4442 C.3       14 UNK         0.0286 
      9 C9        -52.0723  -27.4545    7.3175 C.ar      14 UNK        -0.0844 
     10 C10       -52.4142  -26.1075    7.4790 C.ar      14 UNK        -0.0881 
     11 C11       -53.5464  -25.7442    8.2176 C.ar      14 UNK        -0.0643 
     12 C12       -54.3369  -26.7419    8.7961 C.ar      14 UNK        -0.0930 
     13 C13       -54.0056  -28.0900    8.6417 C.ar      14 UNK        -0.0827 
     14 C14       -52.8702  -28.4397    7.9068 C.ar      14 UNK        -0.1249 
     15 C15       -54.9083  -29.1680    9.2183 C.3       14 UNK         0.0141 
     16 S16       -54.6333  -29.4003   10.9989 S.3       14 UNK        -0.2313 
     17 C17       -55.8758  -30.6919   11.3385 C.3       14 UNK        -0.0915 
     18 CA        -57.2132  -30.1107   11.8689 C.3       13 UNK         0.0968 
     19 C         -58.3253  -31.2006   11.8849 C.2       13 UNK         0.5732 
     20 N         -58.8525  -31.6035   13.0353 N.am      13 UNK        -0.7310 
     21 O         -58.7232  -31.6847   10.8279 O.2       13 UNK        -0.5035 
     22 N         -57.0220  -29.4112   13.1490 N.am      13 UNK        -0.4233 
     23 C         -57.8591  -28.5028   13.6675 C.2       13 UNK         0.4989 
     24 O         -58.8864  -28.1194   13.1066 O.2       13 UNK        -0.4996 
     25 CA        -57.5072  -27.9330   15.0553 C.3       12 UNK         0.0216 
     26 CB        -58.4129  -28.5513   16.1339 C.3       12 UNK        -0.1964 
     27 N         -56.1043  -28.1459   15.4282 N.am      12 UNK        -0.4276 
     28 C         -55.0836  -27.4107   14.9699 C.2       12 UNK         0.5020 
     29 O         -55.2172  -26.4421   14.2195 O.2       12 UNK        -0.5489 
     30 CA        -53.6785  -27.8778   15.3808 C.3       11 UNK         0.0294 
     31 CB        -53.0823  -28.7981   14.3040 C.3       11 UNK        -0.2019 
     32 N         -52.7656  -26.7584   15.6022 N.am      11 UNK        -0.4493 
     33 C         -52.8116  -25.9317   16.6566 C.2       11 UNK         0.4932 
     34 O         -53.6695  -25.9986   17.5392 O.2       11 UNK        -0.5029 
     35 CA        -51.6811  -24.8852   16.7552 C.3       10 UNK         0.0280 
     36 CB        -51.5431  -24.2688   18.1634 C.3       10 UNK        -0.1976 
     37 N         -50.3946  -25.4097   16.2799 N.am      10 UNK        -0.4242 
     38 C         -49.7156  -26.4663   16.7573 C.2       10 UNK         0.5072 
     39 O         -50.0235  -27.0793   17.7803 O.2       10 UNK        -0.5224 
     40 CA        -48.5023  -26.9494   15.9436 C.3       9 UNK         0.0343 
     41 CB        -48.7785  -28.3363   15.3352 C.3       9 UNK        -0.2003 
     42 N         -48.1553  -26.0228   14.8618 N.am      9 UNK        -0.4272 
     43 C         -47.0844  -25.2185   14.8676 C.2       9 UNK         0.4988 
     44 O         -46.2522  -25.1824   15.7748 O.2       9 UNK        -0.5108 
     45 CA        -46.9069  -24.2932   13.6551 C.3       8 UNK         0.0248 
     46 CB        -46.2612  -25.0512   12.4833 C.3       8 UNK        -0.2001 
     47 N         -48.1534  -23.6724   13.2030 N.am      8 UNK        -0.4140 
     48 C         -48.8348  -22.7327   13.8737 C.2       8 UNK         0.5028 
     49 O         -48.5381  -22.3465   15.0041 O.2       8 UNK        -0.5428 
     50 CA        -50.0469  -22.1127   13.1650 C.3       7 UNK         0.0264 
     51 CB        -49.5897  -21.1137   12.0886 C.3       7 UNK        -0.1988 
     52 N         -50.8778  -23.1416   12.5413 N.am      7 UNK        -0.4454 
     53 C         -52.1174  -23.4689   12.9328 C.2       7 UNK         0.5027 
     54 O         -52.7114  -22.9050   13.8525 O.2       7 UNK        -0.5083 
     55 CA        -52.8300  -24.6206   12.1854 C.3       6 UNK         0.0844 
     56 C56       -53.8617  -24.0740   11.1676 C.3       14 UNK        -0.0967 
     57 S57       -53.0952  -23.3888    9.6523 S.3       14 UNK        -0.2604 
     58 C58       -53.9626  -24.2825    8.3245 C.3       14 UNK         0.0134 
     59 N         -51.9215  -25.5863   11.5647 N.am      6 UNK        -0.4116 
     60 C         -50.9998  -26.3190   12.1981 C.2       5 UNK         0.5034 
     61 O         -50.8370  -26.3195   13.4189 O.2       5 UNK        -0.5045 
     62 CA        -50.0500  -27.1386   11.3119 C.3       5 UNK         0.0224 
     63 CB        -50.6194  -28.5469   11.0858 C.3       5 UNK        -0.1978 
     64 N         -49.7356  -26.5213   10.0152 N.am      5 UNK        -0.4737 
     65 C         -49.2207  -25.2963    9.8370 C.2       4 UNK         0.5027 
     66 O         -49.0590  -24.4793   10.7443 O.2       4 UNK        -0.5211 
     67 CA        -48.8141  -24.9071    8.4083 C.3       4 UNK         0.0297 
     68 CB        -49.5530  -23.6336    7.9652 C.3       4 UNK        -0.1993 
     69 N         -47.3735  -24.6763    8.2805 N.am      4 UNK        -0.4486 
     70 C         -46.4013  -25.5363    8.6086 C.2       3 UNK         0.4961 
     71 O         -46.5874  -26.6545    9.0912 O.2       3 UNK        -0.5105 
     72 CA        -44.9744  -25.1071    8.2392 C.3       3 UNK         0.0299 
     73 CB        -43.9446  -25.5313    9.3013 C.3       3 UNK        -0.1972 
     74 N         -44.6570  -25.7550    6.9721 N.am      3 UNK        -0.4305 
     75 C         -44.9934  -25.2755    5.7666 C.2       2 UNK         0.5006 
     76 O         -45.3629  -24.1189    5.5608 O.2       2 UNK        -0.5106 
     77 CA        -44.9786  -26.2905    4.6112 C.3       2 UNK         0.0296 
     78 CB        -43.5552  -26.4844    4.0642 C.3       2 UNK        -0.2002 
     79 N         -45.5287  -27.5822    5.0350 N.am      2 UNK        -0.4032 
     80 C         -46.8142  -27.8001    5.3529 C.2       1 UNK         0.5000 
     81 O         -47.7068  -26.9683    5.1781 O.2       1 UNK        -0.5238 
     82 H82       -45.4919  -29.1843    9.6767 H         1 UNK         0.0889 
     83 H83       -43.8185  -29.0486    9.1371 H         1 UNK         0.0889 
     84 H84       -44.5666  -30.6398    9.2895 H         1 UNK         0.0889 
     85 H85       -47.1011  -29.0836    8.0992 H         1 UNK         0.3028 
     86 H86       -46.6755  -29.9146    5.3472 H         1 UNK         0.0864 
     87 H87       -49.1117  -29.3278    5.1022 H         1 UNK         0.0720 
     88 H88       -48.7476  -30.5834    6.2371 H         1 UNK         0.0720 
     89 H89       -51.2588  -28.5413    5.6733 H         1 UNK         0.0814 
     90 H90       -50.4711  -27.0012    5.9223 H         1 UNK         0.0814 
     91 H91       -51.8230  -25.3429    6.9961 H         1 UNK         0.1469 
     92 H92       -55.2292  -26.4754    9.3454 H         1 UNK         0.1381 
     93 H93       -52.6171  -29.4825    7.7707 H         1 UNK         0.1206 
     94 H94       -54.7432  -30.1148    8.7016 H         1 UNK         0.0813 
     95 H95       -55.9520  -28.9013    9.0455 H         1 UNK         0.0813 
     96 H96       -55.4525  -31.3896   12.0631 H         1 UNK         0.0638 
     97 H97       -56.0345  -31.2703   10.4262 H         1 UNK         0.0638 
     98 H98       -57.5528  -29.3669   11.1455 H         1 UNK         0.0568 
     99 H99       -59.5746  -32.3065   13.0261 H         1 UNK         0.3450 
    100 H100      -58.5370  -31.2153   13.9086 H         1 UNK         0.3450 
    101 H101      -56.1986  -29.6639   13.6714 H         1 UNK         0.2987 
    102 H102      -57.7018  -26.8586   15.0240 H         1 UNK         0.0766 
    103 H103      -58.2280  -28.1036   17.1107 H         1 UNK         0.0798 
    104 H104      -58.2629  -29.6278   16.2236 H         1 UNK         0.0798 
    105 H105      -59.4661  -28.3877   15.9006 H         1 UNK         0.0798 
    106 H106      -55.9118  -28.9170   16.0525 H         1 UNK         0.3198 
    107 H107      -53.7498  -28.4397   16.3149 H         1 UNK         0.0843 
    108 H108      -53.7008  -29.6836   14.1542 H         1 UNK         0.0831 
    109 H109      -52.0860  -29.1433   14.5806 H         1 UNK         0.0831 
    110 H110      -53.0062  -28.2895   13.3425 H         1 UNK         0.0831 
    111 H111      -52.0491  -26.6095   14.8973 H         1 UNK         0.3133 
    112 H112      -51.9515  -24.0795   16.0738 H         1 UNK         0.0566 
    113 H113      -50.7415  -23.5309   18.1958 H         1 UNK         0.0814 
    114 H114      -52.4620  -23.7608   18.4582 H         1 UNK         0.0814 
    115 H115      -51.3344  -25.0257   18.9199 H         1 UNK         0.0814 
    116 H116      -50.0512  -24.9972   15.4253 H         1 UNK         0.3091 
    117 H117      -47.6703  -27.0507   16.6435 H         1 UNK         0.0702 
    118 H118      -47.9138  -28.7055   14.7836 H         1 UNK         0.0785 
    119 H119      -49.6288  -28.3215   14.6535 H         1 UNK         0.0785 
    120 H120      -49.0006  -29.0674   16.1138 H         1 UNK         0.0785 
    121 H121      -48.7982  -25.9883   14.0805 H         1 UNK         0.2998 
    122 H122      -46.2279  -23.4904   13.9506 H         1 UNK         0.0697 
    123 H123      -45.3051  -25.4868   12.7764 H         1 UNK         0.0825 
    124 H124      -46.0709  -24.3841   11.6427 H         1 UNK         0.0825 
    125 H125      -46.8939  -25.8635   12.1232 H         1 UNK         0.0825 
    126 H126      -48.4676  -23.9293   12.2665 H         1 UNK         0.3029 
    127 H127      -50.6168  -21.5601   13.9152 H         1 UNK         0.0897 
    128 H128      -50.4427  -20.6167   11.6263 H         1 UNK         0.0792 
    129 H129      -48.9558  -20.3373   12.5192 H         1 UNK         0.0792 
    130 H130      -49.0197  -21.6012   11.2963 H         1 UNK         0.0792 
    131 H131      -50.4508  -23.6635   11.7807 H         1 UNK         0.3086 
    132 H132      -53.3814  -25.1701   12.9484 H         1 UNK         0.0583 
    133 H133      -54.4869  -23.3033   11.6232 H         1 UNK         0.1020 
    134 H134      -54.5534  -24.8726   10.9023 H         1 UNK         0.1020 
    135 H135      -55.0399  -24.1994    8.4772 H         1 UNK         0.0694 
    136 H136      -53.7560  -23.7797    7.3786 H         1 UNK         0.0694 
    137 H137      -51.9630  -25.6411   10.5567 H         1 UNK         0.2989 
    138 H138      -49.1083  -27.2360   11.8555 H         1 UNK         0.1055 
    139 H139      -50.8312  -29.0419   12.0346 H         1 UNK         0.0806 
    140 H140      -49.9160  -29.1787   10.5435 H         1 UNK         0.0806 
    141 H141      -51.5506  -28.5185   10.5186 H         1 UNK         0.0806 
    142 H142      -49.8219  -27.1244    9.2061 H         1 UNK         0.3061 
    143 H143      -49.0802  -25.7173    7.7277 H         1 UNK         0.0734 
    144 H144      -50.6292  -23.7357    8.0924 H         1 UNK         0.0832 
    145 H145      -49.2463  -22.7656    8.5506 H         1 UNK         0.0832 
    146 H146      -49.3707  -23.4129    6.9134 H         1 UNK         0.0832 
    147 H147      -47.1026  -23.8000    7.8581 H         1 UNK         0.3156 
    148 H148      -44.9299  -24.0209    8.1329 H         1 UNK         0.0589 
    149 H149      -43.9515  -26.6074    9.4755 H         1 UNK         0.0808 
    150 H150      -42.9341  -25.2480    9.0065 H         1 UNK         0.0808 
    151 H151      -44.1496  -25.0468   10.2559 H         1 UNK         0.0808 
    152 H152      -44.3896  -26.7262    7.0317 H         1 UNK         0.3098 
    153 H153      -45.6061  -25.8970    3.8085 H         1 UNK         0.0720 
    154 H154      -43.5502  -27.1542    3.2040 H         1 UNK         0.0791 
    155 H155      -42.8827  -26.8997    4.8159 H         1 UNK         0.0791 
    156 H156      -43.1317  -25.5341    3.7360 H         1 UNK         0.0791 
    157 H157      -44.8673  -28.3210    5.2554 H         1 UNK         0.3028 
@<TRIPOS>BOND
     1    1    2 1    
     2    1   82 1    
     3    1   83 1    
     4    1   84 1    
     5    2    3 2    
     6    2    4 am   BACKBONE|DICT|INTERRES
     7    4    5 1    
     8    4   85 1    
     9    5    6 1    
    10    5   80 1    
    11    5   86 1    
    12    6    7 1    
    13    6   87 1    
    14    6   88 1    
    15    7    8 1    
    16    8    9 1    
    17    8   89 1    
    18    8   90 1    
    19    9   10 ar   
    20    9   14 ar   
    21   10   11 ar   
    22   10   91 1    
    23   11   12 ar   
    24   11   58 1    
    25   12   13 ar   
    26   12   92 1    
    27   13   14 ar   
    28   13   15 1    
    29   14   93 1    
    30   15   16 1    
    31   15   94 1    
    32   15   95 1    
    33   16   17 1    
    34   17   18 1    
    35   17   96 1    
    36   17   97 1    
    37   18   19 1    
    38   18   22 1    
    39   18   98 1    
    40   19   20 am   BACKBONE|DICT|INTERRES
    41   19   21 2    
    42   20   99 1    
    43   20  100 1    
    44   22   23 am   BACKBONE|DICT|INTERRES
    45   22  101 1    
    46   23   24 2    
    47   23   25 1    
    48   25   26 1    
    49   25   27 1    
    50   25  102 1    
    51   26  103 1    
    52   26  104 1    
    53   26  105 1    
    54   27   28 am   BACKBONE|DICT|INTERRES
    55   27  106 1    
    56   28   29 2    
    57   28   30 1    
    58   30   31 1    
    59   30   32 1    
    60   30  107 1    
    61   31  108 1    
    62   31  109 1    
    63   31  110 1    
    64   32   33 am   BACKBONE|DICT|INTERRES
    65   32  111 1    
    66   33   34 2    
    67   33   35 1    
    68   35   36 1    
    69   35   37 1    
    70   35  112 1    
    71   36  113 1    
    72   36  114 1    
    73   36  115 1    
    74   37   38 am   BACKBONE|DICT|INTERRES
    75   37  116 1    
    76   38   39 2    
    77   38   40 1    
    78   40   41 1    
    79   40   42 1    
    80   40  117 1    
    81   41  118 1    
    82   41  119 1    
    83   41  120 1    
    84   42   43 am   BACKBONE|DICT|INTERRES
    85   42  121 1    
    86   43   44 2    
    87   43   45 1    
    88   45   46 1    
    89   45   47 1    
    90   45  122 1    
    91   46  123 1    
    92   46  124 1    
    93   46  125 1    
    94   47   48 am   BACKBONE|DICT|INTERRES
    95   47  126 1    
    96   48   49 2    
    97   48   50 1    
    98   50   51 1    
    99   50   52 1    
   100   50  127 1    
   101   51  128 1    
   102   51  129 1    
   103   51  130 1    
   104   52   53 am   BACKBONE|DICT|INTERRES
   105   52  131 1    
   106   53   54 2    
   107   53   55 1    
   108   55   56 1    
   109   55   59 1    
   110   55  132 1    
   111   56   57 1    
   112   56  133 1    
   113   56  134 1    
   114   57   58 1    
   115   58  135 1    
   116   58  136 1    
   117   59   60 am   BACKBONE|DICT|INTERRES
   118   59  137 1    
   119   60   61 2    
   120   60   62 1    
   121   62   63 1    
   122   62   64 1    
   123   62  138 1    
   124   63  139 1    
   125   63  140 1    
   126   63  141 1    
   127   64   65 am   BACKBONE|DICT|INTERRES
   128   64  142 1    
   129   65   66 2    
   130   65   67 1    
   131   67   68 1    
   132   67   69 1    
   133   67  143 1    
   134   68  144 1    
   135   68  145 1    
   136   68  146 1    
   137   69   70 am   BACKBONE|DICT|INTERRES
   138   69  147 1    
   139   70   71 2    
   140   70   72 1    
   141   72   73 1    
   142   72   74 1    
   143   72  148 1    
   144   73  149 1    
   145   73  150 1    
   146   73  151 1    
   147   74   75 am   BACKBONE|DICT|INTERRES
   148   74  152 1    
   149   75   76 2    
   150   75   77 1    
   151   77   78 1    
   152   77   79 1    
   153   77  153 1    
   154   78  154 1    
   155   78  155 1    
   156   78  156 1    
   157   79   80 am   BACKBONE|DICT|INTERRES
   158   79  157 1    
   159   80   81 2    
@<TRIPOS>SUBSTRUCTURE
     1 UNK         1 GROUP             0       ****    0 ROOT    
