@<TRIPOS>MOLECULE
3R207
157   159    1
SMALL
USER_CHARGES


@<TRIPOS>ATOM
      1 CA        -43.8659  -30.0499    8.4765 C.3       0 UNK        -0.1975 
      2 C         -44.6393  -29.9049    7.1739 C.2       0 UNK         0.4852 
      3 O         -44.0319  -29.8611    6.1028 O.2       0 UNK        -0.5216 
      4 N         -45.9738  -29.8385    7.2590 N.am      1 UNK        -0.4461 
      5 CA        -46.8771  -29.6002    6.1295 C.3       1 UNK         0.0864 
      6 C6        -48.3199  -30.0628    6.4665 C.3       14 UNK        -0.0898 
      7 S7        -49.1479  -29.0968    7.7835 S.3       14 UNK        -0.2598 
      8 C8        -50.7778  -28.8186    7.0191 C.3       14 UNK         0.0286 
      9 C9        -51.7235  -28.0683    7.9465 C.ar      14 UNK        -0.0844 
     10 C10       -52.1009  -26.7514    7.6631 C.ar      14 UNK        -0.0881 
     11 C11       -52.9935  -26.0717    8.4996 C.ar      14 UNK        -0.0643 
     12 C12       -53.4941  -26.7162    9.6346 C.ar      14 UNK        -0.0930 
     13 C13       -53.1200  -28.0283    9.9327 C.ar      14 UNK        -0.0827 
     14 C14       -52.2474  -28.7045    9.0761 C.ar      14 UNK        -0.1249 
     15 C15       -53.6404  -28.7040   11.1923 C.3       14 UNK         0.0141 
     16 S16       -54.9331  -29.9364   10.8372 S.3       14 UNK        -0.2313 
     17 C17       -56.3224  -28.8992   10.2554 C.3       14 UNK        -0.0915 
     18 CA        -57.5490  -28.8864   11.2054 C.3       13 UNK         0.0968 
     19 C         -58.2919  -30.2561   11.2349 C.2       13 UNK         0.5732 
     20 N         -58.3994  -30.9338   12.3719 N.am      13 UNK        -0.7310 
     21 O         -58.7943  -30.7037   10.2065 O.2       13 UNK        -0.5035 
     22 N         -57.2089  -28.3223   12.5218 N.am      13 UNK        -0.4233 
     23 C         -58.0896  -27.7996   13.3845 C.2       13 UNK         0.4989 
     24 O         -59.2938  -27.6996   13.1433 O.2       13 UNK        -0.4996 
     25 CA        -57.5405  -27.3219   14.7453 C.3       12 UNK         0.0216 
     26 CB        -58.6447  -27.2034   15.8139 C.3       12 UNK        -0.1964 
     27 N         -56.4805  -28.1981   15.2564 N.am      12 UNK        -0.4276 
     28 C         -55.1749  -28.0485   15.0087 C.2       12 UNK         0.5020 
     29 O         -54.7073  -27.1556   14.2978 O.2       12 UNK        -0.5489 
     30 CA        -54.2406  -29.0962   15.6193 C.3       11 UNK         0.0294 
     31 CB        -54.2391  -30.3913   14.7847 C.3       11 UNK        -0.2019 
     32 N         -52.8982  -28.5294   15.6741 N.am      11 UNK        -0.4493 
     33 C         -51.9072  -28.9409   16.4715 C.2       11 UNK         0.4932 
     34 O         -52.0006  -29.8992   17.2395 O.2       11 UNK        -0.5029 
     35 CA        -50.5854  -28.1571   16.4119 C.3       10 UNK         0.0280 
     36 CB        -49.5815  -28.8581   15.4838 C.3       10 UNK        -0.1976 
     37 N         -50.7450  -26.7658   15.9828 N.am      10 UNK        -0.4242 
     38 C         -51.2478  -25.7834   16.7432 C.2       10 UNK         0.5072 
     39 O         -51.7204  -25.9591   17.8683 O.2       10 UNK        -0.5224 
     40 CA        -51.1582  -24.3641   16.1469 C.3       9 UNK         0.0343 
     41 CB        -51.5615  -23.2555   17.1416 C.3       9 UNK        -0.2003 
     42 N         -49.8330  -24.0959   15.5729 N.am      9 UNK        -0.4272 
     43 C         -48.6436  -24.1486   16.1960 C.2       9 UNK         0.4988 
     44 O         -48.5060  -24.3323   17.4060 O.2       9 UNK        -0.5108 
     45 CA        -47.3792  -24.0117   15.3260 C.3       8 UNK         0.0248 
     46 CB        -46.7223  -25.3889   15.1360 C.3       8 UNK        -0.2001 
     47 N         -47.6271  -23.4165   14.0104 N.am      8 UNK        -0.4140 
     48 C         -47.9059  -22.1220   13.8041 C.2       8 UNK         0.5028 
     49 O         -47.9163  -21.2712   14.6947 O.2       8 UNK        -0.5428 
     50 CA        -48.2671  -21.7127   12.3669 C.3       7 UNK         0.0264 
     51 CB        -46.9986  -21.4835   11.5295 C.3       7 UNK        -0.1988 
     52 N         -49.1282  -22.6837   11.6869 N.am      7 UNK        -0.4454 
     53 C         -50.3672  -23.0286   12.0704 C.2       7 UNK         0.5027 
     54 O         -50.9331  -22.5729   13.0639 O.2       7 UNK        -0.5083 
     55 CA        -51.0750  -24.0905   11.2073 C.3       6 UNK         0.0844 
     56 C56       -51.4714  -23.5122    9.8159 C.3       14 UNK        -0.0967 
     57 S57       -53.2718  -23.4906    9.5530 S.3       14 UNK        -0.2604 
     58 C58       -53.4413  -24.6545    8.1581 C.3       14 UNK         0.0134 
     59 N         -50.2394  -25.2877   11.0933 N.am      6 UNK        -0.4116 
     60 C         -49.9048  -26.1103   12.0982 C.2       5 UNK         0.5034 
     61 O         -50.3540  -26.0310   13.2418 O.2       5 UNK        -0.5045 
     62 CA        -48.8463  -27.1823   11.7874 C.3       5 UNK         0.0224 
     63 CB        -49.5085  -28.5204   11.4375 C.3       5 UNK        -0.1978 
     64 N         -47.9333  -26.7885   10.7084 N.am      5 UNK        -0.4737 
     65 C         -47.0211  -25.8132   10.8242 C.2       4 UNK         0.5027 
     66 O         -46.8366  -25.1716   11.8578 O.2       4 UNK        -0.5211 
     67 CA        -46.2286  -25.4560    9.5578 C.3       4 UNK         0.0297 
     68 CB        -45.1241  -26.4933    9.3025 C.3       4 UNK        -0.1993 
     69 N         -47.0772  -25.3195    8.3667 N.am      4 UNK        -0.4486 
     70 C         -48.0395  -24.3917    8.2302 C.2       3 UNK         0.4961 
     71 O         -48.3306  -23.5968    9.1241 O.2       3 UNK        -0.5105 
     72 CA        -48.8221  -24.3293    6.9056 C.3       3 UNK         0.0299 
     73 CB        -49.1819  -22.8868    6.5026 C.3       3 UNK        -0.1972 
     74 N         -48.1012  -24.9812    5.8154 N.am      3 UNK        -0.4305 
     75 C         -48.6574  -25.7575    4.8787 C.2       2 UNK         0.5006 
     76 O         -49.8703  -25.9320    4.7561 O.2       2 UNK        -0.5106 
     77 CA        -47.6950  -26.5177    3.9466 C.3       2 UNK         0.0296 
     78 CB        -46.4031  -25.7373    3.6115 C.3       2 UNK        -0.2002 
     79 N         -47.3978  -27.8507    4.4872 N.am      2 UNK        -0.4032 
     80 C         -46.8367  -28.1246    5.6759 C.2       1 UNK         0.5000 
     81 O         -46.3657  -27.2632    6.4257 O.2       1 UNK        -0.5238 
     82 H82       -44.5284  -30.1093    9.3399 H         1 UNK         0.0889 
     83 H83       -43.2045  -29.1951    8.6153 H         1 UNK         0.0889 
     84 H84       -43.2569  -30.9532    8.4537 H         1 UNK         0.0889 
     85 H85       -46.4198  -29.8574    8.1645 H         1 UNK         0.3028 
     86 H86       -46.5218  -30.2035    5.2911 H         1 UNK         0.0864 
     87 H87       -48.9330  -30.0444    5.5639 H         1 UNK         0.0720 
     88 H88       -48.3057  -31.1085    6.7781 H         1 UNK         0.0720 
     89 H89       -51.2224  -29.7802    6.7581 H         1 UNK         0.0814 
     90 H90       -50.6457  -28.2740    6.0828 H         1 UNK         0.0814 
     91 H91       -51.7142  -26.2633    6.7786 H         1 UNK         0.1469 
     92 H92       -54.1765  -26.1908   10.2884 H         1 UNK         0.1381 
     93 H93       -51.9608  -29.7234    9.2987 H         1 UNK         0.1206 
     94 H94       -52.8116  -29.1989   11.7002 H         1 UNK         0.0813 
     95 H95       -54.0258  -27.9635   11.8931 H         1 UNK         0.0813 
     96 H96       -55.9789  -27.8761   10.1067 H         1 UNK         0.0638 
     97 H97       -56.6119  -29.2494    9.2631 H         1 UNK         0.0638 
     98 H98       -58.2674  -28.1980   10.7562 H         1 UNK         0.0568 
     99 H99       -57.9960  -30.5755   13.2210 H         1 UNK         0.3450 
    100 H100      -58.8883  -31.8148   12.3755 H         1 UNK         0.3450 
    101 H101      -56.2358  -28.3613   12.7865 H         1 UNK         0.2987 
    102 H102      -57.1339  -26.3213   14.5830 H         1 UNK         0.0766 
    103 H103      -58.2422  -26.8468   16.7623 H         1 UNK         0.0798 
    104 H104      -59.1362  -28.1600   15.9957 H         1 UNK         0.0798 
    105 H105      -59.4145  -26.4936   15.5077 H         1 UNK         0.0798 
    106 H106      -56.7806  -28.9777   15.8255 H         1 UNK         0.3198 
    107 H107      -54.5792  -29.3105   16.6355 H         1 UNK         0.0843 
    108 H108      -53.8638  -30.2196   13.7760 H         1 UNK         0.0831 
    109 H109      -55.2430  -30.8076   14.6935 H         1 UNK         0.0831 
    110 H110      -53.6154  -31.1587   15.2433 H         1 UNK         0.0831 
    111 H111      -52.7739  -27.7057   15.0967 H         1 UNK         0.3133 
    112 H112      -50.1633  -28.1510   17.4191 H         1 UNK         0.0566 
    113 H113      -48.6197  -28.3450   15.4762 H         1 UNK         0.0814 
    114 H114      -49.3995  -29.8833   15.8092 H         1 UNK         0.0814 
    115 H115      -49.9486  -28.9026   14.4597 H         1 UNK         0.0814 
    116 H116      -50.4412  -26.5297   15.0399 H         1 UNK         0.3091 
    117 H117      -51.8632  -24.3356   15.3144 H         1 UNK         0.0702 
    118 H118      -52.5871  -23.3948   17.4853 H         1 UNK         0.0785 
    119 H119      -51.5056  -22.2706   16.6779 H         1 UNK         0.0785 
    120 H120      -50.9208  -23.2483   18.0240 H         1 UNK         0.0785 
    121 H121      -49.8319  -23.9313   14.5744 H         1 UNK         0.2998 
    122 H122      -46.6783  -23.3701   15.8642 H         1 UNK         0.0697 
    123 H123      -47.3820  -26.0782   14.6087 H         1 UNK         0.0825 
    124 H124      -46.4771  -25.8430   16.0971 H         1 UNK         0.0825 
    125 H125      -45.7951  -25.3123   14.5677 H         1 UNK         0.0825 
    126 H126      -47.5509  -24.0349   13.2051 H         1 UNK         0.3029 
    127 H127      -48.8159  -20.7702   12.4222 H         1 UNK         0.0897 
    128 H128      -47.2433  -21.1123   10.5340 H         1 UNK         0.0792 
    129 H129      -46.4231  -22.4023   11.4093 H         1 UNK         0.0792 
    130 H130      -46.3464  -20.7467   12.0003 H         1 UNK         0.0792 
    131 H131      -48.7565  -23.0926   10.8300 H         1 UNK         0.3086 
    132 H132      -51.9753  -24.3916   11.7478 H         1 UNK         0.0583 
    133 H133      -51.1126  -22.4917    9.6634 H         1 UNK         0.1020 
    134 H134      -51.0098  -24.0830    9.0114 H         1 UNK         0.1020 
    135 H135      -54.4880  -24.6843    7.8531 H         1 UNK         0.0694 
    136 H136      -52.8831  -24.2643    7.3054 H         1 UNK         0.0694 
    137 H137      -49.7860  -25.4344   10.2052 H         1 UNK         0.2989 
    138 H138      -48.2582  -27.3250   12.6963 H         1 UNK         0.1055 
    139 H139      -50.2490  -28.8099   12.1830 H         1 UNK         0.0806 
    140 H140      -50.0235  -28.4625   10.4828 H         1 UNK         0.0806 
    141 H141      -48.7748  -29.3240   11.3741 H         1 UNK         0.0806 
    142 H142      -48.0300  -27.2641    9.8216 H         1 UNK         0.3061 
    143 H143      -45.7503  -24.4899    9.7324 H         1 UNK         0.0734 
    144 H144      -44.5091  -26.2163    8.4461 H         1 UNK         0.0832 
    145 H145      -44.4611  -26.5795   10.1645 H         1 UNK         0.0832 
    146 H146      -45.5382  -27.4826    9.1082 H         1 UNK         0.0832 
    147 H147      -46.9041  -25.9875    7.6155 H         1 UNK         0.3156 
    148 H148      -49.7503  -24.8710    7.0927 H         1 UNK         0.0589 
    149 H149      -48.2888  -22.2838    6.3355 H         1 UNK         0.0808 
    150 H150      -49.7757  -22.8679    5.5887 H         1 UNK         0.0808 
    151 H151      -49.7707  -22.3929    7.2765 H         1 UNK         0.0808 
    152 H152      -47.0917  -24.9328    5.8518 H         1 UNK         0.3098 
    153 H153      -48.2322  -26.6739    3.0097 H         1 UNK         0.0720 
    154 H154      -45.8273  -26.2542    2.8438 H         1 UNK         0.0791 
    155 H155      -45.7489  -25.6057    4.4732 H         1 UNK         0.0791 
    156 H156      -46.6369  -24.7454    3.2222 H         1 UNK         0.0791 
    157 H157      -47.7751  -28.6209    3.9527 H         1 UNK         0.3028 
@<TRIPOS>BOND
     1    1    2 1    
     2    1   82 1    
     3    1   83 1    
     4    1   84 1    
     5    2    3 2    
     6    2    4 am   BACKBONE|DICT|INTERRES
     7    4    5 1    
     8    4   85 1    
     9    5    6 1    
    10    5   80 1    
    11    5   86 1    
    12    6    7 1    
    13    6   87 1    
    14    6   88 1    
    15    7    8 1    
    16    8    9 1    
    17    8   89 1    
    18    8   90 1    
    19    9   10 ar   
    20    9   14 ar   
    21   10   11 ar   
    22   10   91 1    
    23   11   12 ar   
    24   11   58 1    
    25   12   13 ar   
    26   12   92 1    
    27   13   14 ar   
    28   13   15 1    
    29   14   93 1    
    30   15   16 1    
    31   15   94 1    
    32   15   95 1    
    33   16   17 1    
    34   17   18 1    
    35   17   96 1    
    36   17   97 1    
    37   18   19 1    
    38   18   22 1    
    39   18   98 1    
    40   19   20 am   BACKBONE|DICT|INTERRES
    41   19   21 2    
    42   20   99 1    
    43   20  100 1    
    44   22   23 am   BACKBONE|DICT|INTERRES
    45   22  101 1    
    46   23   24 2    
    47   23   25 1    
    48   25   26 1    
    49   25   27 1    
    50   25  102 1    
    51   26  103 1    
    52   26  104 1    
    53   26  105 1    
    54   27   28 am   BACKBONE|DICT|INTERRES
    55   27  106 1    
    56   28   29 2    
    57   28   30 1    
    58   30   31 1    
    59   30   32 1    
    60   30  107 1    
    61   31  108 1    
    62   31  109 1    
    63   31  110 1    
    64   32   33 am   BACKBONE|DICT|INTERRES
    65   32  111 1    
    66   33   34 2    
    67   33   35 1    
    68   35   36 1    
    69   35   37 1    
    70   35  112 1    
    71   36  113 1    
    72   36  114 1    
    73   36  115 1    
    74   37   38 am   BACKBONE|DICT|INTERRES
    75   37  116 1    
    76   38   39 2    
    77   38   40 1    
    78   40   41 1    
    79   40   42 1    
    80   40  117 1    
    81   41  118 1    
    82   41  119 1    
    83   41  120 1    
    84   42   43 am   BACKBONE|DICT|INTERRES
    85   42  121 1    
    86   43   44 2    
    87   43   45 1    
    88   45   46 1    
    89   45   47 1    
    90   45  122 1    
    91   46  123 1    
    92   46  124 1    
    93   46  125 1    
    94   47   48 am   BACKBONE|DICT|INTERRES
    95   47  126 1    
    96   48   49 2    
    97   48   50 1    
    98   50   51 1    
    99   50   52 1    
   100   50  127 1    
   101   51  128 1    
   102   51  129 1    
   103   51  130 1    
   104   52   53 am   BACKBONE|DICT|INTERRES
   105   52  131 1    
   106   53   54 2    
   107   53   55 1    
   108   55   56 1    
   109   55   59 1    
   110   55  132 1    
   111   56   57 1    
   112   56  133 1    
   113   56  134 1    
   114   57   58 1    
   115   58  135 1    
   116   58  136 1    
   117   59   60 am   BACKBONE|DICT|INTERRES
   118   59  137 1    
   119   60   61 2    
   120   60   62 1    
   121   62   63 1    
   122   62   64 1    
   123   62  138 1    
   124   63  139 1    
   125   63  140 1    
   126   63  141 1    
   127   64   65 am   BACKBONE|DICT|INTERRES
   128   64  142 1    
   129   65   66 2    
   130   65   67 1    
   131   67   68 1    
   132   67   69 1    
   133   67  143 1    
   134   68  144 1    
   135   68  145 1    
   136   68  146 1    
   137   69   70 am   BACKBONE|DICT|INTERRES
   138   69  147 1    
   139   70   71 2    
   140   70   72 1    
   141   72   73 1    
   142   72   74 1    
   143   72  148 1    
   144   73  149 1    
   145   73  150 1    
   146   73  151 1    
   147   74   75 am   BACKBONE|DICT|INTERRES
   148   74  152 1    
   149   75   76 2    
   150   75   77 1    
   151   77   78 1    
   152   77   79 1    
   153   77  153 1    
   154   78  154 1    
   155   78  155 1    
   156   78  156 1    
   157   79   80 am   BACKBONE|DICT|INTERRES
   158   79  157 1    
   159   80   81 2    
@<TRIPOS>SUBSTRUCTURE
     1 UNK         1 GROUP             0       ****    0 ROOT    
