@<TRIPOS>MOLECULE
3R207
157   159    1
SMALL
USER_CHARGES


@<TRIPOS>ATOM
      1 CA        -50.6348  -31.5313    8.3813 C.3       0 UNK        -0.1975 
      2 C         -49.7780  -31.1318    7.1887 C.2       0 UNK         0.4852 
      3 O         -49.0246  -31.9580    6.6730 O.2       0 UNK        -0.5216 
      4 N         -49.8882  -29.8707    6.7486 N.am      1 UNK        -0.4461 
      5 CA        -49.1392  -29.3020    5.6196 C.3       1 UNK         0.0864 
      6 C6        -49.7247  -27.9411    5.1605 C.3       14 UNK        -0.0898 
      7 S7        -51.4274  -28.0869    4.5234 S.3       14 UNK        -0.2598 
      8 C8        -52.1275  -26.4522    4.9587 C.3       14 UNK         0.0286 
      9 C9        -52.6175  -26.2778    6.4007 C.ar      14 UNK        -0.0844 
     10 C10       -53.2140  -25.0643    6.7537 C.ar      14 UNK        -0.0881 
     11 C11       -53.6998  -24.8465    8.0469 C.ar      14 UNK        -0.0643 
     12 C12       -53.5828  -25.8611    9.0042 C.ar      14 UNK        -0.0930 
     13 C13       -52.9863  -27.0858    8.6740 C.ar      14 UNK        -0.0827 
     14 C14       -52.5166  -27.2802    7.3722 C.ar      14 UNK        -0.1249 
     15 C15       -52.8093  -28.2414    9.6607 C.3       14 UNK         0.0141 
     16 S16       -53.5486  -28.0394   11.3160 S.3       14 UNK        -0.2313 
     17 C17       -52.9592  -29.5798   12.1030 C.3       14 UNK        -0.0915 
     18 CA        -54.0629  -30.3267   12.8923 C.3       13 UNK         0.0968 
     19 C         -53.6001  -31.7670   13.2701 C.2       13 UNK         0.5732 
     20 N         -53.4833  -32.1346   14.5416 N.am      13 UNK        -0.7310 
     21 O         -53.3494  -32.5777   12.3814 O.2       13 UNK        -0.5035 
     22 N         -54.5421  -29.5314   14.0329 N.am      13 UNK        -0.4233 
     23 C         -55.7200  -29.7300   14.6398 C.2       13 UNK         0.4989 
     24 O         -56.5742  -30.5142   14.2215 O.2       13 UNK        -0.4996 
     25 CA        -55.9910  -28.9296   15.9306 C.3       12 UNK         0.0216 
     26 CB        -57.0342  -29.6105   16.8423 C.3       12 UNK        -0.1964 
     27 N         -54.7825  -28.5991   16.6986 N.am      12 UNK        -0.4276 
     28 C         -53.8726  -29.4486   17.2053 C.2       12 UNK         0.5020 
     29 O         -53.9333  -30.6702   17.0566 O.2       12 UNK        -0.5489 
     30 CA        -52.6805  -28.8445   17.9759 C.3       11 UNK         0.0294 
     31 CB        -51.3631  -29.5571   17.6181 C.3       11 UNK        -0.2019 
     32 N         -52.5303  -27.4160   17.6939 N.am      11 UNK        -0.4493 
     33 C         -52.8842  -26.4142   18.5125 C.2       11 UNK         0.4932 
     34 O         -53.2873  -26.5806   19.6634 O.2       11 UNK        -0.5029 
     35 CA        -52.8149  -24.9813   17.9423 C.3       10 UNK         0.0280 
     36 CB        -51.5038  -24.3000   18.3638 C.3       10 UNK        -0.1976 
     37 N         -52.9360  -24.9291   16.4816 N.am      10 UNK        -0.4242 
     38 C         -54.0068  -25.3410   15.7840 C.2       10 UNK         0.5072 
     39 O         -55.0666  -25.6807   16.3092 O.2       10 UNK        -0.5224 
     40 CA        -53.8497  -25.4966   14.2600 C.3       9 UNK         0.0343 
     41 CB        -54.5736  -24.3644   13.5169 C.3       9 UNK        -0.2003 
     42 N         -52.4483  -25.5821   13.8281 N.am      9 UNK        -0.4272 
     43 C         -51.6281  -26.6017   14.1390 C.2       9 UNK         0.4988 
     44 O         -52.0033  -27.5789   14.7896 O.2       9 UNK        -0.5108 
     45 CA        -50.1487  -26.5213   13.7105 C.3       8 UNK         0.0248 
     46 CB        -49.8319  -27.5537   12.6178 C.3       8 UNK        -0.2001 
     47 N         -49.7395  -25.1962   13.2442 N.am      8 UNK        -0.4140 
     48 C         -49.5754  -24.1228   14.0340 C.2       8 UNK         0.5028 
     49 O         -49.7121  -24.1503   15.2575 O.2       8 UNK        -0.5428 
     50 CA        -49.2684  -22.7819   13.3351 C.3       7 UNK         0.0264 
     51 CB        -47.7523  -22.5650   13.2543 C.3       7 UNK        -0.1988 
     52 N         -49.8510  -22.6948   11.9893 N.am      7 UNK        -0.4454 
     53 C         -51.1691  -22.7899   11.7511 C.2       7 UNK         0.5027 
     54 O         -52.0049  -22.7838   12.6530 O.2       7 UNK        -0.5083 
     55 CA        -51.6618  -23.0113   10.3075 C.3       6 UNK         0.0844 
     56 C56       -52.6047  -21.8702    9.8582 C.3       14 UNK        -0.0967 
     57 S57       -53.2814  -22.0908    8.1771 S.3       14 UNK        -0.2604 
     58 C58       -54.3873  -23.5275    8.3854 C.3       14 UNK         0.0134 
     59 N         -50.6067  -23.2892    9.3319 N.am      6 UNK        -0.4116 
     60 C         -49.8042  -24.3610    9.3187 C.2       5 UNK         0.5034 
     61 O         -49.7863  -25.2190   10.2034 O.2       5 UNK        -0.5045 
     62 CA        -48.8273  -24.4771    8.1349 C.3       5 UNK         0.0224 
     63 CB        -49.1526  -23.5385    6.9519 C.3       5 UNK        -0.1978 
     64 N         -47.4224  -24.3113    8.5261 N.am      5 UNK        -0.4737 
     65 C         -46.8740  -23.3597    9.3002 C.2       4 UNK         0.5027 
     66 O         -47.5231  -22.4738    9.8592 O.2       4 UNK        -0.5211 
     67 CA        -45.3429  -23.3947    9.4988 C.3       4 UNK         0.0297 
     68 CB        -44.9815  -23.6144   10.9763 C.3       4 UNK        -0.1993 
     69 N         -44.6789  -24.4276    8.6985 N.am      4 UNK        -0.4486 
     70 C         -44.2508  -24.2660    7.4390 C.2       3 UNK         0.4961 
     71 O         -44.3043  -23.1990    6.8269 O.2       3 UNK        -0.5105 
     72 CA        -43.6852  -25.5142    6.7311 C.3       3 UNK         0.0299 
     73 CB        -42.1560  -25.5669    6.8803 C.3       3 UNK        -0.1972 
     74 N         -44.2627  -26.7883    7.1846 N.am      3 UNK        -0.4305 
     75 C         -45.5635  -27.1042    7.1189 C.2       2 UNK         0.5006 
     76 O         -46.4307  -26.3291    6.7107 O.2       2 UNK        -0.5106 
     77 CA        -45.9690  -28.4877    7.6586 C.3       2 UNK         0.0296 
     78 CB        -45.9662  -28.4823    9.1975 C.3       2 UNK        -0.2002 
     79 N         -47.3051  -28.8716    7.1985 N.am      2 UNK        -0.4032 
     80 C         -47.6350  -29.1458    5.9273 C.2       1 UNK         0.5000 
     81 O         -46.8138  -29.2623    5.0148 O.2       1 UNK        -0.5238 
     82 H82       -50.0008  -31.8069    9.2236 H         1 UNK         0.0889 
     83 H83       -51.2544  -32.3907    8.1264 H         1 UNK         0.0889 
     84 H84       -51.2931  -30.7252    8.7014 H         1 UNK         0.0889 
     85 H85       -50.5378  -29.2439    7.1971 H         1 UNK         0.3028 
     86 H86       -49.2174  -30.0028    4.7852 H         1 UNK         0.0864 
     87 H87       -49.7035  -27.2200    5.9802 H         1 UNK         0.0720 
     88 H88       -49.1176  -27.5099    4.3616 H         1 UNK         0.0720 
     89 H89       -52.9705  -26.2698    4.2907 H         1 UNK         0.0814 
     90 H90       -51.3896  -25.6804    4.7342 H         1 UNK         0.0814 
     91 H91       -53.3118  -24.2812    6.0138 H         1 UNK         0.1469 
     92 H92       -53.9626  -25.6899   10.0009 H         1 UNK         0.1381 
     93 H93       -52.0825  -28.2342    7.1221 H         1 UNK         0.1206 
     94 H94       -51.7398  -28.4161    9.7859 H         1 UNK         0.0813 
     95 H95       -53.2276  -29.1451    9.2147 H         1 UNK         0.0813 
     96 H96       -52.5465  -30.2279   11.3277 H         1 UNK         0.0638 
     97 H97       -52.1271  -29.3416   12.7632 H         1 UNK         0.0638 
     98 H98       -54.9046  -30.4651   12.2110 H         1 UNK         0.0568 
     99 H99       -53.6964  -31.4994   15.3048 H         1 UNK         0.3450 
    100 H100      -53.1870  -33.0743   14.7495 H         1 UNK         0.3450 
    101 H101      -53.8742  -28.8864   14.4344 H         1 UNK         0.2987 
    102 H102      -56.4129  -27.9780   15.6044 H         1 UNK         0.0766 
    103 H103      -56.7048  -30.5995   17.1632 H         1 UNK         0.0798 
    104 H104      -57.2288  -29.0158   17.7348 H         1 UNK         0.0798 
    105 H105      -57.9869  -29.7360   16.3264 H         1 UNK         0.0798 
    106 H106      -54.6483  -27.6060   16.8580 H         1 UNK         0.3198 
    107 H107      -52.8753  -29.0030   19.0385 H         1 UNK         0.0843 
    108 H108      -51.4030  -30.6142   17.8839 H         1 UNK         0.0831 
    109 H109      -50.5190  -29.1229   18.1539 H         1 UNK         0.0831 
    110 H110      -51.1493  -29.4981   16.5501 H         1 UNK         0.0831 
    111 H111      -52.2286  -27.1985   16.7489 H         1 UNK         0.3133 
    112 H112      -53.6482  -24.4170   18.3658 H         1 UNK         0.0566 
    113 H113      -51.4701  -23.2621   18.0316 H         1 UNK         0.0814 
    114 H114      -51.3965  -24.2955   19.4495 H         1 UNK         0.0814 
    115 H115      -50.6325  -24.8110   17.9514 H         1 UNK         0.0814 
    116 H116      -52.1051  -24.6617   15.9699 H         1 UNK         0.3091 
    117 H117      -54.3322  -26.4354   13.9802 H         1 UNK         0.0702 
    118 H118      -54.4384  -24.4427   12.4379 H         1 UNK         0.0785 
    119 H119      -54.2215  -23.3825   13.8340 H         1 UNK         0.0785 
    120 H120      -55.6461  -24.3988   13.7128 H         1 UNK         0.0785 
    121 H121      -52.0835  -24.7817   13.3254 H         1 UNK         0.2998 
    122 H122      -49.5474  -26.7667   14.5884 H         1 UNK         0.0697 
    123 H123      -50.4701  -27.4225   11.7433 H         1 UNK         0.0825 
    124 H124      -49.9769  -28.5686   12.9878 H         1 UNK         0.0825 
    125 H125      -48.7955  -27.4803   12.2878 H         1 UNK         0.0825 
    126 H126      -49.6363  -25.0881   12.2391 H         1 UNK         0.3029 
    127 H127      -49.7022  -21.9830   13.9405 H         1 UNK         0.0897 
    128 H128      -47.5062  -21.6269   12.7562 H         1 UNK         0.0792 
    129 H129      -47.3086  -22.5331   14.2503 H         1 UNK         0.0792 
    130 H130      -47.2712  -23.3759   12.7086 H         1 UNK         0.0792 
    131 H131      -49.2052  -22.6883   11.2059 H         1 UNK         0.3086 
    132 H132      -52.2606  -23.9193   10.3674 H         1 UNK         0.0583 
    133 H133      -53.4423  -21.7670   10.5515 H         1 UNK         0.1020 
    134 H134      -52.0780  -20.9142    9.8826 H         1 UNK         0.1020 
    135 H135      -54.7919  -23.5406    9.3986 H         1 UNK         0.0694 
    136 H136      -55.2424  -23.4041    7.7194 H         1 UNK         0.0694 
    137 H137      -50.5300  -22.6294    8.5723 H         1 UNK         0.2989 
    138 H138      -48.9272  -25.5022    7.7744 H         1 UNK         0.1055 
    139 H139      -48.5155  -23.7637    6.0962 H         1 UNK         0.0806 
    140 H140      -49.0000  -22.4883    7.2040 H         1 UNK         0.0806 
    141 H141      -50.1843  -23.6616    6.6177 H         1 UNK         0.0806 
    142 H142      -46.7973  -24.9801    8.0874 H         1 UNK         0.3061 
    143 H143      -44.9594  -22.4153    9.2045 H         1 UNK         0.0734 
    144 H144      -45.3228  -22.7763   11.5839 H         1 UNK         0.0832 
    145 H145      -45.4338  -24.5232   11.3754 H         1 UNK         0.0832 
    146 H146      -43.9027  -23.6853   11.1165 H         1 UNK         0.0832 
    147 H147      -44.5825  -25.3393    9.1214 H         1 UNK         0.3156 
    148 H148      -43.9186  -25.4139    5.6690 H         1 UNK         0.0589 
    149 H149      -41.8552  -25.7015    7.9201 H         1 UNK         0.0808 
    150 H150      -41.7267  -26.3816    6.2968 H         1 UNK         0.0808 
    151 H151      -41.6973  -24.6424    6.5261 H         1 UNK         0.0808 
    152 H152      -43.6142  -27.4747    7.5445 H         1 UNK         0.3098 
    153 H153      -45.2523  -29.2285    7.2979 H         1 UNK         0.0720 
    154 H154      -46.2500  -29.4562    9.5972 H         1 UNK         0.0791 
    155 H155      -46.6577  -27.7408    9.6013 H         1 UNK         0.0791 
    156 H156      -44.9754  -28.2531    9.5917 H         1 UNK         0.0791 
    157 H157      -48.0523  -28.7913    7.8708 H         1 UNK         0.3028 
@<TRIPOS>BOND
     1    1    2 1    
     2    1   82 1    
     3    1   83 1    
     4    1   84 1    
     5    2    3 2    
     6    2    4 am   BACKBONE|DICT|INTERRES
     7    4    5 1    
     8    4   85 1    
     9    5    6 1    
    10    5   80 1    
    11    5   86 1    
    12    6    7 1    
    13    6   87 1    
    14    6   88 1    
    15    7    8 1    
    16    8    9 1    
    17    8   89 1    
    18    8   90 1    
    19    9   10 ar   
    20    9   14 ar   
    21   10   11 ar   
    22   10   91 1    
    23   11   12 ar   
    24   11   58 1    
    25   12   13 ar   
    26   12   92 1    
    27   13   14 ar   
    28   13   15 1    
    29   14   93 1    
    30   15   16 1    
    31   15   94 1    
    32   15   95 1    
    33   16   17 1    
    34   17   18 1    
    35   17   96 1    
    36   17   97 1    
    37   18   19 1    
    38   18   22 1    
    39   18   98 1    
    40   19   20 am   BACKBONE|DICT|INTERRES
    41   19   21 2    
    42   20   99 1    
    43   20  100 1    
    44   22   23 am   BACKBONE|DICT|INTERRES
    45   22  101 1    
    46   23   24 2    
    47   23   25 1    
    48   25   26 1    
    49   25   27 1    
    50   25  102 1    
    51   26  103 1    
    52   26  104 1    
    53   26  105 1    
    54   27   28 am   BACKBONE|DICT|INTERRES
    55   27  106 1    
    56   28   29 2    
    57   28   30 1    
    58   30   31 1    
    59   30   32 1    
    60   30  107 1    
    61   31  108 1    
    62   31  109 1    
    63   31  110 1    
    64   32   33 am   BACKBONE|DICT|INTERRES
    65   32  111 1    
    66   33   34 2    
    67   33   35 1    
    68   35   36 1    
    69   35   37 1    
    70   35  112 1    
    71   36  113 1    
    72   36  114 1    
    73   36  115 1    
    74   37   38 am   BACKBONE|DICT|INTERRES
    75   37  116 1    
    76   38   39 2    
    77   38   40 1    
    78   40   41 1    
    79   40   42 1    
    80   40  117 1    
    81   41  118 1    
    82   41  119 1    
    83   41  120 1    
    84   42   43 am   BACKBONE|DICT|INTERRES
    85   42  121 1    
    86   43   44 2    
    87   43   45 1    
    88   45   46 1    
    89   45   47 1    
    90   45  122 1    
    91   46  123 1    
    92   46  124 1    
    93   46  125 1    
    94   47   48 am   BACKBONE|DICT|INTERRES
    95   47  126 1    
    96   48   49 2    
    97   48   50 1    
    98   50   51 1    
    99   50   52 1    
   100   50  127 1    
   101   51  128 1    
   102   51  129 1    
   103   51  130 1    
   104   52   53 am   BACKBONE|DICT|INTERRES
   105   52  131 1    
   106   53   54 2    
   107   53   55 1    
   108   55   56 1    
   109   55   59 1    
   110   55  132 1    
   111   56   57 1    
   112   56  133 1    
   113   56  134 1    
   114   57   58 1    
   115   58  135 1    
   116   58  136 1    
   117   59   60 am   BACKBONE|DICT|INTERRES
   118   59  137 1    
   119   60   61 2    
   120   60   62 1    
   121   62   63 1    
   122   62   64 1    
   123   62  138 1    
   124   63  139 1    
   125   63  140 1    
   126   63  141 1    
   127   64   65 am   BACKBONE|DICT|INTERRES
   128   64  142 1    
   129   65   66 2    
   130   65   67 1    
   131   67   68 1    
   132   67   69 1    
   133   67  143 1    
   134   68  144 1    
   135   68  145 1    
   136   68  146 1    
   137   69   70 am   BACKBONE|DICT|INTERRES
   138   69  147 1    
   139   70   71 2    
   140   70   72 1    
   141   72   73 1    
   142   72   74 1    
   143   72  148 1    
   144   73  149 1    
   145   73  150 1    
   146   73  151 1    
   147   74   75 am   BACKBONE|DICT|INTERRES
   148   74  152 1    
   149   75   76 2    
   150   75   77 1    
   151   77   78 1    
   152   77   79 1    
   153   77  153 1    
   154   78  154 1    
   155   78  155 1    
   156   78  156 1    
   157   79   80 am   BACKBONE|DICT|INTERRES
   158   79  157 1    
   159   80   81 2    
@<TRIPOS>SUBSTRUCTURE
     1 UNK         1 GROUP             0       ****    0 ROOT    
