@<TRIPOS>MOLECULE
3R207
157   159    1
SMALL
USER_CHARGES


@<TRIPOS>ATOM
      1 CA        -49.2043  -24.8532    2.5802 C.3       0 UNK        -0.1975 
      2 C         -49.5883  -25.3167    3.9775 C.2       0 UNK         0.4852 
      3 O         -49.7390  -24.4850    4.8720 O.2       0 UNK        -0.5216 
      4 N         -49.7421  -26.6323    4.1628 N.am      1 UNK        -0.4461 
      5 CA        -50.0476  -27.2788    5.4397 C.3       1 UNK         0.0864 
      6 C6        -51.3284  -28.1487    5.3627 C.3       14 UNK        -0.0898 
      7 S7        -52.8132  -27.1784    4.9332 S.3       14 UNK        -0.2598 
      8 C8        -53.9203  -27.5245    6.3359 C.3       14 UNK         0.0286 
      9 C9        -53.5054  -26.7826    7.5982 C.ar      14 UNK        -0.0844 
     10 C10       -53.7194  -25.4050    7.7018 C.ar      14 UNK        -0.0881 
     11 C11       -53.3844  -24.7182    8.8722 C.ar      14 UNK        -0.0643 
     12 C12       -52.8452  -25.4250    9.9522 C.ar      14 UNK        -0.0930 
     13 C13       -52.6074  -26.7997    9.8530 C.ar      14 UNK        -0.0827 
     14 C14       -52.9379  -27.4728    8.6732 C.ar      14 UNK        -0.1249 
     15 C15       -51.9652  -27.5552   11.0051 C.3       14 UNK         0.0141 
     16 S16       -53.1580  -28.5888   11.8995 S.3       14 UNK        -0.2313 
     17 C17       -52.0450  -29.3326   13.1394 C.3       14 UNK        -0.0915 
     18 CA        -52.7393  -30.4158   14.0078 C.3       13 UNK         0.0968 
     19 C         -51.7455  -31.0934   14.9969 C.2       13 UNK         0.5732 
     20 N         -52.0725  -31.2663   16.2734 N.am      13 UNK        -0.7310 
     21 O         -50.6541  -31.4898   14.5952 O.2       13 UNK        -0.5035 
     22 N         -53.9462  -29.8979   14.6691 N.am      13 UNK        -0.4233 
     23 C         -55.0991  -30.5695   14.7795 C.2       13 UNK         0.4989 
     24 O         -55.2964  -31.6774   14.2759 O.2       13 UNK        -0.4996 
     25 CA        -56.2197  -29.8923   15.5945 C.3       12 UNK         0.0216 
     26 CB        -57.3127  -30.8827   16.0507 C.3       12 UNK        -0.1964 
     27 N         -55.7259  -29.1117   16.7356 N.am      12 UNK        -0.4276 
     28 C         -54.9808  -29.5512   17.7637 C.2       12 UNK         0.5020 
     29 O         -54.5935  -30.7160   17.8709 O.2       12 UNK        -0.5489 
     30 CA        -54.5599  -28.5218   18.8308 C.3       11 UNK         0.0294 
     31 CB        -53.1009  -28.7412   19.2716 C.3       11 UNK        -0.2019 
     32 N         -54.6993  -27.1530   18.3316 N.am      11 UNK        -0.4493 
     33 C         -55.6791  -26.2990   18.6590 C.2       11 UNK         0.4932 
     34 O         -56.5449  -26.5409   19.4998 O.2       11 UNK        -0.5029 
     35 CA        -55.7228  -24.9526   17.9076 C.3       10 UNK         0.0280 
     36 CB        -55.1061  -23.8402   18.7708 C.3       10 UNK        -0.1976 
     37 N         -55.0508  -24.9761   16.6038 N.am      10 UNK        -0.4242 
     38 C         -55.4223  -25.7211   15.5518 C.2       10 UNK         0.5072 
     39 O         -56.4221  -26.4393   15.5425 O.2       10 UNK        -0.5224 
     40 CA        -54.4738  -25.7278   14.3386 C.3       9 UNK         0.0343 
     41 CB        -54.8553  -24.6141   13.3518 C.3       9 UNK        -0.2003 
     42 N         -53.0570  -25.5994   14.7042 N.am      9 UNK        -0.4272 
     43 C         -52.3860  -26.4327   15.5093 C.2       9 UNK         0.4988 
     44 O         -52.8903  -27.4483   15.9941 O.2       9 UNK        -0.5108 
     45 CA        -50.9304  -26.0512   15.8501 C.3       8 UNK         0.0248 
     46 CB        -50.3600  -26.9136   16.9915 C.3       8 UNK        -0.2001 
     47 N         -50.0173  -26.1245   14.7052 N.am      8 UNK        -0.4140 
     48 C         -50.0067  -25.3000   13.6492 C.2       8 UNK         0.5028 
     49 O         -50.8265  -24.3897   13.4985 O.2       8 UNK        -0.5428 
     50 CA        -48.9006  -25.5280   12.5945 C.3       7 UNK         0.0264 
     51 CB        -48.4534  -27.0006   12.4788 C.3       7 UNK        -0.1988 
     52 N         -49.3342  -25.0585   11.2776 N.am      7 UNK        -0.4454 
     53 C         -49.2555  -23.7943   10.8448 C.2       7 UNK         0.5027 
     54 O         -48.6709  -22.8878   11.4422 O.2       7 UNK        -0.5083 
     55 CA        -49.9766  -23.4914    9.5184 C.3       6 UNK         0.0844 
     56 C56       -51.0190  -22.3622    9.7006 C.3       14 UNK        -0.0967 
     57 S57       -52.1911  -22.2735    8.3066 S.3       14 UNK        -0.2604 
     58 C58       -53.6108  -23.2149    8.9608 C.3       14 UNK         0.0134 
     59 N         -48.9977  -23.2106    8.4695 N.am      6 UNK        -0.4116 
     60 C         -48.2235  -24.1550    7.9214 C.2       5 UNK         0.5034 
     61 O         -48.3377  -25.3548    8.1827 O.2       5 UNK        -0.5045 
     62 CA        -47.1348  -23.7220    6.9247 C.3       5 UNK         0.0224 
     63 CB        -47.1615  -22.2266    6.5317 C.3       5 UNK        -0.1978 
     64 N         -45.8148  -24.1449    7.4060 N.am      5 UNK        -0.4737 
     65 C         -45.1589  -23.7014    8.4905 C.2       4 UNK         0.5027 
     66 O         -45.5431  -22.7525    9.1743 O.2       4 UNK        -0.5211 
     67 CA        -43.8709  -24.4452    8.9069 C.3       4 UNK         0.0297 
     68 CB        -43.7945  -24.6164   10.4358 C.3       4 UNK        -0.1993 
     69 N         -43.7634  -25.7686    8.2886 N.am      4 UNK        -0.4486 
     70 C         -43.1014  -26.0593    7.1607 C.2       3 UNK         0.4961 
     71 O         -42.4208  -25.2474    6.5341 O.2       3 UNK        -0.5105 
     72 CA        -43.2544  -27.4975    6.6212 C.3       3 UNK         0.0299 
     73 CB        -42.0632  -28.3644    7.0596 C.3       3 UNK        -0.1972 
     74 N         -44.5077  -28.1521    7.0255 N.am      3 UNK        -0.4305 
     75 C         -45.7326  -27.7139    6.7005 C.2       2 UNK         0.5006 
     76 O         -45.9247  -26.7382    5.9702 O.2       2 UNK        -0.5106 
     77 CA        -46.9204  -28.4497    7.3497 C.3       2 UNK         0.0296 
     78 CB        -46.8455  -28.3789    8.8875 C.3       2 UNK        -0.2002 
     79 N         -48.1869  -27.8521    6.9280 N.am      2 UNK        -0.4032 
     80 C         -48.8274  -28.1439    5.7915 C.2       1 UNK         0.5000 
     81 O         -48.4852  -29.0463    5.0210 O.2       1 UNK        -0.5238 
     82 H82       -48.2505  -24.3270    2.6094 H         1 UNK         0.0889 
     83 H83       -49.9593  -24.1702    2.1919 H         1 UNK         0.0889 
     84 H84       -49.1112  -25.6868    1.8842 H         1 UNK         0.0889 
     85 H85       -49.5600  -27.2707    3.4008 H         1 UNK         0.3028 
     86 H86       -50.1903  -26.5339    6.2267 H         1 UNK         0.0864 
     87 H87       -51.2197  -28.9348    4.6129 H         1 UNK         0.0720 
     88 H88       -51.4920  -28.6593    6.3132 H         1 UNK         0.0720 
     89 H89       -53.9657  -28.6007    6.5100 H         1 UNK         0.0814 
     90 H90       -54.9324  -27.2217    6.0637 H         1 UNK         0.0814 
     91 H91       -54.1452  -24.8661    6.8663 H         1 UNK         0.1469 
     92 H92       -52.5835  -24.8984   10.8594 H         1 UNK         0.1381 
     93 H93       -52.7633  -28.5377    8.6000 H         1 UNK         0.1206 
     94 H94       -51.1539  -28.1777   10.6246 H         1 UNK         0.0813 
     95 H95       -51.5256  -26.8569   11.7150 H         1 UNK         0.0813 
     96 H96       -51.1981  -29.7671   12.6052 H         1 UNK         0.0638 
     97 H97       -51.6342  -28.5412   13.7650 H         1 UNK         0.0638 
     98 H98       -53.0317  -31.2127   13.3222 H         1 UNK         0.0568 
     99 H99       -52.9805  -30.9914   16.6301 H         1 UNK         0.3450 
    100 H100      -51.4121  -31.7143   16.8875 H         1 UNK         0.3450 
    101 H101      -53.8289  -29.0134   15.1521 H         1 UNK         0.2987 
    102 H102      -56.6874  -29.1760   14.9174 H         1 UNK         0.0766 
    103 H103      -56.9061  -31.6651   16.6924 H         1 UNK         0.0798 
    104 H104      -58.1036  -30.3740   16.6019 H         1 UNK         0.0798 
    105 H105      -57.7806  -31.3729   15.1961 H         1 UNK         0.0798 
    106 H106      -55.9639  -28.1260   16.7060 H         1 UNK         0.3198 
    107 H107      -55.2044  -28.6773   19.6983 H         1 UNK         0.0843 
    108 H108      -52.9817  -29.7085   19.7613 H         1 UNK         0.0831 
    109 H109      -52.7786  -27.9790   19.9810 H         1 UNK         0.0831 
    110 H110      -52.4178  -28.7236   18.4218 H         1 UNK         0.0831 
    111 H111      -54.0510  -26.8999   17.5937 H         1 UNK         0.3133 
    112 H112      -56.7732  -24.7097   17.7343 H         1 UNK         0.0566 
    113 H113      -54.0472  -24.0174   18.9636 H         1 UNK         0.0814 
    114 H114      -55.6061  -23.7747   19.7383 H         1 UNK         0.0814 
    115 H115      -55.2036  -22.8651   18.2929 H         1 UNK         0.0814 
    116 H116      -54.2162  -24.4151   16.5132 H         1 UNK         0.3091 
    117 H117      -54.5970  -26.6887   13.8352 H         1 UNK         0.0702 
    118 H118      -54.2664  -24.6767   12.4386 H         1 UNK         0.0785 
    119 H119      -54.7055  -23.6228   13.7813 H         1 UNK         0.0785 
    120 H120      -55.9043  -24.6911   13.0622 H         1 UNK         0.0785 
    121 H121      -52.5274  -24.8416   14.2801 H         1 UNK         0.2998 
    122 H122      -50.9465  -25.0164   16.1988 H         1 UNK         0.0697 
    123 H123      -50.3239  -27.9705   16.7227 H         1 UNK         0.0825 
    124 H124      -50.9734  -26.8253   17.8890 H         1 UNK         0.0825 
    125 H125      -49.3518  -26.6004   17.2632 H         1 UNK         0.0825 
    126 H126      -49.3256  -26.8590   14.7388 H         1 UNK         0.3029 
    127 H127      -48.0357  -24.9403   12.9101 H         1 UNK         0.0897 
    128 H128      -47.7416  -27.1305   11.6632 H         1 UNK         0.0792 
    129 H129      -47.9484  -27.3370   13.3849 H         1 UNK         0.0792 
    130 H130      -49.2897  -27.6755   12.2972 H         1 UNK         0.0792 
    131 H131      -49.8065  -25.7298   10.6910 H         1 UNK         0.3086 
    132 H132      -50.5141  -24.3906    9.2157 H         1 UNK         0.0583 
    133 H133      -51.5854  -22.4996   10.6241 H         1 UNK         0.1020 
    134 H134      -50.5227  -21.3955    9.8042 H         1 UNK         0.1020 
    135 H135      -53.8213  -22.9163    9.9889 H         1 UNK         0.0694 
    136 H136      -54.4982  -22.9470    8.3853 H         1 UNK         0.0694 
    137 H137      -48.8395  -22.2427    8.2348 H         1 UNK         0.2989 
    138 H138      -47.3194  -24.2989    6.0175 H         1 UNK         0.1055 
    139 H139      -46.3858  -22.0039    5.7992 H         1 UNK         0.0806 
    140 H140      -47.0095  -21.5627    7.3828 H         1 UNK         0.0806 
    141 H141      -48.1157  -21.9638    6.0724 H         1 UNK         0.0806 
    142 H142      -45.4517  -24.9679    6.9367 H         1 UNK         0.3061 
    143 H143      -43.0286  -23.8243    8.5944 H         1 UNK         0.0734 
    144 H144      -43.7828  -23.6492   10.9401 H         1 UNK         0.0832 
    145 H145      -44.6483  -25.1744   10.8226 H         1 UNK         0.0832 
    146 H146      -42.8863  -25.1414   10.7322 H         1 UNK         0.0832 
    147 H147      -44.2972  -26.5072    8.7227 H         1 UNK         0.3156 
    148 H148      -43.2498  -27.4378    5.5307 H         1 UNK         0.0589 
    149 H149      -42.0249  -28.4821    8.1433 H         1 UNK         0.0808 
    150 H150      -42.1087  -29.3583    6.6138 H         1 UNK         0.0808 
    151 H151      -41.1188  -27.9157    6.7477 H         1 UNK         0.0808 
    152 H152      -44.4223  -28.9666    7.6173 H         1 UNK         0.3098 
    153 H153      -46.8886  -29.4966    7.0406 H         1 UNK         0.0720 
    154 H154      -45.9735  -28.9078    9.2732 H         1 UNK         0.0791 
    155 H155      -46.7891  -27.3488    9.2424 H         1 UNK         0.0791 
    156 H156      -47.7216  -28.8381    9.3461 H         1 UNK         0.0791 
    157 H157      -48.4535  -27.0103    7.4364 H         1 UNK         0.3028 
@<TRIPOS>BOND
     1    1    2 1    
     2    1   82 1    
     3    1   83 1    
     4    1   84 1    
     5    2    3 2    
     6    2    4 am   BACKBONE|DICT|INTERRES
     7    4    5 1    
     8    4   85 1    
     9    5    6 1    
    10    5   80 1    
    11    5   86 1    
    12    6    7 1    
    13    6   87 1    
    14    6   88 1    
    15    7    8 1    
    16    8    9 1    
    17    8   89 1    
    18    8   90 1    
    19    9   10 ar   
    20    9   14 ar   
    21   10   11 ar   
    22   10   91 1    
    23   11   12 ar   
    24   11   58 1    
    25   12   13 ar   
    26   12   92 1    
    27   13   14 ar   
    28   13   15 1    
    29   14   93 1    
    30   15   16 1    
    31   15   94 1    
    32   15   95 1    
    33   16   17 1    
    34   17   18 1    
    35   17   96 1    
    36   17   97 1    
    37   18   19 1    
    38   18   22 1    
    39   18   98 1    
    40   19   20 am   BACKBONE|DICT|INTERRES
    41   19   21 2    
    42   20   99 1    
    43   20  100 1    
    44   22   23 am   BACKBONE|DICT|INTERRES
    45   22  101 1    
    46   23   24 2    
    47   23   25 1    
    48   25   26 1    
    49   25   27 1    
    50   25  102 1    
    51   26  103 1    
    52   26  104 1    
    53   26  105 1    
    54   27   28 am   BACKBONE|DICT|INTERRES
    55   27  106 1    
    56   28   29 2    
    57   28   30 1    
    58   30   31 1    
    59   30   32 1    
    60   30  107 1    
    61   31  108 1    
    62   31  109 1    
    63   31  110 1    
    64   32   33 am   BACKBONE|DICT|INTERRES
    65   32  111 1    
    66   33   34 2    
    67   33   35 1    
    68   35   36 1    
    69   35   37 1    
    70   35  112 1    
    71   36  113 1    
    72   36  114 1    
    73   36  115 1    
    74   37   38 am   BACKBONE|DICT|INTERRES
    75   37  116 1    
    76   38   39 2    
    77   38   40 1    
    78   40   41 1    
    79   40   42 1    
    80   40  117 1    
    81   41  118 1    
    82   41  119 1    
    83   41  120 1    
    84   42   43 am   BACKBONE|DICT|INTERRES
    85   42  121 1    
    86   43   44 2    
    87   43   45 1    
    88   45   46 1    
    89   45   47 1    
    90   45  122 1    
    91   46  123 1    
    92   46  124 1    
    93   46  125 1    
    94   47   48 am   BACKBONE|DICT|INTERRES
    95   47  126 1    
    96   48   49 2    
    97   48   50 1    
    98   50   51 1    
    99   50   52 1    
   100   50  127 1    
   101   51  128 1    
   102   51  129 1    
   103   51  130 1    
   104   52   53 am   BACKBONE|DICT|INTERRES
   105   52  131 1    
   106   53   54 2    
   107   53   55 1    
   108   55   56 1    
   109   55   59 1    
   110   55  132 1    
   111   56   57 1    
   112   56  133 1    
   113   56  134 1    
   114   57   58 1    
   115   58  135 1    
   116   58  136 1    
   117   59   60 am   BACKBONE|DICT|INTERRES
   118   59  137 1    
   119   60   61 2    
   120   60   62 1    
   121   62   63 1    
   122   62   64 1    
   123   62  138 1    
   124   63  139 1    
   125   63  140 1    
   126   63  141 1    
   127   64   65 am   BACKBONE|DICT|INTERRES
   128   64  142 1    
   129   65   66 2    
   130   65   67 1    
   131   67   68 1    
   132   67   69 1    
   133   67  143 1    
   134   68  144 1    
   135   68  145 1    
   136   68  146 1    
   137   69   70 am   BACKBONE|DICT|INTERRES
   138   69  147 1    
   139   70   71 2    
   140   70   72 1    
   141   72   73 1    
   142   72   74 1    
   143   72  148 1    
   144   73  149 1    
   145   73  150 1    
   146   73  151 1    
   147   74   75 am   BACKBONE|DICT|INTERRES
   148   74  152 1    
   149   75   76 2    
   150   75   77 1    
   151   77   78 1    
   152   77   79 1    
   153   77  153 1    
   154   78  154 1    
   155   78  155 1    
   156   78  156 1    
   157   79   80 am   BACKBONE|DICT|INTERRES
   158   79  157 1    
   159   80   81 2    
@<TRIPOS>SUBSTRUCTURE
     1 UNK         1 GROUP             0       ****    0 ROOT    
