@<TRIPOS>MOLECULE
3R207
157   159    1
SMALL
USER_CHARGES


@<TRIPOS>ATOM
      1 CA        -46.5507  -30.1421    3.3016 C.3       0 UNK        -0.1975 
      2 C         -47.4676  -28.9513    3.5396 C.2       0 UNK         0.4852 
      3 O         -47.0041  -27.8098    3.5233 O.2       0 UNK        -0.5216 
      4 N         -48.7646  -29.2077    3.7530 N.am      1 UNK        -0.4461 
      5 CA        -49.7738  -28.1976    4.0857 C.3       1 UNK         0.0864 
      6 C6        -51.2048  -28.6974    3.7524 C.3       14 UNK        -0.0898 
      7 S7        -51.7555  -30.1298    4.7462 S.3       14 UNK        -0.2598 
      8 C8        -52.9694  -29.3415    5.8512 C.3       14 UNK         0.0286 
      9 C9        -52.9394  -29.9681    7.2343 C.ar      14 UNK        -0.0844 
     10 C10       -52.1071  -29.4380    8.2229 C.ar      14 UNK        -0.0881 
     11 C11       -52.0900  -29.9799    9.5117 C.ar      14 UNK        -0.0643 
     12 C12       -52.9000  -31.0860    9.7967 C.ar      14 UNK        -0.0930 
     13 C13       -53.7242  -31.6375    8.8084 C.ar      14 UNK        -0.0827 
     14 C14       -53.7449  -31.0690    7.5317 C.ar      14 UNK        -0.1249 
     15 C15       -54.5798  -32.8618    9.0994 C.3       14 UNK         0.0141 
     16 S16       -56.2927  -32.4072    9.5156 S.3       14 UNK        -0.2313 
     17 C17       -56.1315  -31.9178   11.2640 C.3       14 UNK        -0.0915 
     18 CA        -56.0543  -30.3817   11.4652 C.3       13 UNK         0.0968 
     19 C         -57.4461  -29.7061   11.3155 C.2       13 UNK         0.5732 
     20 N         -57.7393  -29.1251   10.1601 N.am      13 UNK        -0.7310 
     21 O         -58.2721  -29.7400   12.2261 O.2       13 UNK        -0.5035 
     22 N         -55.4177  -30.0827   12.7533 N.am      13 UNK        -0.4233 
     23 C         -55.0423  -28.8693   13.1711 C.2       13 UNK         0.4989 
     24 O         -55.1321  -27.8423   12.4947 O.2       13 UNK        -0.4996 
     25 CA        -54.4067  -28.8253   14.5711 C.3       12 UNK         0.0216 
     26 CB        -52.9089  -29.1634   14.4829 C.3       12 UNK        -0.1964 
     27 N         -54.5753  -27.5219   15.2188 N.am      12 UNK        -0.4276 
     28 C         -55.7425  -27.0570   15.6917 C.2       12 UNK         0.5020 
     29 O         -56.7879  -27.7092   15.6696 O.2       12 UNK        -0.5489 
     30 CA        -55.7684  -25.6514   16.3281 C.3       11 UNK         0.0294 
     31 CB        -55.8842  -25.7575   17.8582 C.3       11 UNK        -0.2019 
     32 N         -54.6000  -24.8341   16.0004 N.am      11 UNK        -0.4493 
     33 C         -54.3758  -24.2527   14.8148 C.2       11 UNK         0.4932 
     34 O         -55.1970  -24.2394   13.8977 O.2       11 UNK        -0.5029 
     35 CA        -53.0057  -23.5764   14.6049 C.3       10 UNK         0.0280 
     36 CB        -53.1481  -22.0459   14.6315 C.3       10 UNK        -0.1976 
     37 N         -51.9479  -23.9695   15.5465 N.am      10 UNK        -0.4242 
     38 C         -51.4848  -25.2110   15.7472 C.2       10 UNK         0.5072 
     39 O         -51.9910  -26.2154   15.2474 O.2       10 UNK        -0.5224 
     40 CA        -50.2609  -25.3398   16.6708 C.3       9 UNK         0.0343 
     41 CB        -49.9015  -26.8048   16.9810 C.3       9 UNK        -0.2003 
     42 N         -49.1009  -24.6657   16.0828 N.am      9 UNK        -0.4272 
     43 C         -48.8597  -23.3499   16.1748 C.2       9 UNK         0.4988 
     44 O         -49.6011  -22.5842   16.7950 O.2       9 UNK        -0.5108 
     45 CA        -47.6403  -22.7498   15.4461 C.3       8 UNK         0.0248 
     46 CB        -46.6683  -22.0704   16.4326 C.3       8 UNK        -0.2001 
     47 N         -46.9333  -23.6566   14.5348 N.am      8 UNK        -0.4140 
     48 C         -46.1880  -24.7327   14.8206 C.2       8 UNK         0.5028 
     49 O         -45.9507  -25.1256   15.9642 O.2       8 UNK        -0.5428 
     50 CA        -45.6738  -25.5273   13.6010 C.3       7 UNK         0.0264 
     51 CB        -44.9116  -26.8100   13.9949 C.3       7 UNK        -0.1988 
     52 N         -46.7455  -25.8421   12.6440 N.am      7 UNK        -0.4454 
     53 C         -47.9022  -26.4709   12.9117 C.2       7 UNK         0.5027 
     54 O         -48.1898  -26.9224   14.0206 O.2       7 UNK        -0.5083 
     55 CA        -48.9168  -26.5720   11.7504 C.3       6 UNK         0.0844 
     56 C56       -50.2407  -27.2690   12.1764 C.3       14 UNK        -0.0967 
     57 S57       -51.3713  -27.5934   10.7807 S.3       14 UNK        -0.2604 
     58 C58       -51.1715  -29.3967   10.5813 C.3       14 UNK         0.0134 
     59 N         -49.1134  -25.2579   11.1239 N.am      6 UNK        -0.4116 
     60 C         -49.6193  -24.1595   11.7053 C.2       5 UNK         0.5034 
     61 O         -50.0395  -24.1189   12.8605 O.2       5 UNK        -0.5045 
     62 CA        -49.6047  -22.8783   10.8492 C.3       5 UNK         0.0224 
     63 CB        -50.0406  -21.6222   11.6351 C.3       5 UNK        -0.1978 
     64 N         -48.3061  -22.6682   10.1941 N.am      5 UNK        -0.4737 
     65 C         -47.1154  -22.5138   10.7958 C.2       4 UNK         0.5027 
     66 O         -46.9678  -22.4648   12.0163 O.2       4 UNK        -0.5211 
     67 CA        -45.8788  -22.4583    9.8743 C.3       4 UNK         0.0297 
     68 CB        -44.5516  -22.6553   10.6375 C.3       4 UNK        -0.1993 
     69 N         -45.9657  -23.3959    8.7473 N.am      4 UNK        -0.4486 
     70 C         -46.1662  -24.7196    8.8178 C.2       3 UNK         0.4961 
     71 O         -46.2603  -25.3582    9.8687 O.2       3 UNK        -0.5105 
     72 CA        -46.3757  -25.4396    7.4780 C.3       3 UNK         0.0299 
     73 CB        -45.4081  -26.6247    7.3287 C.3       3 UNK        -0.1972 
     74 N         -47.7505  -25.9224    7.3381 N.am      3 UNK        -0.4305 
     75 C         -48.8679  -25.1851    7.3989 C.2       2 UNK         0.5006 
     76 O         -48.8800  -23.9673    7.5897 O.2       2 UNK        -0.5106 
     77 CA        -50.1899  -25.9487    7.2000 C.3       2 UNK         0.0296 
     78 CB        -51.4322  -25.0605    7.3947 C.3       2 UNK        -0.2002 
     79 N         -50.2491  -26.5794    5.8772 N.am      2 UNK        -0.4032 
     80 C         -49.6279  -27.7209    5.5498 C.2       1 UNK         0.5000 
     81 O         -48.9649  -28.3778    6.3600 O.2       1 UNK        -0.5238 
     82 H82       -46.0692  -30.0567    2.3278 H         1 UNK         0.0889 
     83 H83       -47.0937  -31.0866    3.3301 H         1 UNK         0.0889 
     84 H84       -45.7739  -30.1745    4.0651 H         1 UNK         0.0889 
     85 H85       -49.0855  -30.1646    3.7966 H         1 UNK         0.3028 
     86 H86       -49.5817  -27.3280    3.4529 H         1 UNK         0.0864 
     87 H87       -51.2464  -28.9922    2.7026 H         1 UNK         0.0720 
     88 H88       -51.9242  -27.8819    3.8411 H         1 UNK         0.0720 
     89 H89       -53.9650  -29.4301    5.4137 H         1 UNK         0.0814 
     90 H90       -52.7714  -28.2725    5.9409 H         1 UNK         0.0814 
     91 H91       -51.4718  -28.5970    7.9899 H         1 UNK         0.1469 
     92 H92       -52.8846  -31.5237   10.7854 H         1 UNK         0.1381 
     93 H93       -54.3843  -31.4886    6.7667 H         1 UNK         0.1206 
     94 H94       -54.5975  -33.5064    8.2192 H         1 UNK         0.0813 
     95 H95       -54.1420  -33.4628    9.8978 H         1 UNK         0.0813 
     96 H96       -55.2383  -32.3978   11.6666 H         1 UNK         0.0638 
     97 H97       -56.9660  -32.3440   11.8243 H         1 UNK         0.0638 
     98 H98       -55.3942  -29.9670   10.7008 H         1 UNK         0.0568 
     99 H99       -57.0749  -29.1171    9.4022 H         1 UNK         0.3450 
    100 H100      -58.6428  -28.6950   10.0416 H         1 UNK         0.3450 
    101 H101      -55.3230  -30.8626   13.3860 H         1 UNK         0.2987 
    102 H102      -54.8929  -29.5748   15.1995 H         1 UNK         0.0766 
    103 H103      -52.3834  -28.4703   13.8254 H         1 UNK         0.0798 
    104 H104      -52.4309  -29.1219   15.4619 H         1 UNK         0.0798 
    105 H105      -52.7527  -30.1673   14.0866 H         1 UNK         0.0798 
    106 H106      -53.7515  -26.9240   15.2406 H         1 UNK         0.3198 
    107 H107      -56.6593  -25.1430   15.9528 H         1 UNK         0.0843 
    108 H108      -56.7684  -26.3293   18.1437 H         1 UNK         0.0831 
    109 H109      -55.9751  -24.7741   18.3198 H         1 UNK         0.0831 
    110 H110      -55.0190  -26.2576   18.2955 H         1 UNK         0.0831 
    111 H111      -53.8664  -24.7885   16.6922 H         1 UNK         0.3133 
    112 H112      -52.6655  -23.8670   13.6092 H         1 UNK         0.0566 
    113 H113      -53.8934  -21.7087   13.9098 H         1 UNK         0.0814 
    114 H114      -52.2083  -21.5560   14.3756 H         1 UNK         0.0814 
    115 H115      -53.4585  -21.6877   15.6138 H         1 UNK         0.0814 
    116 H116      -51.4353  -23.2170   15.9933 H         1 UNK         0.3091 
    117 H117      -50.5130  -24.8611   17.6193 H         1 UNK         0.0702 
    118 H118      -49.6935  -27.3740   16.0751 H         1 UNK         0.0785 
    119 H119      -50.7242  -27.3054   17.4930 H         1 UNK         0.0785 
    120 H120      -49.0264  -26.8716   17.6274 H         1 UNK         0.0785 
    121 H121      -48.4955  -25.2376   15.5058 H         1 UNK         0.2998 
    122 H122      -48.0447  -21.9686   14.8006 H         1 UNK         0.0697 
    123 H123      -46.2546  -22.7790   17.1505 H         1 UNK         0.0825 
    124 H124      -47.1746  -21.2921   17.0047 H         1 UNK         0.0825 
    125 H125      -45.8378  -21.5972   15.9088 H         1 UNK         0.0825 
    126 H126      -47.0365  -23.4062   13.5506 H         1 UNK         0.3029 
    127 H127      -44.9731  -24.8720   13.0828 H         1 UNK         0.0897 
    128 H128      -44.5260  -27.3269   13.1162 H         1 UNK         0.0792 
    129 H129      -44.0590  -26.5766   14.6339 H         1 UNK         0.0792 
    130 H130      -45.5471  -27.5070   14.5425 H         1 UNK         0.0792 
    131 H131      -46.5868  -25.5343   11.6849 H         1 UNK         0.3086 
    132 H132      -48.4416  -27.2002   10.9953 H         1 UNK         0.0583 
    133 H133      -50.0289  -28.2123   12.6830 H         1 UNK         0.1020 
    134 H134      -50.7729  -26.6607   12.9093 H         1 UNK         0.1020 
    135 H135      -50.1361  -29.6151   10.3165 H         1 UNK         0.0694 
    136 H136      -51.3595  -29.8778   11.5425 H         1 UNK         0.0694 
    137 H137      -48.7176  -25.1578   10.2013 H         1 UNK         0.2989 
    138 H138      -50.3331  -23.0358   10.0522 H         1 UNK         0.1055 
    139 H139      -51.0538  -21.7388   12.0216 H         1 UNK         0.0806 
    140 H140      -50.0356  -20.7356   11.0014 H         1 UNK         0.0806 
    141 H141      -49.3904  -21.4289   12.4889 H         1 UNK         0.0806 
    142 H142      -48.3161  -22.7686    9.1829 H         1 UNK         0.3061 
    143 H143      -45.8684  -21.4548    9.4465 H         1 UNK         0.0734 
    144 H144      -44.4410  -21.9173   11.4331 H         1 UNK         0.0832 
    145 H145      -44.4909  -23.6417   11.0961 H         1 UNK         0.0832 
    146 H146      -43.6943  -22.5436    9.9740 H         1 UNK         0.0832 
    147 H147      -45.9506  -22.9716    7.8294 H         1 UNK         0.3156 
    148 H148      -46.1858  -24.7407    6.6610 H         1 UNK         0.0589 
    149 H149      -45.5764  -27.3829    8.0949 H         1 UNK         0.0808 
    150 H150      -45.5146  -27.1035    6.3546 H         1 UNK         0.0808 
    151 H151      -44.3717  -26.2961    7.4173 H         1 UNK         0.0808 
    152 H152      -47.8672  -26.9156    7.1587 H         1 UNK         0.3098 
    153 H153      -50.2198  -26.7216    7.9695 H         1 UNK         0.0720 
    154 H154      -52.3510  -25.6395    7.2984 H         1 UNK         0.0791 
    155 H155      -51.4683  -24.2469    6.6691 H         1 UNK         0.0791 
    156 H156      -51.4395  -24.6137    8.3895 H         1 UNK         0.0791 
    157 H157      -50.7456  -26.0690    5.1607 H         1 UNK         0.3028 
@<TRIPOS>BOND
     1    1    2 1    
     2    1   82 1    
     3    1   83 1    
     4    1   84 1    
     5    2    3 2    
     6    2    4 am   BACKBONE|DICT|INTERRES
     7    4    5 1    
     8    4   85 1    
     9    5    6 1    
    10    5   80 1    
    11    5   86 1    
    12    6    7 1    
    13    6   87 1    
    14    6   88 1    
    15    7    8 1    
    16    8    9 1    
    17    8   89 1    
    18    8   90 1    
    19    9   10 ar   
    20    9   14 ar   
    21   10   11 ar   
    22   10   91 1    
    23   11   12 ar   
    24   11   58 1    
    25   12   13 ar   
    26   12   92 1    
    27   13   14 ar   
    28   13   15 1    
    29   14   93 1    
    30   15   16 1    
    31   15   94 1    
    32   15   95 1    
    33   16   17 1    
    34   17   18 1    
    35   17   96 1    
    36   17   97 1    
    37   18   19 1    
    38   18   22 1    
    39   18   98 1    
    40   19   20 am   BACKBONE|DICT|INTERRES
    41   19   21 2    
    42   20   99 1    
    43   20  100 1    
    44   22   23 am   BACKBONE|DICT|INTERRES
    45   22  101 1    
    46   23   24 2    
    47   23   25 1    
    48   25   26 1    
    49   25   27 1    
    50   25  102 1    
    51   26  103 1    
    52   26  104 1    
    53   26  105 1    
    54   27   28 am   BACKBONE|DICT|INTERRES
    55   27  106 1    
    56   28   29 2    
    57   28   30 1    
    58   30   31 1    
    59   30   32 1    
    60   30  107 1    
    61   31  108 1    
    62   31  109 1    
    63   31  110 1    
    64   32   33 am   BACKBONE|DICT|INTERRES
    65   32  111 1    
    66   33   34 2    
    67   33   35 1    
    68   35   36 1    
    69   35   37 1    
    70   35  112 1    
    71   36  113 1    
    72   36  114 1    
    73   36  115 1    
    74   37   38 am   BACKBONE|DICT|INTERRES
    75   37  116 1    
    76   38   39 2    
    77   38   40 1    
    78   40   41 1    
    79   40   42 1    
    80   40  117 1    
    81   41  118 1    
    82   41  119 1    
    83   41  120 1    
    84   42   43 am   BACKBONE|DICT|INTERRES
    85   42  121 1    
    86   43   44 2    
    87   43   45 1    
    88   45   46 1    
    89   45   47 1    
    90   45  122 1    
    91   46  123 1    
    92   46  124 1    
    93   46  125 1    
    94   47   48 am   BACKBONE|DICT|INTERRES
    95   47  126 1    
    96   48   49 2    
    97   48   50 1    
    98   50   51 1    
    99   50   52 1    
   100   50  127 1    
   101   51  128 1    
   102   51  129 1    
   103   51  130 1    
   104   52   53 am   BACKBONE|DICT|INTERRES
   105   52  131 1    
   106   53   54 2    
   107   53   55 1    
   108   55   56 1    
   109   55   59 1    
   110   55  132 1    
   111   56   57 1    
   112   56  133 1    
   113   56  134 1    
   114   57   58 1    
   115   58  135 1    
   116   58  136 1    
   117   59   60 am   BACKBONE|DICT|INTERRES
   118   59  137 1    
   119   60   61 2    
   120   60   62 1    
   121   62   63 1    
   122   62   64 1    
   123   62  138 1    
   124   63  139 1    
   125   63  140 1    
   126   63  141 1    
   127   64   65 am   BACKBONE|DICT|INTERRES
   128   64  142 1    
   129   65   66 2    
   130   65   67 1    
   131   67   68 1    
   132   67   69 1    
   133   67  143 1    
   134   68  144 1    
   135   68  145 1    
   136   68  146 1    
   137   69   70 am   BACKBONE|DICT|INTERRES
   138   69  147 1    
   139   70   71 2    
   140   70   72 1    
   141   72   73 1    
   142   72   74 1    
   143   72  148 1    
   144   73  149 1    
   145   73  150 1    
   146   73  151 1    
   147   74   75 am   BACKBONE|DICT|INTERRES
   148   74  152 1    
   149   75   76 2    
   150   75   77 1    
   151   77   78 1    
   152   77   79 1    
   153   77  153 1    
   154   78  154 1    
   155   78  155 1    
   156   78  156 1    
   157   79   80 am   BACKBONE|DICT|INTERRES
   158   79  157 1    
   159   80   81 2    
@<TRIPOS>SUBSTRUCTURE
     1 UNK         1 GROUP             0       ****    0 ROOT    
