@<TRIPOS>MOLECULE
3R207
157   159    1
SMALL
USER_CHARGES


@<TRIPOS>ATOM
      1 CA        -48.1457  -31.1715    3.3529 C.3       0 UNK        -0.1975 
      2 C         -48.4631  -29.9736    4.2354 C.2       0 UNK         0.4852 
      3 O         -47.8006  -29.7783    5.2556 O.2       0 UNK        -0.5216 
      4 N         -49.4598  -29.1679    3.8395 N.am      1 UNK        -0.4461 
      5 CA        -49.9901  -27.9678    4.5109 C.3       1 UNK         0.0864 
      6 C6        -50.5181  -28.2188    5.9475 C.3       14 UNK        -0.0898 
      7 S7        -51.8749  -29.4394    6.0028 S.3       14 UNK        -0.2598 
      8 C8        -53.2897  -28.4200    6.5421 C.3       14 UNK         0.0286 
      9 C9        -53.0408  -27.7500    7.8880 C.ar      14 UNK        -0.0844 
     10 C10       -53.0017  -26.3555    7.9848 C.ar      14 UNK        -0.0881 
     11 C11       -52.7306  -25.7337    9.2070 C.ar      14 UNK        -0.0643 
     12 C12       -52.4939  -26.5219   10.3382 C.ar      14 UNK        -0.0930 
     13 C13       -52.5446  -27.9167   10.2585 C.ar      14 UNK        -0.0827 
     14 C14       -52.8292  -28.5237    9.0324 C.ar      14 UNK        -0.1249 
     15 C15       -52.2583  -28.7749   11.4816 C.3       14 UNK         0.0141 
     16 S16       -53.6096  -28.6980   12.6966 S.3       14 UNK        -0.2313 
     17 C17       -53.3209  -30.2386   13.6384 C.3       14 UNK        -0.0915 
     18 CA        -54.5197  -31.2145   13.5200 C.3       13 UNK         0.0968 
     19 C         -54.1878  -32.5947   14.1470 C.2       13 UNK         0.5732 
     20 N         -53.5906  -33.4955   13.3790 N.am      13 UNK        -0.7310 
     21 O         -54.4302  -32.8428   15.3273 O.2       13 UNK        -0.5035 
     22 N         -55.7212  -30.6155   14.1077 N.am      13 UNK        -0.4233 
     23 C         -56.9836  -30.9966   13.8863 C.2       13 UNK         0.4989 
     24 O         -57.3007  -31.9241   13.1404 O.2       13 UNK        -0.4996 
     25 CA        -58.0880  -30.2001   14.6138 C.3       12 UNK         0.0216 
     26 CB        -58.7029  -31.0433   15.7435 C.3       12 UNK        -0.1964 
     27 N         -57.6259  -28.9196   15.1687 N.am      12 UNK        -0.4276 
     28 C         -57.2728  -27.8498   14.4417 C.2       12 UNK         0.5020 
     29 O         -57.3778  -27.7989   13.2149 O.2       12 UNK        -0.5489 
     30 CA        -56.6727  -26.6490   15.1905 C.3       11 UNK         0.0294 
     31 CB        -56.2862  -26.9323   16.6593 C.3       11 UNK        -0.2019 
     32 N         -55.4958  -26.1905   14.4552 N.am      11 UNK        -0.4493 
     33 C         -55.0954  -24.9191   14.3547 C.2       11 UNK         0.4932 
     34 O         -55.6773  -23.9721   14.8878 O.2       11 UNK        -0.5029 
     35 CA        -53.8099  -24.6894   13.5371 C.3       10 UNK         0.0280 
     36 CB        -53.5289  -23.1918   13.2828 C.3       10 UNK        -0.1976 
     37 N         -52.6592  -25.3792   14.1466 N.am      10 UNK        -0.4242 
     38 C         -52.1325  -25.1546   15.3627 C.2       10 UNK         0.5072 
     39 O         -52.4334  -24.2077   16.0903 O.2       10 UNK        -0.5224 
     40 CA        -51.1425  -26.2001   15.8947 C.3       9 UNK         0.0343 
     41 CB        -51.5216  -27.6466   15.5250 C.3       9 UNK        -0.2003 
     42 N         -49.7757  -25.9230   15.4562 N.am      9 UNK        -0.4272 
     43 C         -48.6959  -26.0727   16.2363 C.2       9 UNK         0.4988 
     44 O         -48.7480  -26.3775   17.4292 O.2       9 UNK        -0.5108 
     45 CA        -47.3138  -25.8876   15.5872 C.3       8 UNK         0.0248 
     46 CB        -46.8499  -27.2045   14.9437 C.3       8 UNK        -0.2001 
     47 N         -47.2639  -24.8111   14.5972 N.am      8 UNK        -0.4140 
     48 C         -47.3402  -23.5049   14.8915 C.2       8 UNK         0.5028 
     49 O         -47.4330  -23.0628   16.0375 O.2       8 UNK        -0.5428 
     50 CA        -47.3168  -22.5219   13.7072 C.3       7 UNK         0.0264 
     51 CB        -45.8741  -22.2420   13.2570 C.3       7 UNK        -0.1988 
     52 N         -48.1040  -22.9950   12.5669 N.am      7 UNK        -0.4454 
     53 C         -49.4342  -23.1613   12.5828 C.2       7 UNK         0.5027 
     54 O         -50.1469  -22.8445   13.5337 O.2       7 UNK        -0.5083 
     55 CA        -50.0718  -23.8320   11.3520 C.3       6 UNK         0.0844 
     56 C56       -50.4387  -22.7956   10.2632 C.3       14 UNK        -0.0967 
     57 S57       -51.1032  -23.5437    8.7347 S.3       14 UNK        -0.2604 
     58 C58       -52.7038  -24.2133    9.2909 C.3       14 UNK         0.0134 
     59 N         -49.2396  -24.9210   10.8452 N.am      6 UNK        -0.4116 
     60 C         -49.0601  -26.0934   11.4645 C.2       5 UNK         0.5034 
     61 O         -49.5990  -26.3977   12.5297 O.2       5 UNK        -0.5045 
     62 CA        -48.0817  -27.0691   10.7929 C.3       5 UNK         0.0224 
     63 CB        -48.7974  -27.8947    9.7106 C.3       5 UNK        -0.1978 
     64 N         -46.9352  -26.3692   10.2034 N.am      5 UNK        -0.4737 
     65 C         -45.9814  -25.7616   10.9268 C.2       4 UNK         0.5027 
     66 O         -45.9526  -25.7745   12.1560 O.2       4 UNK        -0.5211 
     67 CA        -44.9087  -24.9623   10.1648 C.3       4 UNK         0.0297 
     68 CB        -43.7353  -25.8750    9.7766 C.3       4 UNK        -0.1993 
     69 N         -45.4234  -24.2939    8.9683 N.am      4 UNK        -0.4486 
     70 C         -46.4062  -23.3821    8.9561 C.2       3 UNK         0.4961 
     71 O         -46.9299  -22.9326    9.9746 O.2       3 UNK        -0.5105 
     72 CA        -46.9317  -22.9273    7.5818 C.3       3 UNK         0.0299 
     73 CB        -46.3355  -21.5612    7.2088 C.3       3 UNK        -0.1972 
     74 N         -46.6950  -23.8785    6.4865 N.am      3 UNK        -0.4305 
     75 C         -47.1399  -25.1426    6.4484 C.2       2 UNK         0.5006 
     76 O         -47.7493  -25.6846    7.3742 O.2       2 UNK        -0.5106 
     77 CA        -46.7754  -25.9549    5.1953 C.3       2 UNK         0.0296 
     78 CB        -45.4021  -26.6228    5.3738 C.3       2 UNK        -0.2002 
     79 N         -47.7734  -26.9903    4.9367 N.am      2 UNK        -0.4032 
     80 C         -49.0188  -26.7690    4.5013 C.2       1 UNK         0.5000 
     81 O         -49.4180  -25.6712    4.1068 O.2       1 UNK        -0.5238 
     82 H82       -48.2569  -32.0943    3.9215 H         1 UNK         0.0889 
     83 H83       -47.1179  -31.1124    2.9961 H         1 UNK         0.0889 
     84 H84       -48.8037  -31.2266    2.4859 H         1 UNK         0.0889 
     85 H85       -49.9317  -29.3932    2.9746 H         1 UNK         0.3028 
     86 H86       -50.8451  -27.6592    3.9066 H         1 UNK         0.0864 
     87 H87       -50.8585  -27.2798    6.3857 H         1 UNK         0.0720 
     88 H88       -49.7206  -28.5699    6.6041 H         1 UNK         0.0720 
     89 H89       -54.1745  -29.0533    6.6176 H         1 UNK         0.0814 
     90 H90       -53.5063  -27.6797    5.7704 H         1 UNK         0.0814 
     91 H91       -53.1676  -25.7483    7.1054 H         1 UNK         0.1469 
     92 H92       -52.2670  -26.0576   11.2843 H         1 UNK         0.1381 
     93 H93       -52.8584  -29.6022    8.9571 H         1 UNK         0.1206 
     94 H94       -52.1003  -29.8102   11.1759 H         1 UNK         0.0813 
     95 H95       -51.3310  -28.4501   11.9546 H         1 UNK         0.0813 
     96 H96       -53.1421  -29.9812   14.6833 H         1 UNK         0.0638 
     97 H97       -52.4023  -30.7125   13.2882 H         1 UNK         0.0638 
     98 H98       -54.7208  -31.3775   12.4590 H         1 UNK         0.0568 
     99 H99       -53.3779  -33.3004   12.4132 H         1 UNK         0.3450 
    100 H100      -53.3541  -34.3930   13.7721 H         1 UNK         0.3450 
    101 H101      -55.5596  -29.8646   14.7584 H         1 UNK         0.2987 
    102 H102      -58.8689  -29.9890   13.8801 H         1 UNK         0.0766 
    103 H103      -59.0930  -31.9868   15.3587 H         1 UNK         0.0798 
    104 H104      -59.5340  -30.5238   16.2210 H         1 UNK         0.0798 
    105 H105      -57.9688  -31.2855   16.5132 H         1 UNK         0.0798 
    106 H106      -57.5200  -28.8728   16.1724 H         1 UNK         0.3198 
    107 H107      -57.4369  -25.8688   15.1761 H         1 UNK         0.0843 
    108 H108      -55.5509  -27.7339   16.7413 H         1 UNK         0.0831 
    109 H109      -57.1560  -27.2048   17.2582 H         1 UNK         0.0831 
    110 H110      -55.8541  -26.0463   17.1254 H         1 UNK         0.0831 
    111 H111      -55.0145  -26.9008   13.9180 H         1 UNK         0.3133 
    112 H112      -53.9802  -25.1553   12.5662 H         1 UNK         0.0566 
    113 H113      -53.3457  -22.6439   14.2071 H         1 UNK         0.0814 
    114 H114      -54.3789  -22.7168   12.7916 H         1 UNK         0.0814 
    115 H115      -52.6677  -23.0453   12.6367 H         1 UNK         0.0814 
    116 H116      -52.3302  -26.1984   13.6554 H         1 UNK         0.3091 
    117 H117      -51.2016  -26.1226   16.9827 H         1 UNK         0.0702 
    118 H118      -50.9498  -28.3614   16.1169 H         1 UNK         0.0785 
    119 H119      -51.3245  -27.8640   14.4753 H         1 UNK         0.0785 
    120 H120      -52.5773  -27.8396   15.7209 H         1 UNK         0.0785 
    121 H121      -49.6510  -25.7030   14.4733 H         1 UNK         0.2998 
    122 H122      -46.6088  -25.6386   16.3832 H         1 UNK         0.0697 
    123 H123      -45.8298  -27.1246   14.5680 H         1 UNK         0.0825 
    124 H124      -47.4920  -27.4943   14.1113 H         1 UNK         0.0825 
    125 H125      -46.8648  -28.0206   15.6673 H         1 UNK         0.0825 
    126 H126      -47.0957  -25.0868   13.6341 H         1 UNK         0.3029 
    127 H127      -47.7564  -21.5818   14.0477 H         1 UNK         0.0897 
    128 H128      -45.3744  -23.1486   12.9156 H         1 UNK         0.0792 
    129 H129      -45.2829  -21.8334   14.0776 H         1 UNK         0.0792 
    130 H130      -45.8454  -21.5174   12.4428 H         1 UNK         0.0792 
    131 H131      -47.5992  -23.1933   11.7053 H         1 UNK         0.3086 
    132 H132      -50.9991  -24.2830   11.7013 H         1 UNK         0.0583 
    133 H133      -51.1680  -22.0797   10.6474 H         1 UNK         0.1020 
    134 H134      -49.5619  -22.2078    9.9847 H         1 UNK         0.1020 
    135 H135      -52.9316  -23.8819   10.3040 H         1 UNK         0.0694 
    136 H136      -53.4917  -23.8003    8.6593 H         1 UNK         0.0694 
    137 H137      -48.7597  -24.7536    9.9725 H         1 UNK         0.2989 
    138 H138      -47.7095  -27.7522   11.5595 H         1 UNK         0.1055 
    139 H139      -48.1076  -28.5633    9.1955 H         1 UNK         0.0806 
    140 H140      -49.2714  -27.2601    8.9601 H         1 UNK         0.0806 
    141 H141      -49.5804  -28.5140   10.1479 H         1 UNK         0.0806 
    142 H142      -46.9393  -26.2587    9.1941 H         1 UNK         0.3061 
    143 H143      -44.5331  -24.1890   10.8377 H         1 UNK         0.0734 
    144 H144      -44.0422  -26.6550    9.0784 H         1 UNK         0.0832 
    145 H145      -42.9260  -25.3087    9.3153 H         1 UNK         0.0832 
    146 H146      -43.3208  -26.3702   10.6560 H         1 UNK         0.0832 
    147 H147      -45.0525  -24.5985    8.0808 H         1 UNK         0.3156 
    148 H148      -48.0132  -22.8114    7.6790 H         1 UNK         0.0589 
    149 H149      -46.7794  -21.1695    6.2933 H         1 UNK         0.0808 
    150 H150      -45.2559  -21.6170    7.0639 H         1 UNK         0.0808 
    151 H151      -46.5210  -20.8270    7.9945 H         1 UNK         0.0808 
    152 H152      -46.1830  -23.5247    5.6905 H         1 UNK         0.3098 
    153 H153      -46.7382  -25.2856    4.3332 H         1 UNK         0.0720 
    154 H154      -44.6193  -25.8802    5.5331 H         1 UNK         0.0791 
    155 H155      -45.1246  -27.1986    4.4905 H         1 UNK         0.0791 
    156 H156      -45.3913  -27.2995    6.2297 H         1 UNK         0.0791 
    157 H157      -47.5581  -27.9355    5.2459 H         1 UNK         0.3028 
@<TRIPOS>BOND
     1    1    2 1    
     2    1   82 1    
     3    1   83 1    
     4    1   84 1    
     5    2    3 2    
     6    2    4 am   BACKBONE|DICT|INTERRES
     7    4    5 1    
     8    4   85 1    
     9    5    6 1    
    10    5   80 1    
    11    5   86 1    
    12    6    7 1    
    13    6   87 1    
    14    6   88 1    
    15    7    8 1    
    16    8    9 1    
    17    8   89 1    
    18    8   90 1    
    19    9   10 ar   
    20    9   14 ar   
    21   10   11 ar   
    22   10   91 1    
    23   11   12 ar   
    24   11   58 1    
    25   12   13 ar   
    26   12   92 1    
    27   13   14 ar   
    28   13   15 1    
    29   14   93 1    
    30   15   16 1    
    31   15   94 1    
    32   15   95 1    
    33   16   17 1    
    34   17   18 1    
    35   17   96 1    
    36   17   97 1    
    37   18   19 1    
    38   18   22 1    
    39   18   98 1    
    40   19   20 am   BACKBONE|DICT|INTERRES
    41   19   21 2    
    42   20   99 1    
    43   20  100 1    
    44   22   23 am   BACKBONE|DICT|INTERRES
    45   22  101 1    
    46   23   24 2    
    47   23   25 1    
    48   25   26 1    
    49   25   27 1    
    50   25  102 1    
    51   26  103 1    
    52   26  104 1    
    53   26  105 1    
    54   27   28 am   BACKBONE|DICT|INTERRES
    55   27  106 1    
    56   28   29 2    
    57   28   30 1    
    58   30   31 1    
    59   30   32 1    
    60   30  107 1    
    61   31  108 1    
    62   31  109 1    
    63   31  110 1    
    64   32   33 am   BACKBONE|DICT|INTERRES
    65   32  111 1    
    66   33   34 2    
    67   33   35 1    
    68   35   36 1    
    69   35   37 1    
    70   35  112 1    
    71   36  113 1    
    72   36  114 1    
    73   36  115 1    
    74   37   38 am   BACKBONE|DICT|INTERRES
    75   37  116 1    
    76   38   39 2    
    77   38   40 1    
    78   40   41 1    
    79   40   42 1    
    80   40  117 1    
    81   41  118 1    
    82   41  119 1    
    83   41  120 1    
    84   42   43 am   BACKBONE|DICT|INTERRES
    85   42  121 1    
    86   43   44 2    
    87   43   45 1    
    88   45   46 1    
    89   45   47 1    
    90   45  122 1    
    91   46  123 1    
    92   46  124 1    
    93   46  125 1    
    94   47   48 am   BACKBONE|DICT|INTERRES
    95   47  126 1    
    96   48   49 2    
    97   48   50 1    
    98   50   51 1    
    99   50   52 1    
   100   50  127 1    
   101   51  128 1    
   102   51  129 1    
   103   51  130 1    
   104   52   53 am   BACKBONE|DICT|INTERRES
   105   52  131 1    
   106   53   54 2    
   107   53   55 1    
   108   55   56 1    
   109   55   59 1    
   110   55  132 1    
   111   56   57 1    
   112   56  133 1    
   113   56  134 1    
   114   57   58 1    
   115   58  135 1    
   116   58  136 1    
   117   59   60 am   BACKBONE|DICT|INTERRES
   118   59  137 1    
   119   60   61 2    
   120   60   62 1    
   121   62   63 1    
   122   62   64 1    
   123   62  138 1    
   124   63  139 1    
   125   63  140 1    
   126   63  141 1    
   127   64   65 am   BACKBONE|DICT|INTERRES
   128   64  142 1    
   129   65   66 2    
   130   65   67 1    
   131   67   68 1    
   132   67   69 1    
   133   67  143 1    
   134   68  144 1    
   135   68  145 1    
   136   68  146 1    
   137   69   70 am   BACKBONE|DICT|INTERRES
   138   69  147 1    
   139   70   71 2    
   140   70   72 1    
   141   72   73 1    
   142   72   74 1    
   143   72  148 1    
   144   73  149 1    
   145   73  150 1    
   146   73  151 1    
   147   74   75 am   BACKBONE|DICT|INTERRES
   148   74  152 1    
   149   75   76 2    
   150   75   77 1    
   151   77   78 1    
   152   77   79 1    
   153   77  153 1    
   154   78  154 1    
   155   78  155 1    
   156   78  156 1    
   157   79   80 am   BACKBONE|DICT|INTERRES
   158   79  157 1    
   159   80   81 2    
@<TRIPOS>SUBSTRUCTURE
     1 UNK         1 GROUP             0       ****    0 ROOT    
