@<TRIPOS>MOLECULE
3R207
157   159    1
SMALL
USER_CHARGES


@<TRIPOS>ATOM
      1 CA        -47.5154  -31.4336    2.2754 C.3       0 UNK        -0.1975 
      2 C         -48.4551  -30.5418    3.0729 C.2       0 UNK         0.4852 
      3 O         -48.9325  -30.9531    4.1318 O.2       0 UNK        -0.5216 
      4 N         -48.7204  -29.3254    2.5730 N.am      1 UNK        -0.4461 
      5 CA        -49.5692  -28.2852    3.1699 C.3       1 UNK         0.0864 
      6 C6        -51.0245  -28.7605    3.4272 C.3       14 UNK        -0.0898 
      7 S7        -52.2247  -27.3926    3.4951 S.3       14 UNK        -0.2598 
      8 C8        -53.5619  -28.1574    4.4669 C.3       14 UNK         0.0286 
      9 C9        -53.2740  -28.0974    5.9595 C.ar      14 UNK        -0.0844 
     10 C10       -53.6061  -26.9491    6.6843 C.ar      14 UNK        -0.0881 
     11 C11       -53.3517  -26.8654    8.0560 C.ar      14 UNK        -0.0643 
     12 C12       -52.7344  -27.9510    8.6910 C.ar      14 UNK        -0.0930 
     13 C13       -52.4124  -29.1141    7.9866 C.ar      14 UNK        -0.0827 
     14 C14       -52.6915  -29.1839    6.6195 C.ar      14 UNK        -0.1249 
     15 C15       -51.7498  -30.2859    8.7018 C.3       14 UNK         0.0141 
     16 S16       -52.9429  -31.2721    9.6691 S.3       14 UNK        -0.2313 
     17 C17       -53.2355  -30.1588   11.0834 C.3       14 UNK        -0.0915 
     18 CA        -53.7391  -30.8516   12.3858 C.3       13 UNK         0.0968 
     19 C         -52.6243  -31.5634   13.2146 C.2       13 UNK         0.5732 
     20 N         -51.6198  -32.1387   12.5684 N.am      13 UNK        -0.7310 
     21 O         -52.6879  -31.6480   14.4403 O.2       13 UNK        -0.5035 
     22 N         -54.5544  -29.9314   13.1993 N.am      13 UNK        -0.4233 
     23 C         -54.1226  -28.7658   13.6988 C.2       13 UNK         0.4989 
     24 O         -52.9921  -28.3113   13.5138 O.2       13 UNK        -0.4996 
     25 CA        -55.1176  -27.9601   14.5406 C.3       12 UNK         0.0216 
     26 CB        -55.1126  -28.4204   16.0082 C.3       12 UNK        -0.1964 
     27 N         -54.7258  -26.5560   14.4669 N.am      12 UNK        -0.4276 
     28 C         -55.5570  -25.5125   14.4066 C.2       12 UNK         0.5020 
     29 O         -56.7822  -25.6024   14.5132 O.2       12 UNK        -0.5489 
     30 CA        -54.8917  -24.1458   14.1687 C.3       11 UNK         0.0294 
     31 CB        -55.8950  -22.9732   14.1091 C.3       11 UNK        -0.2019 
     32 N         -53.8071  -23.8804   15.1204 N.am      11 UNK        -0.4493 
     33 C         -53.9022  -23.6677   16.4405 C.2       11 UNK         0.4932 
     34 O         -54.9602  -23.6788   17.0723 O.2       11 UNK        -0.5029 
     35 CA        -52.5731  -23.3663   17.1600 C.3       10 UNK         0.0280 
     36 CB        -52.7465  -23.0589   18.6633 C.3       10 UNK        -0.1976 
     37 N         -51.5639  -24.4091   16.9473 N.am      10 UNK        -0.4242 
     38 C         -51.6240  -25.6951   17.3289 C.2       10 UNK         0.5072 
     39 O         -52.5729  -26.1821   17.9449 O.2       10 UNK        -0.5224 
     40 CA        -50.4321  -26.6096   16.9781 C.3       9 UNK         0.0343 
     41 CB        -50.8874  -27.7850   16.1014 C.3       9 UNK        -0.2003 
     42 N         -49.3340  -25.9218   16.2953 N.am      9 UNK        -0.4272 
     43 C         -48.3888  -25.1888   16.8971 C.2       9 UNK         0.4988 
     44 O         -48.3116  -25.0372   18.1167 O.2       9 UNK        -0.5108 
     45 CA        -47.3748  -24.4788   15.9812 C.3       8 UNK         0.0248 
     46 CB        -46.2290  -25.4304   15.6029 C.3       8 UNK        -0.2001 
     47 N         -47.9739  -23.9169   14.7643 N.am      8 UNK        -0.4140 
     48 C         -48.9280  -22.9731   14.7525 C.2       8 UNK         0.5028 
     49 O         -49.4123  -22.4745   15.7687 O.2       8 UNK        -0.5428 
     50 CA        -49.4705  -22.5414   13.3811 C.3       7 UNK         0.0264 
     51 CB        -48.4763  -21.6197   12.6569 C.3       7 UNK        -0.1988 
     52 N         -49.8064  -23.6776   12.5236 N.am      7 UNK        -0.4454 
     53 C         -50.7473  -24.5931   12.7989 C.2       7 UNK         0.5027 
     54 O         -51.4671  -24.5581   13.7969 O.2       7 UNK        -0.5083 
     55 CA        -50.8753  -25.7637   11.8047 C.3       6 UNK         0.0844 
     56 C56       -51.5846  -25.3096   10.5043 C.3       14 UNK        -0.0967 
     57 S57       -53.3914  -25.5131   10.5791 S.3       14 UNK        -0.2604 
     58 C58       -53.7765  -25.5903    8.7932 C.3       14 UNK         0.0134 
     59 N         -49.5806  -26.3919   11.5270 N.am      6 UNK        -0.4116 
     60 C         -48.7343  -26.8854   12.4433 C.2       5 UNK         0.5034 
     61 O         -48.9677  -26.9428   13.6487 O.2       5 UNK        -0.5045 
     62 CA        -47.3563  -27.3248   11.9307 C.3       5 UNK         0.0224 
     63 CB        -47.4125  -28.7535   11.3678 C.3       5 UNK        -0.1978 
     64 N         -46.8392  -26.3955   10.9218 N.am      5 UNK        -0.4737 
     65 C         -46.4700  -25.1333   11.1886 C.2       4 UNK         0.5027 
     66 O         -46.4597  -24.6487   12.3205 O.2       4 UNK        -0.5211 
     67 CA        -46.1021  -24.2507    9.9840 C.3       4 UNK         0.0297 
     68 CB        -44.6547  -24.5136    9.5399 C.3       4 UNK        -0.1993 
     69 N         -47.0114  -24.4403    8.8497 N.am      4 UNK        -0.4486 
     70 C         -48.3125  -24.1145    8.8598 C.2       3 UNK         0.4961 
     71 O         -48.8684  -23.5642    9.8095 O.2       3 UNK        -0.5105 
     72 CA        -49.1453  -24.5044    7.6239 C.3       3 UNK         0.0299 
     73 CB        -49.1378  -23.3695    6.5892 C.3       3 UNK        -0.1972 
     74 N         -48.7061  -25.7492    6.9858 N.am      3 UNK        -0.4305 
     75 C         -48.6621  -26.9541    7.5678 C.2       2 UNK         0.5006 
     76 O         -49.0236  -27.1563    8.7291 O.2       2 UNK        -0.5106 
     77 CA        -48.0590  -28.1007    6.7287 C.3       2 UNK         0.0296 
     78 CB        -47.8952  -29.4002    7.5374 C.3       2 UNK        -0.2002 
     79 N         -48.7991  -28.4091    5.5023 N.am      2 UNK        -0.4032 
     80 C         -48.8886  -27.6500    4.4017 C.2       1 UNK         0.5000 
     81 O         -48.4041  -26.5193    4.3101 O.2       1 UNK        -0.5238 
     82 H82       -47.1705  -30.9506    1.3614 H         1 UNK         0.0889 
     83 H83       -48.0213  -32.3586    2.0001 H         1 UNK         0.0889 
     84 H84       -46.6421  -31.6883    2.8752 H         1 UNK         0.0889 
     85 H85       -48.2705  -29.0526    1.7096 H         1 UNK         0.3028 
     86 H86       -49.6153  -27.5025    2.4104 H         1 UNK         0.0864 
     87 H87       -51.3459  -29.4149    2.6153 H         1 UNK         0.0720 
     88 H88       -51.0889  -29.3641    4.3315 H         1 UNK         0.0720 
     89 H89       -53.7150  -29.1881    4.1429 H         1 UNK         0.0814 
     90 H90       -54.4947  -27.6332    4.2533 H         1 UNK         0.0814 
     91 H91       -54.0694  -26.1145    6.1753 H         1 UNK         0.1469 
     92 H92       -52.5055  -27.9057    9.7435 H         1 UNK         0.1381 
     93 H93       -52.4490  -30.0824    6.0691 H         1 UNK         0.1206 
     94 H94       -51.2671  -30.9417    7.9757 H         1 UNK         0.0813 
     95 H95       -50.9531  -29.9208    9.3522 H         1 UNK         0.0813 
     96 H96       -53.9814  -29.4369   10.7471 H         1 UNK         0.0638 
     97 H97       -52.3298  -29.5863   11.2905 H         1 UNK         0.0638 
     98 H98       -54.4285  -31.6455   12.0974 H         1 UNK         0.0568 
     99 H99       -50.9049  -32.6195   13.0907 H         1 UNK         0.3450 
    100 H100      -51.5794  -32.1015   11.5611 H         1 UNK         0.3450 
    101 H101      -55.4835  -30.2531   13.4284 H         1 UNK         0.2987 
    102 H102      -56.1152  -28.0914   14.1159 H         1 UNK         0.0766 
    103 H103      -55.8320  -27.8549   16.6008 H         1 UNK         0.0798 
    104 H104      -54.1316  -28.2908   16.4666 H         1 UNK         0.0798 
    105 H105      -55.3779  -29.4749   16.0921 H         1 UNK         0.0798 
    106 H106      -53.7348  -26.4129   14.3098 H         1 UNK         0.3198 
    107 H107      -54.4174  -24.2093   13.1881 H         1 UNK         0.0843 
    108 H108      -56.4577  -22.8683   15.0370 H         1 UNK         0.0831 
    109 H109      -56.6201  -23.1252   13.3087 H         1 UNK         0.0831 
    110 H110      -55.3897  -22.0277   13.9128 H         1 UNK         0.0831 
    111 H111      -52.8704  -23.9451   14.7198 H         1 UNK         0.3133 
    112 H112      -52.1729  -22.4655   16.6922 H         1 UNK         0.0566 
    113 H113      -51.7927  -22.8115   19.1293 H         1 UNK         0.0814 
    114 H114      -53.4103  -22.2063   18.8112 H         1 UNK         0.0814 
    115 H115      -53.1770  -23.9011   19.2057 H         1 UNK         0.0814 
    116 H116      -50.7436  -24.1095   16.4330 H         1 UNK         0.3091 
    117 H117      -50.0567  -27.0181   17.9185 H         1 UNK         0.0702 
    118 H118      -50.0694  -28.4795   15.9097 H         1 UNK         0.0785 
    119 H119      -51.2533  -27.4305   15.1385 H         1 UNK         0.0785 
    120 H120      -51.6901  -28.3521   16.5735 H         1 UNK         0.0785 
    121 H121      -49.2842  -26.0512   15.2867 H         1 UNK         0.2998 
    122 H122      -46.9504  -23.6465   16.5463 H         1 UNK         0.0697 
    123 H123      -46.5870  -26.2800   15.0211 H         1 UNK         0.0825 
    124 H124      -45.7404  -25.8274   16.4937 H         1 UNK         0.0825 
    125 H125      -45.4663  -24.9200   15.0145 H         1 UNK         0.0825 
    126 H126      -47.6080  -24.2537   13.8771 H         1 UNK         0.3029 
    127 H127      -50.3902  -21.9781   13.5537 H         1 UNK         0.0897 
    128 H128      -48.8930  -21.2470   11.7209 H         1 UNK         0.0792 
    129 H129      -48.2292  -20.7526   13.2708 H         1 UNK         0.0792 
    130 H130      -47.5427  -22.1323   12.4234 H         1 UNK         0.0792 
    131 H131      -49.2997  -23.7512   11.6437 H         1 UNK         0.3086 
    132 H132      -51.4756  -26.5376   12.2856 H         1 UNK         0.0583 
    133 H133      -51.3619  -24.2729   10.2447 H         1 UNK         0.1020 
    134 H134      -51.2176  -25.8953    9.6623 H         1 UNK         0.1020 
    135 H135      -54.8557  -25.4765    8.6827 H         1 UNK         0.0694 
    136 H136      -53.3247  -24.7266    8.3028 H         1 UNK         0.0694 
    137 H137      -49.3029  -26.4487   10.5519 H         1 UNK         0.2989 
    138 H138      -46.6664  -27.3199   12.7774 H         1 UNK         0.1055 
    139 H139      -47.6907  -29.4628   12.1485 H         1 UNK         0.0806 
    140 H140      -46.4456  -29.0677   10.9749 H         1 UNK         0.0806 
    141 H141      -48.1511  -28.8496   10.5722 H         1 UNK         0.0806 
    142 H142      -46.8705  -26.7005    9.9599 H         1 UNK         0.3061 
    143 H143      -46.1768  -23.2087   10.3033 H         1 UNK         0.0734 
    144 H144      -44.3552  -23.8352    8.7409 H         1 UNK         0.0832 
    145 H145      -43.9610  -24.3612   10.3681 H         1 UNK         0.0832 
    146 H146      -44.5165  -25.5353    9.1839 H         1 UNK         0.0832 
    147 H147      -46.6337  -24.8772    8.0218 H         1 UNK         0.3156 
    148 H148      -50.1755  -24.6523    7.9503 H         1 UNK         0.0589 
    149 H149      -48.1378  -23.1899    6.1924 H         1 UNK         0.0808 
    150 H150      -49.7963  -23.5946    5.7498 H         1 UNK         0.0808 
    151 H151      -49.4867  -22.4354    7.0320 H         1 UNK         0.0808 
    152 H152      -48.4469  -25.7044    6.0025 H         1 UNK         0.3098 
    153 H153      -47.0593  -27.7769    6.4322 H         1 UNK         0.0720 
    154 H154      -47.4404  -30.1884    6.9367 H         1 UNK         0.0791 
    155 H155      -48.8527  -29.7698    7.9050 H         1 UNK         0.0791 
    156 H156      -47.2474  -29.2434    8.3997 H         1 UNK         0.0791 
    157 H157      -49.1668  -29.3512    5.4276 H         1 UNK         0.3028 
@<TRIPOS>BOND
     1    1    2 1    
     2    1   82 1    
     3    1   83 1    
     4    1   84 1    
     5    2    3 2    
     6    2    4 am   BACKBONE|DICT|INTERRES
     7    4    5 1    
     8    4   85 1    
     9    5    6 1    
    10    5   80 1    
    11    5   86 1    
    12    6    7 1    
    13    6   87 1    
    14    6   88 1    
    15    7    8 1    
    16    8    9 1    
    17    8   89 1    
    18    8   90 1    
    19    9   10 ar   
    20    9   14 ar   
    21   10   11 ar   
    22   10   91 1    
    23   11   12 ar   
    24   11   58 1    
    25   12   13 ar   
    26   12   92 1    
    27   13   14 ar   
    28   13   15 1    
    29   14   93 1    
    30   15   16 1    
    31   15   94 1    
    32   15   95 1    
    33   16   17 1    
    34   17   18 1    
    35   17   96 1    
    36   17   97 1    
    37   18   19 1    
    38   18   22 1    
    39   18   98 1    
    40   19   20 am   BACKBONE|DICT|INTERRES
    41   19   21 2    
    42   20   99 1    
    43   20  100 1    
    44   22   23 am   BACKBONE|DICT|INTERRES
    45   22  101 1    
    46   23   24 2    
    47   23   25 1    
    48   25   26 1    
    49   25   27 1    
    50   25  102 1    
    51   26  103 1    
    52   26  104 1    
    53   26  105 1    
    54   27   28 am   BACKBONE|DICT|INTERRES
    55   27  106 1    
    56   28   29 2    
    57   28   30 1    
    58   30   31 1    
    59   30   32 1    
    60   30  107 1    
    61   31  108 1    
    62   31  109 1    
    63   31  110 1    
    64   32   33 am   BACKBONE|DICT|INTERRES
    65   32  111 1    
    66   33   34 2    
    67   33   35 1    
    68   35   36 1    
    69   35   37 1    
    70   35  112 1    
    71   36  113 1    
    72   36  114 1    
    73   36  115 1    
    74   37   38 am   BACKBONE|DICT|INTERRES
    75   37  116 1    
    76   38   39 2    
    77   38   40 1    
    78   40   41 1    
    79   40   42 1    
    80   40  117 1    
    81   41  118 1    
    82   41  119 1    
    83   41  120 1    
    84   42   43 am   BACKBONE|DICT|INTERRES
    85   42  121 1    
    86   43   44 2    
    87   43   45 1    
    88   45   46 1    
    89   45   47 1    
    90   45  122 1    
    91   46  123 1    
    92   46  124 1    
    93   46  125 1    
    94   47   48 am   BACKBONE|DICT|INTERRES
    95   47  126 1    
    96   48   49 2    
    97   48   50 1    
    98   50   51 1    
    99   50   52 1    
   100   50  127 1    
   101   51  128 1    
   102   51  129 1    
   103   51  130 1    
   104   52   53 am   BACKBONE|DICT|INTERRES
   105   52  131 1    
   106   53   54 2    
   107   53   55 1    
   108   55   56 1    
   109   55   59 1    
   110   55  132 1    
   111   56   57 1    
   112   56  133 1    
   113   56  134 1    
   114   57   58 1    
   115   58  135 1    
   116   58  136 1    
   117   59   60 am   BACKBONE|DICT|INTERRES
   118   59  137 1    
   119   60   61 2    
   120   60   62 1    
   121   62   63 1    
   122   62   64 1    
   123   62  138 1    
   124   63  139 1    
   125   63  140 1    
   126   63  141 1    
   127   64   65 am   BACKBONE|DICT|INTERRES
   128   64  142 1    
   129   65   66 2    
   130   65   67 1    
   131   67   68 1    
   132   67   69 1    
   133   67  143 1    
   134   68  144 1    
   135   68  145 1    
   136   68  146 1    
   137   69   70 am   BACKBONE|DICT|INTERRES
   138   69  147 1    
   139   70   71 2    
   140   70   72 1    
   141   72   73 1    
   142   72   74 1    
   143   72  148 1    
   144   73  149 1    
   145   73  150 1    
   146   73  151 1    
   147   74   75 am   BACKBONE|DICT|INTERRES
   148   74  152 1    
   149   75   76 2    
   150   75   77 1    
   151   77   78 1    
   152   77   79 1    
   153   77  153 1    
   154   78  154 1    
   155   78  155 1    
   156   78  156 1    
   157   79   80 am   BACKBONE|DICT|INTERRES
   158   79  157 1    
   159   80   81 2    
@<TRIPOS>SUBSTRUCTURE
     1 UNK         1 GROUP             0       ****    0 ROOT    
