@<TRIPOS>MOLECULE
3R207
157   159    1
SMALL
USER_CHARGES


@<TRIPOS>ATOM
      1 CA        -54.0251  -30.2555    5.1726 C.3       0 UNK        -0.1975 
      2 C         -52.7321  -29.9507    5.9152 C.2       0 UNK         0.4852 
      3 O         -51.7140  -30.5922    5.6523 O.2       0 UNK        -0.5216 
      4 N         -52.7729  -28.9799    6.8377 N.am      1 UNK        -0.4461 
      5 CA        -51.6414  -28.4905    7.6323 C.3       1 UNK         0.0864 
      6 C6        -51.0786  -29.5693    8.6099 C.3       14 UNK        -0.0898 
      7 S7        -50.0693  -28.9031    9.9825 S.3       14 UNK        -0.2598 
      8 C8        -51.2849  -28.6374   11.3119 C.3       14 UNK         0.0286 
      9 C9        -52.3804  -27.6692   10.8926 C.ar      14 UNK        -0.0844 
     10 C10       -52.0631  -26.3526   10.5469 C.ar      14 UNK        -0.0881 
     11 C11       -53.0559  -25.4705   10.1066 C.ar      14 UNK        -0.0643 
     12 C12       -54.3770  -25.9213   10.0208 C.ar      14 UNK        -0.0930 
     13 C13       -54.7075  -27.2334   10.3696 C.ar      14 UNK        -0.0827 
     14 C14       -53.7062  -28.0983   10.8157 C.ar      14 UNK        -0.1249 
     15 C15       -56.1497  -27.7071   10.2804 C.3       14 UNK         0.0141 
     16 S16       -56.5522  -28.4693    8.6763 S.3       14 UNK        -0.2313 
     17 C17       -55.7174  -30.0914    8.7477 C.3       14 UNK        -0.0915 
     18 CA        -56.5728  -31.2063    9.4094 C.3       13 UNK         0.0968 
     19 C         -55.9891  -32.6026    9.0727 C.2       13 UNK         0.5732 
     20 N         -56.3657  -33.1746    7.9376 N.am      13 UNK        -0.7310 
     21 O         -55.1759  -33.1567    9.8115 O.2       13 UNK        -0.5035 
     22 N         -56.6562  -31.0513   10.8698 N.am      13 UNK        -0.4233 
     23 C         -57.7874  -30.9248   11.5744 C.2       13 UNK         0.4989 
     24 O         -58.9009  -30.7907   11.0655 O.2       13 UNK        -0.4996 
     25 CA        -57.6813  -30.9798   13.1113 C.3       12 UNK         0.0216 
     26 CB        -58.1586  -32.3491   13.6251 C.3       12 UNK        -0.1964 
     27 N         -56.3319  -30.7240   13.6296 N.am      12 UNK        -0.4276 
     28 C         -55.8116  -29.5060   13.8313 C.2       12 UNK         0.5020 
     29 O         -56.4232  -28.4603   13.6040 O.2       12 UNK        -0.5489 
     30 CA        -54.3815  -29.4418   14.3967 C.3       11 UNK         0.0294 
     31 CB        -53.4758  -30.5886   13.9013 C.3       11 UNK        -0.2019 
     32 N         -53.7714  -28.1581   14.0447 N.am      11 UNK        -0.4493 
     33 C         -53.1711  -27.3237   14.8982 C.2       11 UNK         0.4932 
     34 O         -53.0485  -27.5451   16.1061 O.2       11 UNK        -0.5029 
     35 CA        -52.6432  -26.0078   14.2960 C.3       10 UNK         0.0280 
     36 CB        -53.7956  -25.0331   14.0025 C.3       10 UNK        -0.1976 
     37 N         -51.6828  -25.3628   15.1935 N.am      10 UNK        -0.4242 
     38 C         -50.4042  -25.7375   15.3180 C.2       10 UNK         0.5072 
     39 O         -49.8633  -26.5869   14.6073 O.2       10 UNK        -0.5224 
     40 CA        -49.6175  -25.1013   16.4701 C.3       9 UNK         0.0343 
     41 CB        -49.5859  -26.0604   17.6781 C.3       9 UNK        -0.2003 
     42 N         -48.2632  -24.7730   16.0256 N.am      9 UNK        -0.4272 
     43 C         -47.3968  -24.0008   16.6966 C.2       9 UNK         0.4988 
     44 O         -47.6289  -23.5051   17.8002 O.2       9 UNK        -0.5108 
     45 CA        -46.0545  -23.6986   16.0136 C.3       8 UNK         0.0248 
     46 CB        -45.1815  -24.9594   15.8844 C.3       8 UNK        -0.2001 
     47 N         -46.2821  -23.0968   14.7003 N.am      8 UNK        -0.4140 
     48 C         -46.4827  -21.7859   14.4985 C.2       8 UNK         0.5028 
     49 O         -46.3570  -20.9325   15.3783 O.2       8 UNK        -0.5428 
     50 CA        -46.9043  -21.3318   13.0869 C.3       7 UNK         0.0264 
     51 CB        -45.6800  -20.8651   12.2832 C.3       7 UNK        -0.1988 
     52 N         -47.6227  -22.3482   12.3156 N.am      7 UNK        -0.4454 
     53 C         -48.7972  -22.8992   12.6591 C.2       7 UNK         0.5027 
     54 O         -49.4456  -22.5714   13.6536 O.2       7 UNK        -0.5083 
     55 CA        -49.3055  -24.0424   11.7546 C.3       6 UNK         0.0844 
     56 C56       -50.0844  -23.4695   10.5421 C.3       14 UNK        -0.0967 
     57 S57       -51.8254  -23.0934   10.9394 S.3       14 UNK        -0.2604 
     58 C58       -52.7150  -24.0504    9.6681 C.3       14 UNK         0.0134 
     59 N         -48.2357  -24.9570   11.3287 N.am      6 UNK        -0.4116 
     60 C         -47.3591  -25.5829   12.1307 C.2       5 UNK         0.5034 
     61 O         -47.3459  -25.4763   13.3552 O.2       5 UNK        -0.5045 
     62 CA        -46.2514  -26.3987   11.4496 C.3       5 UNK         0.0224 
     63 CB        -46.7616  -27.7671   10.9777 C.3       5 UNK        -0.1978 
     64 N         -45.6756  -25.6646   10.3237 N.am      5 UNK        -0.4737 
     65 C         -44.7997  -24.6592   10.4559 C.2       4 UNK         0.5027 
     66 O         -44.3060  -24.3182   11.5303 O.2       4 UNK        -0.5211 
     67 CA        -44.4300  -23.8878    9.1770 C.3       4 UNK         0.0297 
     68 CB        -43.2077  -24.5260    8.4984 C.3       4 UNK        -0.1993 
     69 N         -45.5338  -23.8030    8.2157 N.am      4 UNK        -0.4486 
     70 C         -46.6782  -23.1380    8.4290 C.2       3 UNK         0.4961 
     71 O         -46.9229  -22.5038    9.4556 O.2       3 UNK        -0.5105 
     72 CA        -47.7501  -23.2402    7.3292 C.3       3 UNK         0.0299 
     73 CB        -47.5044  -22.1865    6.2381 C.3       3 UNK        -0.1972 
     74 N         -47.8499  -24.5727    6.7181 N.am      3 UNK        -0.4305 
     75 C         -48.1609  -25.6918    7.3859 C.2       2 UNK         0.5006 
     76 O         -48.3331  -25.7325    8.6060 O.2       2 UNK        -0.5106 
     77 CA        -48.2441  -26.9923    6.5759 C.3       2 UNK         0.0296 
     78 CB        -46.9165  -27.7614    6.6714 C.3       2 UNK        -0.2002 
     79 N         -49.3177  -27.8237    7.1173 N.am      2 UNK        -0.4032 
     80 C         -50.6032  -27.7485    6.7533 C.2       1 UNK         0.5000 
     81 O         -50.9938  -27.0804    5.7911 O.2       1 UNK        -0.5238 
     82 H82       -54.3767  -31.2552    5.4267 H         1 UNK         0.0889 
     83 H83       -53.8579  -30.2159    4.0965 H         1 UNK         0.0889 
     84 H84       -54.8138  -29.5437    5.4164 H         1 UNK         0.0889 
     85 H85       -53.6358  -28.4730    6.9773 H         1 UNK         0.3028 
     86 H86       -52.0822  -27.7000    8.2339 H         1 UNK         0.0864 
     87 H87       -50.4814  -30.3037    8.0670 H         1 UNK         0.0720 
     88 H88       -51.9037  -30.1320    9.0497 H         1 UNK         0.0720 
     89 H89       -50.7718  -28.2391   12.1890 H         1 UNK         0.0814 
     90 H90       -51.6995  -29.6014   11.6072 H         1 UNK         0.0814 
     91 H91       -51.0326  -26.0363   10.5944 H         1 UNK         0.1469 
     92 H92       -55.1524  -25.2534    9.6712 H         1 UNK         0.1381 
     93 H93       -53.9578  -29.1128   11.0872 H         1 UNK         0.1206 
     94 H94       -56.3644  -28.4103   11.0787 H         1 UNK         0.0813 
     95 H95       -56.8237  -26.8647   10.4426 H         1 UNK         0.0813 
     96 H96       -54.7396  -30.0077    9.2175 H         1 UNK         0.0638 
     97 H97       -55.5122  -30.3551    7.7095 H         1 UNK         0.0638 
     98 H98       -57.5740  -31.1685    8.9755 H         1 UNK         0.0568 
     99 H99       -57.0265  -32.7286    7.3207 H         1 UNK         0.3450 
    100 H100      -55.9875  -34.0775    7.6973 H         1 UNK         0.3450 
    101 H101      -55.7981  -31.2355   11.3669 H         1 UNK         0.2987 
    102 H102      -58.3582  -30.2193   13.5073 H         1 UNK         0.0766 
    103 H103      -59.1761  -32.5590   13.2917 H         1 UNK         0.0798 
    104 H104      -58.1651  -32.3843   14.7147 H         1 UNK         0.0798 
    105 H105      -57.5249  -33.1608   13.2654 H         1 UNK         0.0798 
    106 H106      -55.7742  -31.5333   13.8633 H         1 UNK         0.3198 
    107 H107      -54.4778  -29.5232   15.4815 H         1 UNK         0.0843 
    108 H108      -53.4884  -30.6830   12.8157 H         1 UNK         0.0831 
    109 H109      -53.7824  -31.5477   14.3195 H         1 UNK         0.0831 
    110 H110      -52.4411  -30.4325   14.2079 H         1 UNK         0.0831 
    111 H111      -53.9178  -27.8513   13.0913 H         1 UNK         0.3133 
    112 H112      -52.1390  -26.2359   13.3563 H         1 UNK         0.0566 
    113 H113      -54.3539  -24.7810   14.9049 H         1 UNK         0.0814 
    114 H114      -54.5013  -25.4634   13.2903 H         1 UNK         0.0814 
    115 H115      -53.4260  -24.1063   13.5628 H         1 UNK         0.0814 
    116 H116      -52.0617  -24.6992   15.8532 H         1 UNK         0.3091 
    117 H117      -50.1133  -24.1727   16.7607 H         1 UNK         0.0702 
    118 H118      -49.1285  -25.5983   18.5526 H         1 UNK         0.0785 
    119 H119      -49.0296  -26.9703   17.4497 H         1 UNK         0.0785 
    120 H120      -50.5949  -26.3595   17.9657 H         1 UNK         0.0785 
    121 H121      -48.0104  -25.1337   15.1058 H         1 UNK         0.2998 
    122 H122      -45.5090  -22.9911   16.6420 H         1 UNK         0.0697 
    123 H123      -44.2264  -24.7307   15.4113 H         1 UNK         0.0825 
    124 H124      -45.6628  -25.7425   15.2993 H         1 UNK         0.0825 
    125 H125      -44.9640  -25.3796   16.8671 H         1 UNK         0.0825 
    126 H126      -46.4602  -23.7417   13.9384 H         1 UNK         0.3029 
    127 H127      -47.5780  -20.4812   13.2098 H         1 UNK         0.0897 
    128 H128      -44.9789  -21.6819   12.1079 H         1 UNK         0.0792 
    129 H129      -45.1403  -20.0789   12.8130 H         1 UNK         0.0792 
    130 H130      -45.9716  -20.4609   11.3134 H         1 UNK         0.0792 
    131 H131      -47.2049  -22.6254   11.4314 H         1 UNK         0.3086 
    132 H132      -49.9850  -24.6512   12.3549 H         1 UNK         0.0583 
    133 H133      -49.6113  -22.5684   10.1464 H         1 UNK         0.1020 
    134 H134      -50.0657  -24.1763    9.7137 H         1 UNK         0.1020 
    135 H135      -53.6288  -23.5034    9.4311 H         1 UNK         0.0694 
    136 H136      -52.1408  -24.0828    8.7413 H         1 UNK         0.0694 
    137 H137      -48.1761  -25.1419   10.3297 H         1 UNK         0.2989 
    138 H138      -45.4703  -26.5732   12.1936 H         1 UNK         0.1055 
    139 H139      -45.9420  -28.3954   10.6293 H         1 UNK         0.0806 
    140 H140      -47.4754  -27.6707   10.1617 H         1 UNK         0.0806 
    141 H141      -47.2601  -28.3014   11.7878 H         1 UNK         0.0806 
    142 H142      -46.0684  -25.8461    9.4110 H         1 UNK         0.3061 
    143 H143      -44.1656  -22.8701    9.4731 H         1 UNK         0.0734 
    144 H144      -43.4159  -25.5419    8.1600 H         1 UNK         0.0832 
    145 H145      -42.8816  -23.9434    7.6366 H         1 UNK         0.0832 
    146 H146      -42.3641  -24.5797    9.1881 H         1 UNK         0.0832 
    147 H147      -45.4211  -24.2944    7.3410 H         1 UNK         0.3156 
    148 H148      -48.7141  -23.0230    7.7931 H         1 UNK         0.0589 
    149 H149      -48.3142  -22.1741    5.5082 H         1 UNK         0.0808 
    150 H150      -46.5712  -22.3655    5.7026 H         1 UNK         0.0808 
    151 H151      -47.4456  -21.1859    6.6692 H         1 UNK         0.0808 
    152 H152      -47.7099  -24.6250    5.7189 H         1 UNK         0.3098 
    153 H153      -48.4449  -26.7598    5.5279 H         1 UNK         0.0720 
    154 H154      -46.0925  -27.1750    6.2628 H         1 UNK         0.0791 
    155 H155      -46.9598  -28.6935    6.1075 H         1 UNK         0.0791 
    156 H156      -46.6624  -28.0082    7.7033 H         1 UNK         0.0791 
    157 H157      -49.1114  -28.3177    7.9765 H         1 UNK         0.3028 
@<TRIPOS>BOND
     1    1    2 1    
     2    1   82 1    
     3    1   83 1    
     4    1   84 1    
     5    2    3 2    
     6    2    4 am   BACKBONE|DICT|INTERRES
     7    4    5 1    
     8    4   85 1    
     9    5    6 1    
    10    5   80 1    
    11    5   86 1    
    12    6    7 1    
    13    6   87 1    
    14    6   88 1    
    15    7    8 1    
    16    8    9 1    
    17    8   89 1    
    18    8   90 1    
    19    9   10 ar   
    20    9   14 ar   
    21   10   11 ar   
    22   10   91 1    
    23   11   12 ar   
    24   11   58 1    
    25   12   13 ar   
    26   12   92 1    
    27   13   14 ar   
    28   13   15 1    
    29   14   93 1    
    30   15   16 1    
    31   15   94 1    
    32   15   95 1    
    33   16   17 1    
    34   17   18 1    
    35   17   96 1    
    36   17   97 1    
    37   18   19 1    
    38   18   22 1    
    39   18   98 1    
    40   19   20 am   BACKBONE|DICT|INTERRES
    41   19   21 2    
    42   20   99 1    
    43   20  100 1    
    44   22   23 am   BACKBONE|DICT|INTERRES
    45   22  101 1    
    46   23   24 2    
    47   23   25 1    
    48   25   26 1    
    49   25   27 1    
    50   25  102 1    
    51   26  103 1    
    52   26  104 1    
    53   26  105 1    
    54   27   28 am   BACKBONE|DICT|INTERRES
    55   27  106 1    
    56   28   29 2    
    57   28   30 1    
    58   30   31 1    
    59   30   32 1    
    60   30  107 1    
    61   31  108 1    
    62   31  109 1    
    63   31  110 1    
    64   32   33 am   BACKBONE|DICT|INTERRES
    65   32  111 1    
    66   33   34 2    
    67   33   35 1    
    68   35   36 1    
    69   35   37 1    
    70   35  112 1    
    71   36  113 1    
    72   36  114 1    
    73   36  115 1    
    74   37   38 am   BACKBONE|DICT|INTERRES
    75   37  116 1    
    76   38   39 2    
    77   38   40 1    
    78   40   41 1    
    79   40   42 1    
    80   40  117 1    
    81   41  118 1    
    82   41  119 1    
    83   41  120 1    
    84   42   43 am   BACKBONE|DICT|INTERRES
    85   42  121 1    
    86   43   44 2    
    87   43   45 1    
    88   45   46 1    
    89   45   47 1    
    90   45  122 1    
    91   46  123 1    
    92   46  124 1    
    93   46  125 1    
    94   47   48 am   BACKBONE|DICT|INTERRES
    95   47  126 1    
    96   48   49 2    
    97   48   50 1    
    98   50   51 1    
    99   50   52 1    
   100   50  127 1    
   101   51  128 1    
   102   51  129 1    
   103   51  130 1    
   104   52   53 am   BACKBONE|DICT|INTERRES
   105   52  131 1    
   106   53   54 2    
   107   53   55 1    
   108   55   56 1    
   109   55   59 1    
   110   55  132 1    
   111   56   57 1    
   112   56  133 1    
   113   56  134 1    
   114   57   58 1    
   115   58  135 1    
   116   58  136 1    
   117   59   60 am   BACKBONE|DICT|INTERRES
   118   59  137 1    
   119   60   61 2    
   120   60   62 1    
   121   62   63 1    
   122   62   64 1    
   123   62  138 1    
   124   63  139 1    
   125   63  140 1    
   126   63  141 1    
   127   64   65 am   BACKBONE|DICT|INTERRES
   128   64  142 1    
   129   65   66 2    
   130   65   67 1    
   131   67   68 1    
   132   67   69 1    
   133   67  143 1    
   134   68  144 1    
   135   68  145 1    
   136   68  146 1    
   137   69   70 am   BACKBONE|DICT|INTERRES
   138   69  147 1    
   139   70   71 2    
   140   70   72 1    
   141   72   73 1    
   142   72   74 1    
   143   72  148 1    
   144   73  149 1    
   145   73  150 1    
   146   73  151 1    
   147   74   75 am   BACKBONE|DICT|INTERRES
   148   74  152 1    
   149   75   76 2    
   150   75   77 1    
   151   77   78 1    
   152   77   79 1    
   153   77  153 1    
   154   78  154 1    
   155   78  155 1    
   156   78  156 1    
   157   79   80 am   BACKBONE|DICT|INTERRES
   158   79  157 1    
   159   80   81 2    
@<TRIPOS>SUBSTRUCTURE
     1 UNK         1 GROUP             0       ****    0 ROOT    
