@<TRIPOS>MOLECULE
3R207
157   159    1
SMALL
USER_CHARGES


@<TRIPOS>ATOM
      1 CA        -51.5609  -29.6192    2.1770 C.3       0 UNK        -0.1975 
      2 C         -51.0095  -28.8203    3.3491 C.2       0 UNK         0.4852 
      3 O         -51.5035  -27.7269    3.6293 O.2       0 UNK        -0.5216 
      4 N         -49.9975  -29.3623    4.0384 N.am      1 UNK        -0.4461 
      5 CA        -49.3146  -28.7209    5.1666 C.3       1 UNK         0.0864 
      6 C6        -48.4908  -29.7391    5.9939 C.3       14 UNK        -0.0898 
      7 S7        -49.5298  -30.9969    6.8125 S.3       14 UNK        -0.2598 
      8 C8        -49.5256  -30.4383    8.5489 C.3       14 UNK         0.0286 
      9 C9        -50.8190  -29.7291    8.9222 C.ar      14 UNK        -0.0844 
     10 C10       -51.0238  -28.3849    8.5936 C.ar      14 UNK        -0.0881 
     11 C11       -52.2265  -27.7417    8.9218 C.ar      14 UNK        -0.0643 
     12 C12       -53.2064  -28.4550    9.6209 C.ar      14 UNK        -0.0930 
     13 C13       -53.0097  -29.7966    9.9617 C.ar      14 UNK        -0.0827 
     14 C14       -51.8181  -30.4288    9.6017 C.ar      14 UNK        -0.1249 
     15 C15       -54.0973  -30.5797   10.6802 C.3       14 UNK         0.0141 
     16 S16       -53.5961  -31.0387   12.3678 S.3       14 UNK        -0.2313 
     17 C17       -55.1381  -31.8140   12.9700 C.3       14 UNK        -0.0915 
     18 CA        -55.9361  -30.9269   13.9653 C.3       13 UNK         0.0968 
     19 C         -55.2500  -30.7929   15.3513 C.2       13 UNK         0.5732 
     20 N         -55.1211  -31.8887   16.0872 N.am      13 UNK        -0.7310 
     21 O         -54.8373  -29.7135   15.7714 O.2       13 UNK        -0.5035 
     22 N         -56.2442  -29.6128   13.3955 N.am      13 UNK        -0.4233 
     23 C         -57.3310  -29.2774   12.6984 C.2       13 UNK         0.4989 
     24 O         -58.2403  -30.0654   12.4323 O.2       13 UNK        -0.4996 
     25 CA        -57.4156  -27.8069   12.2316 C.3       12 UNK         0.0216 
     26 CB        -58.7655  -27.4701   11.5697 C.3       12 UNK        -0.1964 
     27 N         -57.1712  -26.8591   13.3261 N.am      12 UNK        -0.4276 
     28 C         -55.9676  -26.5546   13.8263 C.2       12 UNK         0.5020 
     29 O         -54.9108  -27.0170   13.3846 O.2       12 UNK        -0.5489 
     30 CA        -55.9408  -25.6294   15.0483 C.3       11 UNK         0.0294 
     31 CB        -56.5319  -26.3389   16.2847 C.3       11 UNK        -0.2019 
     32 N         -54.5487  -25.2686   15.2875 N.am      11 UNK        -0.4493 
     33 C         -54.0815  -24.3356   16.1218 C.2       11 UNK         0.4932 
     34 O         -54.8081  -23.6057   16.7982 O.2       11 UNK        -0.5029 
     35 CA        -52.5503  -24.1647   16.1977 C.3       10 UNK         0.0280 
     36 CB        -52.0667  -23.8193   17.6221 C.3       10 UNK        -0.1976 
     37 N         -51.7857  -25.2885   15.6392 N.am      10 UNK        -0.4242 
     38 C         -51.7105  -26.5500   16.0925 C.2       10 UNK         0.5072 
     39 O         -52.3199  -26.9736   17.0750 O.2       10 UNK        -0.5224 
     40 CA        -50.7669  -27.4936   15.3239 C.3       9 UNK         0.0343 
     41 CB        -51.4288  -28.0024   14.0311 C.3       9 UNK        -0.2003 
     42 N         -49.4809  -26.8599   15.0129 N.am      9 UNK        -0.4272 
     43 C         -48.5713  -26.5016   15.9332 C.2       9 UNK         0.4988 
     44 O         -48.6659  -26.7696   17.1317 O.2       9 UNK        -0.5108 
     45 CA        -47.3585  -25.6887   15.4459 C.3       8 UNK         0.0248 
     46 CB        -46.2619  -26.6126   14.8921 C.3       8 UNK        -0.2001 
     47 N         -47.7197  -24.6773   14.4484 N.am      8 UNK        -0.4140 
     48 C         -48.4754  -23.5989   14.7073 C.2       8 UNK         0.5028 
     49 O         -48.8704  -23.2939   15.8325 O.2       8 UNK        -0.5428 
     50 CA        -48.8830  -22.7178   13.5140 C.3       7 UNK         0.0264 
     51 CB        -47.8054  -21.6601   13.2285 C.3       7 UNK        -0.1988 
     52 N         -49.1627  -23.4844   12.2965 N.am      7 UNK        -0.4454 
     53 C         -50.1692  -24.3625   12.1641 C.2       7 UNK         0.5027 
     54 O         -51.0027  -24.5756   13.0438 O.2       7 UNK        -0.5083 
     55 CA        -50.2328  -25.1728   10.8529 C.3       6 UNK         0.0844 
     56 C56       -50.9399  -24.3558    9.7467 C.3       14 UNK        -0.0967 
     57 S57       -51.0990  -25.2464    8.1637 S.3       14 UNK        -0.2604 
     58 C58       -52.5464  -26.3159    8.4661 C.3       14 UNK         0.0134 
     59 N         -48.9071  -25.6572   10.4587 N.am      6 UNK        -0.4116 
     60 C         -48.1651  -26.5062   11.1842 C.2       5 UNK         0.5034 
     61 O         -48.5478  -27.0314   12.2296 O.2       5 UNK        -0.5045 
     62 CA        -46.7298  -26.7590   10.7007 C.3       5 UNK         0.0224 
     63 CB        -46.6866  -27.8541    9.6249 C.3       5 UNK        -0.1978 
     64 N         -46.1096  -25.5344   10.1923 N.am      5 UNK        -0.4737 
     65 C         -45.6814  -24.5336   10.9733 C.2       4 UNK         0.5027 
     66 O         -45.7360  -24.5595   12.2021 O.2       4 UNK        -0.5211 
     67 CA        -45.1279  -23.2839   10.2670 C.3       4 UNK         0.0297 
     68 CB        -43.6376  -23.4668    9.9402 C.3       4 UNK        -0.1993 
     69 N         -45.8604  -22.9422    9.0445 N.am      4 UNK        -0.4486 
     70 C         -47.1374  -22.5367    9.0189 C.2       3 UNK         0.4961 
     71 O         -47.8289  -22.3861   10.0250 O.2       3 UNK        -0.5105 
     72 CA        -47.7693  -22.3076    7.6350 C.3       3 UNK         0.0299 
     73 CB        -47.4441  -20.8956    7.1229 C.3       3 UNK        -0.1972 
     74 N         -47.4039  -23.3001    6.6149 N.am      3 UNK        -0.4305 
     75 C         -47.5355  -24.6264    6.7493 C.2       2 UNK         0.5006 
     76 O         -47.8450  -25.1879    7.8036 O.2       2 UNK        -0.5106 
     77 CA        -47.2597  -25.4854    5.5140 C.3       2 UNK         0.0296 
     78 CB        -45.7713  -25.8742    5.4414 C.3       2 UNK        -0.2002 
     79 N         -48.0943  -26.6718    5.6528 N.am      2 UNK        -0.4032 
     80 C         -48.4117  -27.5570    4.7045 C.2       1 UNK         0.5000 
     81 O         -47.9980  -27.5018    3.5423 O.2       1 UNK        -0.5238 
     82 H82       -52.6196  -29.8272    2.3296 H         1 UNK         0.0889 
     83 H83       -51.0433  -30.5702    2.0521 H         1 UNK         0.0889 
     84 H84       -51.4541  -29.0512    1.2532 H         1 UNK         0.0889 
     85 H85       -49.6252  -30.2573    3.7562 H         1 UNK         0.3028 
     86 H86       -50.0862  -28.2938    5.8096 H         1 UNK         0.0864 
     87 H87       -47.7794  -30.2592    5.3494 H         1 UNK         0.0720 
     88 H88       -47.8825  -29.2358    6.7468 H         1 UNK         0.0720 
     89 H89       -49.3832  -31.3113    9.1878 H         1 UNK         0.0814 
     90 H90       -48.6760  -29.7896    8.7503 H         1 UNK         0.0814 
     91 H91       -50.2512  -27.8520    8.0614 H         1 UNK         0.1469 
     92 H92       -54.1390  -27.9707    9.8770 H         1 UNK         0.1381 
     93 H93       -51.6708  -31.4700    9.8551 H         1 UNK         0.1206 
     94 H94       -55.0203  -30.0004   10.7243 H         1 UNK         0.0813 
     95 H95       -54.3250  -31.4832   10.1128 H         1 UNK         0.0813 
     96 H96       -54.8838  -32.7731   13.4236 H         1 UNK         0.0638 
     97 H97       -55.7730  -32.0605   12.1177 H         1 UNK         0.0638 
     98 H98       -56.8847  -31.4268   14.1701 H         1 UNK         0.0568 
     99 H99       -54.6779  -31.8189   16.9896 H         1 UNK         0.3450 
    100 H100      -55.4557  -32.7816   15.7608 H         1 UNK         0.3450 
    101 H101      -55.5540  -28.8920   13.5892 H         1 UNK         0.2987 
    102 H102      -56.6376  -27.6728   11.4765 H         1 UNK         0.0766 
    103 H103      -58.7842  -26.4425   11.2060 H         1 UNK         0.0798 
    104 H104      -59.5985  -27.5972   12.2623 H         1 UNK         0.0798 
    105 H105      -58.9531  -28.1166   10.7112 H         1 UNK         0.0798 
    106 H106      -57.9908  -26.4656   13.7670 H         1 UNK         0.3198 
    107 H107      -56.5107  -24.7264   14.8205 H         1 UNK         0.0843 
    108 H108      -55.9650  -27.2362   16.5377 H         1 UNK         0.0831 
    109 H109      -57.5655  -26.6425   16.1161 H         1 UNK         0.0831 
    110 H110      -56.5322  -25.6894   17.1598 H         1 UNK         0.0831 
    111 H111      -53.8981  -25.8108   14.7293 H         1 UNK         0.3133 
    112 H112      -52.3151  -23.3121   15.5593 H         1 UNK         0.0566 
    113 H113      -50.9842  -23.6935   17.6526 H         1 UNK         0.0814 
    114 H114      -52.5096  -22.8860   17.9715 H         1 UNK         0.0814 
    115 H115      -52.3350  -24.5944   18.3403 H         1 UNK         0.0814 
    116 H116      -51.2995  -25.0741   14.7691 H         1 UNK         0.3091 
    117 H117      -50.5682  -28.3573   15.9618 H         1 UNK         0.0702 
    118 H118      -50.7949  -28.7248   13.5166 H         1 UNK         0.0785 
    119 H119      -51.6420  -27.1926   13.3331 H         1 UNK         0.0785 
    120 H120      -52.3765  -28.4989   14.2475 H         1 UNK         0.0785 
    121 H121      -49.2835  -26.6732   14.0341 H         1 UNK         0.2998 
    122 H122      -46.9457  -25.1637   16.3101 H         1 UNK         0.0697 
    123 H123      -46.6068  -27.1833   14.0305 H         1 UNK         0.0825 
    124 H124      -45.9410  -27.3300   15.6484 H         1 UNK         0.0825 
    125 H125      -45.3814  -26.0462   14.5883 H         1 UNK         0.0825 
    126 H126      -47.3588  -24.8074   13.5096 H         1 UNK         0.3029 
    127 H127      -49.8021  -22.1978   13.7930 H         1 UNK         0.0897 
    128 H128      -48.1227  -20.9727   12.4441 H         1 UNK         0.0792 
    129 H129      -47.5980  -21.0635   14.1179 H         1 UNK         0.0792 
    130 H130      -46.8661  -22.1156   12.9141 H         1 UNK         0.0792 
    131 H131      -48.5601  -23.3003   11.4967 H         1 UNK         0.3086 
    132 H132      -50.8442  -26.0555   11.0532 H         1 UNK         0.0583 
    133 H133      -51.9332  -24.0432   10.0749 H         1 UNK         0.1020 
    134 H134      -50.3899  -23.4342    9.5479 H         1 UNK         0.1020 
    135 H135      -53.2116  -25.8310    9.1821 H         1 UNK         0.0694 
    136 H136      -53.1066  -26.3869    7.5330 H         1 UNK         0.0694 
    137 H137      -48.5351  -25.3117    9.5779 H         1 UNK         0.2989 
    138 H138      -46.1467  -27.1063   11.5567 H         1 UNK         0.1055 
    139 H139      -47.0282  -28.8032   10.0383 H         1 UNK         0.0806 
    140 H140      -45.6725  -28.0110    9.2572 H         1 UNK         0.0806 
    141 H141      -47.3205  -27.6156    8.7709 H         1 UNK         0.0806 
    142 H142      -46.1258  -25.3976    9.1902 H         1 UNK         0.3061 
    143 H143      -45.2236  -22.4451   10.9598 H         1 UNK         0.0734 
    144 H144      -43.2088  -22.5581    9.5174 H         1 UNK         0.0832 
    145 H145      -43.0685  -23.7023   10.8408 H         1 UNK         0.0832 
    146 H146      -43.4741  -24.2790    9.2307 H         1 UNK         0.0832 
    147 H147      -45.3727  -23.0477    8.1669 H         1 UNK         0.3156 
    148 H148      -48.8514  -22.3759    7.7645 H         1 UNK         0.0589 
    149 H149      -46.3797  -20.7738    6.9183 H         1 UNK         0.0808 
    150 H150      -47.9910  -20.6684    6.2077 H         1 UNK         0.0808 
    151 H151      -47.7229  -20.1397    7.8589 H         1 UNK         0.0808 
    152 H152      -47.1206  -22.9346    5.7167 H         1 UNK         0.3098 
    153 H153      -47.5550  -24.9393    4.6158 H         1 UNK         0.0720 
    154 H154      -45.5622  -26.4911    4.5674 H         1 UNK         0.0791 
    155 H155      -45.4577  -26.4314    6.3254 H         1 UNK         0.0791 
    156 H156      -45.1376  -24.9895    5.3692 H         1 UNK         0.0791 
    157 H157      -48.4869  -26.7570    6.5829 H         1 UNK         0.3028 
@<TRIPOS>BOND
     1    1    2 1    
     2    1   82 1    
     3    1   83 1    
     4    1   84 1    
     5    2    3 2    
     6    2    4 am   BACKBONE|DICT|INTERRES
     7    4    5 1    
     8    4   85 1    
     9    5    6 1    
    10    5   80 1    
    11    5   86 1    
    12    6    7 1    
    13    6   87 1    
    14    6   88 1    
    15    7    8 1    
    16    8    9 1    
    17    8   89 1    
    18    8   90 1    
    19    9   10 ar   
    20    9   14 ar   
    21   10   11 ar   
    22   10   91 1    
    23   11   12 ar   
    24   11   58 1    
    25   12   13 ar   
    26   12   92 1    
    27   13   14 ar   
    28   13   15 1    
    29   14   93 1    
    30   15   16 1    
    31   15   94 1    
    32   15   95 1    
    33   16   17 1    
    34   17   18 1    
    35   17   96 1    
    36   17   97 1    
    37   18   19 1    
    38   18   22 1    
    39   18   98 1    
    40   19   20 am   BACKBONE|DICT|INTERRES
    41   19   21 2    
    42   20   99 1    
    43   20  100 1    
    44   22   23 am   BACKBONE|DICT|INTERRES
    45   22  101 1    
    46   23   24 2    
    47   23   25 1    
    48   25   26 1    
    49   25   27 1    
    50   25  102 1    
    51   26  103 1    
    52   26  104 1    
    53   26  105 1    
    54   27   28 am   BACKBONE|DICT|INTERRES
    55   27  106 1    
    56   28   29 2    
    57   28   30 1    
    58   30   31 1    
    59   30   32 1    
    60   30  107 1    
    61   31  108 1    
    62   31  109 1    
    63   31  110 1    
    64   32   33 am   BACKBONE|DICT|INTERRES
    65   32  111 1    
    66   33   34 2    
    67   33   35 1    
    68   35   36 1    
    69   35   37 1    
    70   35  112 1    
    71   36  113 1    
    72   36  114 1    
    73   36  115 1    
    74   37   38 am   BACKBONE|DICT|INTERRES
    75   37  116 1    
    76   38   39 2    
    77   38   40 1    
    78   40   41 1    
    79   40   42 1    
    80   40  117 1    
    81   41  118 1    
    82   41  119 1    
    83   41  120 1    
    84   42   43 am   BACKBONE|DICT|INTERRES
    85   42  121 1    
    86   43   44 2    
    87   43   45 1    
    88   45   46 1    
    89   45   47 1    
    90   45  122 1    
    91   46  123 1    
    92   46  124 1    
    93   46  125 1    
    94   47   48 am   BACKBONE|DICT|INTERRES
    95   47  126 1    
    96   48   49 2    
    97   48   50 1    
    98   50   51 1    
    99   50   52 1    
   100   50  127 1    
   101   51  128 1    
   102   51  129 1    
   103   51  130 1    
   104   52   53 am   BACKBONE|DICT|INTERRES
   105   52  131 1    
   106   53   54 2    
   107   53   55 1    
   108   55   56 1    
   109   55   59 1    
   110   55  132 1    
   111   56   57 1    
   112   56  133 1    
   113   56  134 1    
   114   57   58 1    
   115   58  135 1    
   116   58  136 1    
   117   59   60 am   BACKBONE|DICT|INTERRES
   118   59  137 1    
   119   60   61 2    
   120   60   62 1    
   121   62   63 1    
   122   62   64 1    
   123   62  138 1    
   124   63  139 1    
   125   63  140 1    
   126   63  141 1    
   127   64   65 am   BACKBONE|DICT|INTERRES
   128   64  142 1    
   129   65   66 2    
   130   65   67 1    
   131   67   68 1    
   132   67   69 1    
   133   67  143 1    
   134   68  144 1    
   135   68  145 1    
   136   68  146 1    
   137   69   70 am   BACKBONE|DICT|INTERRES
   138   69  147 1    
   139   70   71 2    
   140   70   72 1    
   141   72   73 1    
   142   72   74 1    
   143   72  148 1    
   144   73  149 1    
   145   73  150 1    
   146   73  151 1    
   147   74   75 am   BACKBONE|DICT|INTERRES
   148   74  152 1    
   149   75   76 2    
   150   75   77 1    
   151   77   78 1    
   152   77   79 1    
   153   77  153 1    
   154   78  154 1    
   155   78  155 1    
   156   78  156 1    
   157   79   80 am   BACKBONE|DICT|INTERRES
   158   79  157 1    
   159   80   81 2    
@<TRIPOS>SUBSTRUCTURE
     1 UNK         1 GROUP             0       ****    0 ROOT    
