@<TRIPOS>MOLECULE
3R207
157   159    1
SMALL
USER_CHARGES


@<TRIPOS>ATOM
      1 CA        -50.0744  -27.1996    1.1050 C.3       0 UNK        -0.1975 
      2 C         -50.0673  -28.4650    1.9598 C.2       0 UNK         0.4852 
      3 O         -49.6853  -29.5224    1.4616 O.2       0 UNK        -0.5216 
      4 N         -50.4806  -28.4249    3.2363 N.am      1 UNK        -0.4461 
      5 CA        -50.9148  -27.2485    4.0029 C.3       1 UNK         0.0864 
      6 C6        -51.5973  -27.6810    5.3258 C.3       14 UNK        -0.0898 
      7 S7        -52.6595  -26.3835    6.0459 S.3       14 UNK        -0.2598 
      8 C8        -51.6648  -25.8388    7.4711 C.3       14 UNK         0.0286 
      9 C9        -51.8355  -26.7604    8.6707 C.ar      14 UNK        -0.0844 
     10 C10       -50.9389  -27.8085    8.9033 C.ar      14 UNK        -0.0881 
     11 C11       -51.1027  -28.6529   10.0062 C.ar      14 UNK        -0.0643 
     12 C12       -52.1650  -28.4334   10.8892 C.ar      14 UNK        -0.0930 
     13 C13       -53.0514  -27.3724   10.6813 C.ar      14 UNK        -0.0827 
     14 C14       -52.8830  -26.5430    9.5690 C.ar      14 UNK        -0.1249 
     15 C15       -54.1795  -27.1036   11.6663 C.3       14 UNK         0.0141 
     16 S16       -55.8186  -27.3270   10.9080 S.3       14 UNK        -0.2313 
     17 C17       -55.8848  -29.1381   10.6973 C.3       14 UNK        -0.0915 
     18 CA        -56.9518  -29.7914   11.6115 C.3       13 UNK         0.0968 
     19 C         -57.1488  -31.2952   11.2655 C.2       13 UNK         0.5732 
     20 N         -56.9012  -32.2295   12.1767 N.am      13 UNK        -0.7310 
     21 O         -57.5504  -31.6211   10.1508 O.2       13 UNK        -0.5035 
     22 N         -56.6663  -29.5479   13.0334 N.am      13 UNK        -0.4233 
     23 C         -57.5858  -29.3832   13.9870 C.2       13 UNK         0.4989 
     24 O         -58.7972  -29.3511   13.7658 O.2       13 UNK        -0.4996 
     25 CA        -57.0986  -29.2298   15.4417 C.3       12 UNK         0.0216 
     26 CB        -57.2231  -30.5700   16.1931 C.3       12 UNK        -0.1964 
     27 N         -55.7580  -28.6509   15.6367 N.am      12 UNK        -0.4276 
     28 C         -54.5579  -29.1261   15.2801 C.2       12 UNK         0.5020 
     29 O         -54.3996  -30.1070   14.5505 O.2       12 UNK        -0.5489 
     30 CA        -53.3338  -28.3680   15.8307 C.3       11 UNK         0.0294 
     31 CB        -52.0234  -29.1466   15.6197 C.3       11 UNK        -0.2019 
     32 N         -53.1716  -27.0249   15.2702 N.am      11 UNK        -0.4493 
     33 C         -53.9427  -25.9606   15.5282 C.2       11 UNK         0.4932 
     34 O         -54.9729  -26.0060   16.2045 O.2       11 UNK        -0.5029 
     35 CA        -53.4233  -24.6185   14.9790 C.3       10 UNK         0.0280 
     36 CB        -54.3556  -23.4288   15.2879 C.3       10 UNK        -0.1976 
     37 N         -52.0545  -24.3546   15.4393 N.am      10 UNK        -0.4242 
     38 C         -51.6217  -24.2544   16.7073 C.2       10 UNK         0.5072 
     39 O         -52.3605  -24.2509   17.6928 O.2       10 UNK        -0.5224 
     40 CA        -50.1000  -24.1803   16.9326 C.3       9 UNK         0.0343 
     41 CB        -49.5785  -25.5424   17.4204 C.3       9 UNK        -0.2003 
     42 N         -49.3459  -23.7827   15.7417 N.am      9 UNK        -0.4272 
     43 C         -49.2903  -22.5351   15.2550 C.2       9 UNK         0.4988 
     44 O         -49.8229  -21.5640   15.7931 O.2       9 UNK        -0.5108 
     45 CA        -48.5369  -22.3444   13.9266 C.3       8 UNK         0.0248 
     46 CB        -47.0203  -22.2649   14.1632 C.3       8 UNK        -0.2001 
     47 N         -48.8280  -23.3956   12.9477 N.am      8 UNK        -0.4140 
     48 C         -50.0388  -23.6430   12.4245 C.2       8 UNK         0.5028 
     49 O         -51.0529  -22.9990   12.6903 O.2       8 UNK        -0.5428 
     50 CA        -50.1377  -24.8393   11.4716 C.3       7 UNK         0.0264 
     51 CB        -49.5922  -24.4681   10.0820 C.3       7 UNK        -0.1988 
     52 N         -49.4121  -25.9921   12.0031 N.am      7 UNK        -0.4454 
     53 C         -49.8386  -26.7535   13.0219 C.2       7 UNK         0.5027 
     54 O         -50.9165  -26.5876   13.5963 O.2       7 UNK        -0.5083 
     55 CA        -48.8892  -27.8660   13.5173 C.3       6 UNK         0.0844 
     56 C56       -49.1660  -29.2241   12.8253 C.3       14 UNK        -0.0967 
     57 S57       -48.6200  -29.3089   11.0818 S.3       14 UNK        -0.2604 
     58 C58       -50.1442  -29.8152   10.2227 C.3       14 UNK         0.0134 
     59 N         -47.4755  -27.4878   13.4385 N.am      6 UNK        -0.4116 
     60 C         -46.9022  -26.4979   14.1360 C.2       5 UNK         0.5034 
     61 O         -47.4927  -25.8196   14.9745 O.2       5 UNK        -0.5045 
     62 CA        -45.4369  -26.1669   13.7985 C.3       5 UNK         0.0224 
     63 CB        -44.4832  -27.0196   14.6497 C.3       5 UNK        -0.1978 
     64 N         -45.1021  -26.3238   12.3766 N.am      5 UNK        -0.4737 
     65 C         -45.7259  -25.6949   11.3709 C.2       4 UNK         0.5027 
     66 O         -46.6633  -24.9125   11.5459 O.2       4 UNK        -0.5211 
     67 CA        -45.2487  -26.0414    9.9491 C.3       4 UNK         0.0297 
     68 CB        -45.4608  -27.5329    9.6354 C.3       4 UNK        -0.1993 
     69 N         -45.9646  -25.2658    8.9393 N.am      4 UNK        -0.4486 
     70 C         -45.7009  -24.0079    8.5762 C.2       3 UNK         0.4961 
     71 O         -44.7424  -23.3596    9.0010 O.2       3 UNK        -0.5105 
     72 CA        -46.6668  -23.3902    7.5415 C.3       3 UNK         0.0299 
     73 CB        -46.2981  -21.9393    7.1793 C.3       3 UNK        -0.1972 
     74 N         -46.7564  -24.1806    6.3079 N.am      3 UNK        -0.4305 
     75 C         -47.4169  -25.3374    6.1643 C.2       2 UNK         0.5006 
     76 O         -48.0155  -25.9048    7.0820 O.2       2 UNK        -0.5106 
     77 CA        -47.3428  -25.9987    4.7782 C.3       2 UNK         0.0296 
     78 CB        -46.1173  -26.9235    4.6958 C.3       2 UNK        -0.2002 
     79 N         -48.5468  -26.7772    4.4807 N.am      2 UNK        -0.4032 
     80 C         -49.7600  -26.2521    4.2545 C.2       1 UNK         0.5000 
     81 O         -49.9786  -25.0408    4.1943 O.2       1 UNK        -0.5238 
     82 H82       -50.9992  -26.6364    1.2214 H         1 UNK         0.0889 
     83 H83       -49.9832  -27.4564    0.0497 H         1 UNK         0.0889 
     84 H84       -49.2336  -26.5564    1.3625 H         1 UNK         0.0889 
     85 H85       -50.4798  -29.2930    3.7531 H         1 UNK         0.3028 
     86 H86       -51.6660  -26.7320    3.4026 H         1 UNK         0.0864 
     87 H87       -50.8627  -28.0291    6.0520 H         1 UNK         0.0720 
     88 H88       -52.2507  -28.5352    5.1403 H         1 UNK         0.0720 
     89 H89       -51.9705  -24.8276    7.7430 H         1 UNK         0.0814 
     90 H90       -50.6157  -25.7654    7.1858 H         1 UNK         0.0814 
     91 H91       -50.1088  -27.9676    8.2290 H         1 UNK         0.1469 
     92 H92       -52.2976  -29.0818   11.7440 H         1 UNK         0.1381 
     93 H93       -53.5714  -25.7257    9.4031 H         1 UNK         0.1206 
     94 H94       -54.0958  -26.0771   12.0239 H         1 UNK         0.0813 
     95 H95       -54.0960  -27.7436   12.5454 H         1 UNK         0.0813 
     96 H96       -54.9029  -29.5759   10.8836 H         1 UNK         0.0638 
     97 H97       -56.1077  -29.3301    9.6462 H         1 UNK         0.0638 
     98 H98       -57.9054  -29.3176   11.3711 H         1 UNK         0.0568 
     99 H99       -56.5621  -31.9750   13.0904 H         1 UNK         0.3450 
    100 H100      -57.0402  -33.1990   11.9397 H         1 UNK         0.3450 
    101 H101      -55.7008  -29.6551   13.3334 H         1 UNK         0.2987 
    102 H102      -57.7860  -28.5258   15.9136 H         1 UNK         0.0766 
    103 H103      -56.5526  -31.3282   15.7873 H         1 UNK         0.0798 
    104 H104      -58.2379  -30.9647   16.1247 H         1 UNK         0.0798 
    105 H105      -56.9939  -30.4529   17.2523 H         1 UNK         0.0798 
    106 H106      -55.7421  -27.7525   16.1161 H         1 UNK         0.3198 
    107 H107      -53.4814  -28.2648   16.9080 H         1 UNK         0.0843 
    108 H108      -51.8084  -29.2784   14.5601 H         1 UNK         0.0831 
    109 H109      -52.0816  -30.1399   16.0668 H         1 UNK         0.0831 
    110 H110      -51.1764  -28.6343   16.0763 H         1 UNK         0.0831 
    111 H111      -52.3513  -26.8806   14.6815 H         1 UNK         0.3133 
    112 H112      -53.3659  -24.7208   13.8947 H         1 UNK         0.0566 
    113 H113      -55.3466  -23.5920   14.8627 H         1 UNK         0.0814 
    114 H114      -54.4841  -23.2775   16.3601 H         1 UNK         0.0814 
    115 H115      -53.9675  -22.5033   14.8626 H         1 UNK         0.0814 
    116 H116      -51.3544  -24.3477   14.7093 H         1 UNK         0.3091 
    117 H117      -49.9185  -23.4431   17.7175 H         1 UNK         0.0702 
    118 H118      -48.5126  -25.5018   17.6454 H         1 UNK         0.0785 
    119 H119      -49.7336  -26.3223   16.6733 H         1 UNK         0.0785 
    120 H120      -50.0904  -25.8559   18.3312 H         1 UNK         0.0785 
    121 H121      -48.8049  -24.5133   15.2841 H         1 UNK         0.2998 
    122 H122      -48.8635  -21.3968   13.4933 H         1 UNK         0.0697 
    123 H123      -46.6339  -23.1772   14.6171 H         1 UNK         0.0825 
    124 H124      -46.7743  -21.4396   14.8327 H         1 UNK         0.0825 
    125 H125      -46.4799  -22.0994   13.2308 H         1 UNK         0.0825 
    126 H126      -48.0471  -23.9630   12.6291 H         1 UNK         0.3029 
    127 H127      -51.1890  -25.1156   11.3701 H         1 UNK         0.0897 
    128 H128      -48.6175  -23.9849   10.1394 H         1 UNK         0.0792 
    129 H129      -50.2651  -23.7748    9.5769 H         1 UNK         0.0792 
    130 H130      -49.4842  -25.3444    9.4447 H         1 UNK         0.0792 
    131 H131      -48.4875  -26.1530   11.6265 H         1 UNK         0.3086 
    132 H132      -49.1133  -27.9997   14.5778 H         1 UNK         0.0583 
    133 H133      -48.6453  -30.0141   13.3686 H         1 UNK         0.1020 
    134 H134      -50.2223  -29.4818   12.8969 H         1 UNK         0.1020 
    135 H135      -49.8702  -30.2395    9.2557 H         1 UNK         0.0694 
    136 H136      -50.6308  -30.6208   10.7748 H         1 UNK         0.0694 
    137 H137      -46.9206  -27.9828   12.7558 H         1 UNK         0.2989 
    138 H138      -45.2771  -25.1180   14.0554 H         1 UNK         0.1055 
    139 H139      -44.7012  -26.9047   15.7127 H         1 UNK         0.0806 
    140 H140      -43.4448  -26.7225   14.5016 H         1 UNK         0.0806 
    141 H141      -44.5669  -28.0811   14.4130 H         1 UNK         0.0806 
    142 H142      -44.3388  -26.9487   12.1582 H         1 UNK         0.3061 
    143 H143      -44.1827  -25.8136    9.8855 H         1 UNK         0.0734 
    144 H144      -45.0910  -27.7808    8.6401 H         1 UNK         0.0832 
    145 H145      -44.9329  -28.1771   10.3391 H         1 UNK         0.0832 
    146 H146      -46.5163  -27.8028    9.6697 H         1 UNK         0.0832 
    147 H147      -46.7833  -25.6992    8.5202 H         1 UNK         0.3156 
    148 H148      -47.6561  -23.3683    8.0023 H         1 UNK         0.0589 
    149 H149      -45.3177  -21.8772    6.7052 H         1 UNK         0.0808 
    150 H150      -47.0293  -21.5012    6.4996 H         1 UNK         0.0808 
    151 H151      -46.2705  -21.3095    8.0696 H         1 UNK         0.0808 
    152 H152      -46.2509  -23.8164    5.5128 H         1 UNK         0.3098 
    153 H153      -47.2468  -25.2184    4.0201 H         1 UNK         0.0720 
    154 H154      -46.0290  -27.3798    3.7096 H         1 UNK         0.0791 
    155 H155      -46.1665  -27.7251    5.4344 H         1 UNK         0.0791 
    156 H156      -45.1949  -26.3704    4.8784 H         1 UNK         0.0791 
    157 H157      -48.4585  -27.7817    4.5229 H         1 UNK         0.3028 
@<TRIPOS>BOND
     1    1    2 1    
     2    1   82 1    
     3    1   83 1    
     4    1   84 1    
     5    2    3 2    
     6    2    4 am   BACKBONE|DICT|INTERRES
     7    4    5 1    
     8    4   85 1    
     9    5    6 1    
    10    5   80 1    
    11    5   86 1    
    12    6    7 1    
    13    6   87 1    
    14    6   88 1    
    15    7    8 1    
    16    8    9 1    
    17    8   89 1    
    18    8   90 1    
    19    9   10 ar   
    20    9   14 ar   
    21   10   11 ar   
    22   10   91 1    
    23   11   12 ar   
    24   11   58 1    
    25   12   13 ar   
    26   12   92 1    
    27   13   14 ar   
    28   13   15 1    
    29   14   93 1    
    30   15   16 1    
    31   15   94 1    
    32   15   95 1    
    33   16   17 1    
    34   17   18 1    
    35   17   96 1    
    36   17   97 1    
    37   18   19 1    
    38   18   22 1    
    39   18   98 1    
    40   19   20 am   BACKBONE|DICT|INTERRES
    41   19   21 2    
    42   20   99 1    
    43   20  100 1    
    44   22   23 am   BACKBONE|DICT|INTERRES
    45   22  101 1    
    46   23   24 2    
    47   23   25 1    
    48   25   26 1    
    49   25   27 1    
    50   25  102 1    
    51   26  103 1    
    52   26  104 1    
    53   26  105 1    
    54   27   28 am   BACKBONE|DICT|INTERRES
    55   27  106 1    
    56   28   29 2    
    57   28   30 1    
    58   30   31 1    
    59   30   32 1    
    60   30  107 1    
    61   31  108 1    
    62   31  109 1    
    63   31  110 1    
    64   32   33 am   BACKBONE|DICT|INTERRES
    65   32  111 1    
    66   33   34 2    
    67   33   35 1    
    68   35   36 1    
    69   35   37 1    
    70   35  112 1    
    71   36  113 1    
    72   36  114 1    
    73   36  115 1    
    74   37   38 am   BACKBONE|DICT|INTERRES
    75   37  116 1    
    76   38   39 2    
    77   38   40 1    
    78   40   41 1    
    79   40   42 1    
    80   40  117 1    
    81   41  118 1    
    82   41  119 1    
    83   41  120 1    
    84   42   43 am   BACKBONE|DICT|INTERRES
    85   42  121 1    
    86   43   44 2    
    87   43   45 1    
    88   45   46 1    
    89   45   47 1    
    90   45  122 1    
    91   46  123 1    
    92   46  124 1    
    93   46  125 1    
    94   47   48 am   BACKBONE|DICT|INTERRES
    95   47  126 1    
    96   48   49 2    
    97   48   50 1    
    98   50   51 1    
    99   50   52 1    
   100   50  127 1    
   101   51  128 1    
   102   51  129 1    
   103   51  130 1    
   104   52   53 am   BACKBONE|DICT|INTERRES
   105   52  131 1    
   106   53   54 2    
   107   53   55 1    
   108   55   56 1    
   109   55   59 1    
   110   55  132 1    
   111   56   57 1    
   112   56  133 1    
   113   56  134 1    
   114   57   58 1    
   115   58  135 1    
   116   58  136 1    
   117   59   60 am   BACKBONE|DICT|INTERRES
   118   59  137 1    
   119   60   61 2    
   120   60   62 1    
   121   62   63 1    
   122   62   64 1    
   123   62  138 1    
   124   63  139 1    
   125   63  140 1    
   126   63  141 1    
   127   64   65 am   BACKBONE|DICT|INTERRES
   128   64  142 1    
   129   65   66 2    
   130   65   67 1    
   131   67   68 1    
   132   67   69 1    
   133   67  143 1    
   134   68  144 1    
   135   68  145 1    
   136   68  146 1    
   137   69   70 am   BACKBONE|DICT|INTERRES
   138   69  147 1    
   139   70   71 2    
   140   70   72 1    
   141   72   73 1    
   142   72   74 1    
   143   72  148 1    
   144   73  149 1    
   145   73  150 1    
   146   73  151 1    
   147   74   75 am   BACKBONE|DICT|INTERRES
   148   74  152 1    
   149   75   76 2    
   150   75   77 1    
   151   77   78 1    
   152   77   79 1    
   153   77  153 1    
   154   78  154 1    
   155   78  155 1    
   156   78  156 1    
   157   79   80 am   BACKBONE|DICT|INTERRES
   158   79  157 1    
   159   80   81 2    
@<TRIPOS>SUBSTRUCTURE
     1 UNK         1 GROUP             0       ****    0 ROOT    
