@<TRIPOS>MOLECULE
3R207
157   159    1
SMALL
USER_CHARGES


@<TRIPOS>ATOM
      1 CA        -45.9328  -22.3946    6.0955 C.3       0 UNK        -0.1975 
      2 C         -46.4244  -23.3431    7.1787 C.2       0 UNK         0.4852 
      3 O         -45.7868  -23.4573    8.2253 O.2       0 UNK        -0.5216 
      4 N         -47.5552  -24.0194    6.9340 N.am      1 UNK        -0.4461 
      5 CA        -48.1996  -24.9540    7.8672 C.3       1 UNK         0.0864 
      6 C6        -49.6322  -25.3412    7.4201 C.3       14 UNK        -0.0898 
      7 S7        -50.6690  -23.8953    7.0211 S.3       14 UNK        -0.2598 
      8 C8        -51.8922  -24.6440    5.8994 C.3       14 UNK         0.0286 
      9 C9        -52.8878  -25.4929    6.6723 C.ar      14 UNK        -0.0844 
     10 C10       -53.8208  -24.8678    7.4996 C.ar      14 UNK        -0.0881 
     11 C11       -54.7079  -25.6227    8.2675 C.ar      14 UNK        -0.0643 
     12 C12       -54.7025  -27.0162    8.1549 C.ar      14 UNK        -0.0930 
     13 C13       -53.7851  -27.6572    7.3134 C.ar      14 UNK        -0.0827 
     14 C14       -52.8723  -26.8880    6.5817 C.ar      14 UNK        -0.1249 
     15 C15       -53.7833  -29.1751    7.1729 C.3       14 UNK         0.0141 
     16 S16       -53.5345  -30.0284    8.7634 S.3       14 UNK        -0.2313 
     17 C17       -55.2144  -30.6590    9.1122 C.3       14 UNK        -0.0915 
     18 CA        -55.5259  -30.8509   10.6209 C.3       13 UNK         0.0968 
     19 C         -54.6635  -31.9743   11.2696 C.2       13 UNK         0.5732 
     20 N         -54.9630  -33.2311   10.9691 N.am      13 UNK        -0.7310 
     21 O         -53.7204  -31.7234   12.0181 O.2       13 UNK        -0.5035 
     22 N         -55.4883  -29.5697   11.3396 N.am      13 UNK        -0.4233 
     23 C         -55.9174  -29.3832   12.5927 C.2       13 UNK         0.4989 
     24 O         -56.4564  -30.2518   13.2830 O.2       13 UNK        -0.4996 
     25 CA        -55.7260  -27.9833   13.1784 C.3       12 UNK         0.0216 
     26 CB        -57.0725  -27.2691   13.3843 C.3       12 UNK        -0.1964 
     27 N         -55.0331  -28.1211   14.4564 N.am      12 UNK        -0.4276 
     28 C         -53.9947  -27.3727   14.8354 C.2       12 UNK         0.5020 
     29 O         -53.5530  -26.4290   14.1753 O.2       12 UNK        -0.5489 
     30 CA        -53.3135  -27.7478   16.1565 C.3       11 UNK         0.0294 
     31 CB        -52.4630  -29.0217   16.0005 C.3       11 UNK        -0.2019 
     32 N         -52.4536  -26.6355   16.5413 N.am      11 UNK        -0.4493 
     33 C         -52.1234  -26.2587   17.7761 C.2       11 UNK         0.4932 
     34 O         -52.4619  -26.8677   18.7926 O.2       11 UNK        -0.5029 
     35 CA        -51.2561  -24.9873   17.8761 C.3       10 UNK         0.0280 
     36 CB        -51.1381  -24.4661   19.3207 C.3       10 UNK        -0.1976 
     37 N         -49.9100  -25.1968   17.3356 N.am      10 UNK        -0.4242 
     38 C         -49.5905  -25.2861   16.0375 C.2       10 UNK         0.5072 
     39 O         -50.4088  -25.2002   15.1184 O.2       10 UNK        -0.5224 
     40 CA        -48.1094  -25.5674   15.7310 C.3       9 UNK         0.0343 
     41 CB        -47.8012  -27.0632   15.9098 C.3       9 UNK        -0.2003 
     42 N         -47.7300  -25.1674   14.3747 N.am      9 UNK        -0.4272 
     43 C         -47.6322  -23.9032   13.9412 C.2       9 UNK         0.4988 
     44 O         -47.8262  -22.9204   14.6587 O.2       9 UNK        -0.5108 
     45 CA        -47.2103  -23.6924   12.4758 C.3       8 UNK         0.0248 
     46 CB        -46.7188  -24.9702   11.7690 C.3       8 UNK        -0.2001 
     47 N         -48.3271  -23.1300   11.7206 N.am      8 UNK        -0.4140 
     48 C         -48.5191  -21.8235   11.4909 C.2       8 UNK         0.5028 
     49 O         -47.7306  -20.9397   11.8307 O.2       8 UNK        -0.5428 
     50 CA        -49.8038  -21.4208   10.7427 C.3       7 UNK         0.0264 
     51 CB        -49.5039  -21.1922    9.2526 C.3       7 UNK        -0.1988 
     52 N         -50.8841  -22.4021   10.8779 N.am      7 UNK        -0.4454 
     53 C         -51.5807  -22.6077   12.0059 C.2       7 UNK         0.5027 
     54 O         -51.4275  -21.9383   13.0287 O.2       7 UNK        -0.5083 
     55 CA        -52.6324  -23.7359   11.9983 C.3       6 UNK         0.0844 
     56 C56       -53.5008  -23.7642   10.7144 C.3       14 UNK        -0.0967 
     57 S57       -54.9502  -24.8640   10.9166 S.3       14 UNK        -0.2604 
     58 C58       -55.6483  -24.9243    9.2359 C.3       14 UNK         0.0134 
     59 N         -52.0715  -25.0500   12.3209 N.am      6 UNK        -0.4116 
     60 C         -51.0540  -25.7049   11.7496 C.2       5 UNK         0.5034 
     61 O         -50.2830  -25.2292   10.9102 O.2       5 UNK        -0.5045 
     62 CA        -50.9119  -27.1739   12.1624 C.3       5 UNK         0.0224 
     63 CB        -51.9908  -28.0322   11.4758 C.3       5 UNK        -0.1978 
     64 N         -49.5968  -27.6738   11.7796 N.am      5 UNK        -0.4737 
     65 C         -48.9529  -28.6801   12.3797 C.2       4 UNK         0.5027 
     66 O         -49.3878  -29.2925   13.3557 O.2       4 UNK        -0.5211 
     67 CA        -47.6011  -29.0606   11.7576 C.3       4 UNK         0.0297 
     68 CB        -46.8686  -30.1983   12.5012 C.3       4 UNK        -0.1993 
     69 N         -47.7535  -29.3366   10.3258 N.am      4 UNK        -0.4486 
     70 C         -48.3669  -30.3761    9.7351 C.2       3 UNK         0.4961 
     71 O         -48.8344  -31.3376   10.3452 O.2       3 UNK        -0.5105 
     72 CA        -48.4988  -30.3497    8.1944 C.3       3 UNK         0.0299 
     73 CB        -49.9754  -30.2058    7.7871 C.3       3 UNK        -0.1972 
     74 N         -47.7345  -29.2810    7.5460 N.am      3 UNK        -0.4305 
     75 C         -46.3982  -29.2016    7.4797 C.2       2 UNK         0.5006 
     76 O         -45.6443  -30.1140    7.8189 O.2       2 UNK        -0.5106 
     77 CA        -45.7915  -27.8675    6.9959 C.3       2 UNK         0.0296 
     78 CB        -45.2261  -28.0208    5.5741 C.3       2 UNK        -0.2002 
     79 N         -46.6904  -26.7031    7.0271 N.am      2 UNK        -0.4032 
     80 C         -47.3627  -26.2291    8.0900 C.2       1 UNK         0.5000 
     81 O         -47.3659  -26.7718    9.1952 O.2       1 UNK        -0.5238 
     82 H82       -45.8758  -21.3788    6.4857 H         1 UNK         0.0889 
     83 H83       -46.5928  -22.3878    5.2282 H         1 UNK         0.0889 
     84 H84       -44.9378  -22.6888    5.7629 H         1 UNK         0.0889 
     85 H85       -48.0562  -23.8542    6.0722 H         1 UNK         0.3028 
     86 H86       -48.2748  -24.4521    8.8345 H         1 UNK         0.0864 
     87 H87       -49.5966  -25.9908    6.5434 H         1 UNK         0.0720 
     88 H88       -50.1366  -25.9109    8.2037 H         1 UNK         0.0720 
     89 H89       -51.3873  -25.2279    5.1285 H         1 UNK         0.0814 
     90 H90       -52.4269  -23.8486    5.3783 H         1 UNK         0.0814 
     91 H91       -53.8245  -23.7890    7.5781 H         1 UNK         0.1469 
     92 H92       -55.4013  -27.6007    8.7356 H         1 UNK         0.1381 
     93 H93       -52.1515  -27.3736    5.9382 H         1 UNK         0.1206 
     94 H94       -54.7147  -29.4971    6.7058 H         1 UNK         0.0813 
     95 H95       -52.9862  -29.4921    6.4987 H         1 UNK         0.0813 
     96 H96       -55.9473  -29.9746    8.6829 H         1 UNK         0.0638 
     97 H97       -55.3430  -31.5991    8.5731 H         1 UNK         0.0638 
     98 H98       -56.5603  -31.1939   10.6878 H         1 UNK         0.0568 
     99 H99       -54.4113  -33.9728   11.3706 H         1 UNK         0.3450 
    100 H100      -55.7275  -33.4539   10.3512 H         1 UNK         0.3450 
    101 H101      -55.0169  -28.8184   10.8603 H         1 UNK         0.2987 
    102 H102      -55.1315  -27.3915   12.4814 H         1 UNK         0.0766 
    103 H103      -57.6084  -27.1691   12.4395 H         1 UNK         0.0798 
    104 H104      -56.9265  -26.2641   13.7808 H         1 UNK         0.0798 
    105 H105      -57.7193  -27.8123   14.0744 H         1 UNK         0.0798 
    106 H106      -55.3140  -28.9157   15.0166 H         1 UNK         0.3198 
    107 H107      -54.0834  -27.8988   16.9163 H         1 UNK         0.0843 
    108 H108      -53.0770  -29.8763   15.7144 H         1 UNK         0.0831 
    109 H109      -51.9636  -29.2814   16.9341 H         1 UNK         0.0831 
    110 H110      -51.6949  -28.9009   15.2345 H         1 UNK         0.0831 
    111 H111      -52.1253  -26.0712   15.7595 H         1 UNK         0.3133 
    112 H112      -51.7475  -24.2112   17.2850 H         1 UNK         0.0566 
    113 H113      -50.6325  -25.1815   19.9707 H         1 UNK         0.0814 
    114 H114      -52.1237  -24.2773   19.7487 H         1 UNK         0.0814 
    115 H115      -50.5855  -23.5272   19.3603 H         1 UNK         0.0814 
    116 H116      -49.1758  -25.3235   18.0175 H         1 UNK         0.3091 
    117 H117      -47.4969  -24.9969   16.4326 H         1 UNK         0.0702 
    118 H118      -46.7571  -27.2865   15.6894 H         1 UNK         0.0785 
    119 H119      -48.4225  -27.6811   15.2615 H         1 UNK         0.0785 
    120 H120      -47.9887  -27.3841   16.9352 H         1 UNK         0.0785 
    121 H121      -47.5780  -25.9120   13.7130 H         1 UNK         0.2998 
    122 H122      -46.3754  -22.9887   12.4872 H         1 UNK         0.0697 
    123 H123      -47.5145  -25.7048   11.6530 H         1 UNK         0.0825 
    124 H124      -45.8965  -25.4390   12.3112 H         1 UNK         0.0825 
    125 H125      -46.3438  -24.7368   10.7722 H         1 UNK         0.0825 
    126 H126      -49.0472  -23.7828   11.4242 H         1 UNK         0.3029 
    127 H127      -50.1491  -20.4761   11.1687 H         1 UNK         0.0897 
    128 H128      -49.0925  -22.0856    8.7834 H         1 UNK         0.0792 
    129 H129      -48.7713  -20.3946    9.1223 H         1 UNK         0.0792 
    130 H130      -50.3995  -20.9031    8.7023 H         1 UNK         0.0792 
    131 H131      -51.0189  -23.0408   10.1056 H         1 UNK         0.3086 
    132 H132      -53.3032  -23.5090   12.8289 H         1 UNK         0.0583 
    133 H133      -53.8631  -22.7655   10.4629 H         1 UNK         0.1020 
    134 H134      -52.9000  -24.1064    9.8723 H         1 UNK         0.1020 
    135 H135      -56.6023  -25.4525    9.2683 H         1 UNK         0.0694 
    136 H136      -55.8701  -23.9110    8.8975 H         1 UNK         0.0694 
    137 H137      -52.6102  -25.5571   13.0258 H         1 UNK         0.2989 
    138 H138      -51.0235  -27.2330   13.2479 H         1 UNK         0.1055 
    139 H139      -51.9510  -29.0699   11.8083 H         1 UNK         0.0806 
    140 H140      -51.8764  -28.0219   10.3910 H         1 UNK         0.0806 
    141 H141      -52.9894  -27.6601   11.6968 H         1 UNK         0.0806 
    142 H142      -49.1698  -27.1882   10.9988 H         1 UNK         0.3061 
    143 H143      -46.9682  -28.1747   11.8266 H         1 UNK         0.0734 
    144 H144      -47.4647  -31.1098   12.5482 H         1 UNK         0.0832 
    145 H145      -45.9204  -30.4402   12.0215 H         1 UNK         0.0832 
    146 H146      -46.6493  -29.9070   13.5290 H         1 UNK         0.0832 
    147 H147      -47.4701  -28.5633    9.7277 H         1 UNK         0.3156 
    148 H148      -48.1292  -31.3061    7.8191 H         1 UNK         0.0589 
    149 H149      -50.0985  -30.2438    6.7047 H         1 UNK         0.0808 
    150 H150      -50.4042  -29.2677    8.1433 H         1 UNK         0.0808 
    151 H151      -50.5761  -31.0142    8.2063 H         1 UNK         0.0808 
    152 H152      -48.2644  -28.4835    7.2292 H         1 UNK         0.3098 
    153 H153      -44.9618  -27.6421    7.6689 H         1 UNK         0.0720 
    154 H154      -44.5251  -28.8551    5.5184 H         1 UNK         0.0791 
    155 H155      -44.6847  -27.1274    5.2622 H         1 UNK         0.0791 
    156 H156      -46.0150  -28.2094    4.8449 H         1 UNK         0.0791 
    157 H157      -46.7614  -26.1784    6.1673 H         1 UNK         0.3028 
@<TRIPOS>BOND
     1    1    2 1    
     2    1   82 1    
     3    1   83 1    
     4    1   84 1    
     5    2    3 2    
     6    2    4 am   BACKBONE|DICT|INTERRES
     7    4    5 1    
     8    4   85 1    
     9    5    6 1    
    10    5   80 1    
    11    5   86 1    
    12    6    7 1    
    13    6   87 1    
    14    6   88 1    
    15    7    8 1    
    16    8    9 1    
    17    8   89 1    
    18    8   90 1    
    19    9   10 ar   
    20    9   14 ar   
    21   10   11 ar   
    22   10   91 1    
    23   11   12 ar   
    24   11   58 1    
    25   12   13 ar   
    26   12   92 1    
    27   13   14 ar   
    28   13   15 1    
    29   14   93 1    
    30   15   16 1    
    31   15   94 1    
    32   15   95 1    
    33   16   17 1    
    34   17   18 1    
    35   17   96 1    
    36   17   97 1    
    37   18   19 1    
    38   18   22 1    
    39   18   98 1    
    40   19   20 am   BACKBONE|DICT|INTERRES
    41   19   21 2    
    42   20   99 1    
    43   20  100 1    
    44   22   23 am   BACKBONE|DICT|INTERRES
    45   22  101 1    
    46   23   24 2    
    47   23   25 1    
    48   25   26 1    
    49   25   27 1    
    50   25  102 1    
    51   26  103 1    
    52   26  104 1    
    53   26  105 1    
    54   27   28 am   BACKBONE|DICT|INTERRES
    55   27  106 1    
    56   28   29 2    
    57   28   30 1    
    58   30   31 1    
    59   30   32 1    
    60   30  107 1    
    61   31  108 1    
    62   31  109 1    
    63   31  110 1    
    64   32   33 am   BACKBONE|DICT|INTERRES
    65   32  111 1    
    66   33   34 2    
    67   33   35 1    
    68   35   36 1    
    69   35   37 1    
    70   35  112 1    
    71   36  113 1    
    72   36  114 1    
    73   36  115 1    
    74   37   38 am   BACKBONE|DICT|INTERRES
    75   37  116 1    
    76   38   39 2    
    77   38   40 1    
    78   40   41 1    
    79   40   42 1    
    80   40  117 1    
    81   41  118 1    
    82   41  119 1    
    83   41  120 1    
    84   42   43 am   BACKBONE|DICT|INTERRES
    85   42  121 1    
    86   43   44 2    
    87   43   45 1    
    88   45   46 1    
    89   45   47 1    
    90   45  122 1    
    91   46  123 1    
    92   46  124 1    
    93   46  125 1    
    94   47   48 am   BACKBONE|DICT|INTERRES
    95   47  126 1    
    96   48   49 2    
    97   48   50 1    
    98   50   51 1    
    99   50   52 1    
   100   50  127 1    
   101   51  128 1    
   102   51  129 1    
   103   51  130 1    
   104   52   53 am   BACKBONE|DICT|INTERRES
   105   52  131 1    
   106   53   54 2    
   107   53   55 1    
   108   55   56 1    
   109   55   59 1    
   110   55  132 1    
   111   56   57 1    
   112   56  133 1    
   113   56  134 1    
   114   57   58 1    
   115   58  135 1    
   116   58  136 1    
   117   59   60 am   BACKBONE|DICT|INTERRES
   118   59  137 1    
   119   60   61 2    
   120   60   62 1    
   121   62   63 1    
   122   62   64 1    
   123   62  138 1    
   124   63  139 1    
   125   63  140 1    
   126   63  141 1    
   127   64   65 am   BACKBONE|DICT|INTERRES
   128   64  142 1    
   129   65   66 2    
   130   65   67 1    
   131   67   68 1    
   132   67   69 1    
   133   67  143 1    
   134   68  144 1    
   135   68  145 1    
   136   68  146 1    
   137   69   70 am   BACKBONE|DICT|INTERRES
   138   69  147 1    
   139   70   71 2    
   140   70   72 1    
   141   72   73 1    
   142   72   74 1    
   143   72  148 1    
   144   73  149 1    
   145   73  150 1    
   146   73  151 1    
   147   74   75 am   BACKBONE|DICT|INTERRES
   148   74  152 1    
   149   75   76 2    
   150   75   77 1    
   151   77   78 1    
   152   77   79 1    
   153   77  153 1    
   154   78  154 1    
   155   78  155 1    
   156   78  156 1    
   157   79   80 am   BACKBONE|DICT|INTERRES
   158   79  157 1    
   159   80   81 2    
@<TRIPOS>SUBSTRUCTURE
     1 UNK         1 GROUP             0       ****    0 ROOT    
