@<TRIPOS>MOLECULE
3R207
157   159    1
SMALL
USER_CHARGES


@<TRIPOS>ATOM
      1 CA        -47.0711  -26.3491   11.8959 C.3       0 UNK        -0.1975 
      2 C         -47.4451  -26.8990   10.5302 C.2       0 UNK         0.4852 
      3 O         -47.9085  -26.1396    9.6788 O.2       0 UNK        -0.5216 
      4 N         -47.2587  -28.2106   10.3245 N.am      1 UNK        -0.4461 
      5 CA        -47.5234  -28.9304    9.0694 C.3       1 UNK         0.0864 
      6 C6        -49.0277  -28.9570    8.6800 C.3       14 UNK        -0.0898 
      7 S7        -50.0154  -29.8366    9.9406 S.3       14 UNK        -0.2598 
      8 C8        -51.3192  -30.6151    8.9370 C.3       14 UNK         0.0286 
      9 C9        -52.5491  -29.7260    8.8236 C.ar      14 UNK        -0.0844 
     10 C10       -52.5186  -28.5709    8.0373 C.ar      14 UNK        -0.0881 
     11 C11       -53.6470  -27.7518    7.9312 C.ar      14 UNK        -0.0643 
     12 C12       -54.8254  -28.1176    8.5901 C.ar      14 UNK        -0.0930 
     13 C13       -54.8738  -29.2792    9.3666 C.ar      14 UNK        -0.0827 
     14 C14       -53.7287  -30.0712    9.4902 C.ar      14 UNK        -0.1249 
     15 C15       -56.1699  -29.7081   10.0399 C.3       14 UNK         0.0141 
     16 S16       -56.2681  -29.1448   11.7668 S.3       14 UNK        -0.2313 
     17 C17       -56.7332  -27.3912   11.5763 C.3       14 UNK        -0.0915 
     18 CA        -55.5462  -26.4168   11.8353 C.3       13 UNK         0.0968 
     19 C         -55.8962  -24.9354   11.4982 C.2       13 UNK         0.5732 
     20 N         -56.4652  -24.6757   10.3281 N.am      13 UNK        -0.7310 
     21 O         -55.6239  -24.0064   12.2542 O.2       13 UNK        -0.5035 
     22 N         -54.9248  -26.5979   13.1581 N.am      13 UNK        -0.4233 
     23 C         -55.5054  -26.4088   14.3504 C.2       13 UNK         0.4989 
     24 O         -56.6723  -26.0417   14.5067 O.2       13 UNK        -0.4996 
     25 CA        -54.6197  -26.7129   15.5752 C.3       12 UNK         0.0216 
     26 CB        -55.3233  -26.4310   16.9197 C.3       12 UNK        -0.1964 
     27 N         -54.0796  -28.0791   15.5512 N.am      12 UNK        -0.4276 
     28 C         -54.7684  -29.2328   15.4837 C.2       12 UNK         0.5020 
     29 O         -55.9978  -29.3039   15.4898 O.2       12 UNK        -0.5489 
     30 CA        -53.9620  -30.5451   15.3934 C.3       11 UNK         0.0294 
     31 CB        -53.9266  -31.0532   13.9421 C.3       11 UNK        -0.2019 
     32 N         -52.5887  -30.4275   15.8842 N.am      11 UNK        -0.4493 
     33 C         -52.2389  -30.2959   17.1715 C.2       11 UNK         0.4932 
     34 O         -53.0349  -30.3620   18.1082 O.2       11 UNK        -0.5029 
     35 CA        -50.7501  -30.0178   17.4633 C.3       10 UNK         0.0280 
     36 CB        -50.0324  -31.3154   17.8693 C.3       10 UNK        -0.1976 
     37 N         -50.0205  -29.3868   16.3535 N.am      10 UNK        -0.4242 
     38 C         -50.3305  -28.2047   15.8028 C.2       10 UNK         0.5072 
     39 O         -51.2962  -27.5207   16.1486 O.2       10 UNK        -0.5224 
     40 CA        -49.4730  -27.7604   14.6099 C.3       9 UNK         0.0343 
     41 CB        -49.9858  -28.4239   13.3207 C.3       9 UNK        -0.2003 
     42 N         -49.5228  -26.3063   14.4553 N.am      9 UNK        -0.4272 
     43 C         -48.8224  -25.4451   15.2098 C.2       9 UNK         0.4988 
     44 O         -47.9995  -25.8005   16.0548 O.2       9 UNK        -0.5108 
     45 CA        -49.0437  -23.9361   14.9846 C.3       8 UNK         0.0248 
     46 CB        -47.7952  -23.2832   14.3654 C.3       8 UNK        -0.2001 
     47 N         -50.2025  -23.6342   14.1431 N.am      8 UNK        -0.4140 
     48 C         -51.4757  -23.6366   14.5606 C.2       8 UNK         0.5028 
     49 O         -51.8186  -23.8399   15.7248 O.2       8 UNK        -0.5428 
     50 CA        -52.5505  -23.3765   13.4930 C.3       7 UNK         0.0264 
     51 CB        -52.9613  -21.8958   13.4893 C.3       7 UNK        -0.1988 
     52 N         -52.1343  -23.7641   12.1413 N.am      7 UNK        -0.4454 
     53 C         -51.9529  -25.0219   11.7215 C.2       7 UNK         0.5027 
     54 O         -52.1017  -26.0012   12.4526 O.2       7 UNK        -0.5083 
     55 CA        -51.5193  -25.2248   10.2556 C.3       6 UNK         0.0844 
     56 C56       -52.6791  -24.9180    9.2691 C.3       14 UNK        -0.0967 
     57 S57       -52.2538  -25.3566    7.5477 S.3       14 UNK        -0.2604 
     58 C58       -53.6058  -26.4876    7.0816 C.3       14 UNK         0.0134 
     59 N         -50.2673  -24.5321    9.9200 N.am      6 UNK        -0.4116 
     60 C         -50.0449  -23.2134    9.8025 C.2       5 UNK         0.5034 
     61 O         -50.8521  -22.3407   10.1247 O.2       5 UNK        -0.5045 
     62 CA        -48.7003  -22.8018    9.1795 C.3       5 UNK         0.0224 
     63 CB        -47.5952  -22.7203   10.2445 C.3       5 UNK        -0.1978 
     64 N         -48.3091  -23.7331    8.1168 N.am      5 UNK        -0.4737 
     65 C         -48.8860  -23.7547    6.9074 C.2       4 UNK         0.5027 
     66 O         -49.6543  -22.8784    6.5053 O.2       4 UNK        -0.5211 
     67 CA        -48.5486  -24.9622    6.0117 C.3       4 UNK         0.0297 
     68 CB        -49.2797  -24.9275    4.6533 C.3       4 UNK        -0.1993 
     69 N         -47.1077  -25.1497    5.8132 N.am      4 UNK        -0.4486 
     70 C         -46.2224  -24.2568    5.3380 C.2       3 UNK         0.4961 
     71 O         -46.5241  -23.1162    4.9838 O.2       3 UNK        -0.5105 
     72 CA        -44.7533  -24.7102    5.1839 C.3       3 UNK         0.0299 
     73 CB        -43.7584  -23.6334    5.6689 C.3       3 UNK        -0.1972 
     74 N         -44.4516  -26.0213    5.7755 N.am      3 UNK        -0.4305 
     75 C         -44.4664  -26.3522    7.0737 C.2       2 UNK         0.5006 
     76 O         -44.6808  -25.5640    7.9966 O.2       2 UNK        -0.5106 
     77 CA        -44.2353  -27.8382    7.3878 C.3       2 UNK         0.0296 
     78 CB        -42.8686  -28.0476    8.0600 C.3       2 UNK        -0.2002 
     79 N         -45.2908  -28.3652    8.2532 N.am      2 UNK        -0.4032 
     80 C         -46.5958  -28.4222    7.9427 C.2       1 UNK         0.5000 
     81 O         -47.0546  -28.0776    6.8498 O.2       1 UNK        -0.5238 
     82 H82       -46.8693  -27.1406   12.6172 H         1 UNK         0.0889 
     83 H83       -47.8898  -25.7432   12.2774 H         1 UNK         0.0889 
     84 H84       -46.1852  -25.7196   11.8174 H         1 UNK         0.0889 
     85 H85       -46.8946  -28.7790   11.0763 H         1 UNK         0.3028 
     86 H86       -47.2189  -29.9643    9.2412 H         1 UNK         0.0864 
     87 H87       -49.4253  -27.9491    8.5533 H         1 UNK         0.0720 
     88 H88       -49.1554  -29.4586    7.7196 H         1 UNK         0.0720 
     89 H89       -51.5843  -31.5647    9.4041 H         1 UNK         0.0814 
     90 H90       -50.9472  -30.8671    7.9433 H         1 UNK         0.0814 
     91 H91       -51.6122  -28.3003    7.5143 H         1 UNK         0.1469 
     92 H92       -55.7103  -27.5054    8.4886 H         1 UNK         0.1381 
     93 H93       -53.7639  -30.9675   10.0946 H         1 UNK         0.1206 
     94 H94       -56.2387  -30.7969   10.0294 H         1 UNK         0.0813 
     95 H95       -57.0352  -29.3515    9.4794 H         1 UNK         0.0813 
     96 H96       -57.5549  -27.1836   12.2630 H         1 UNK         0.0638 
     97 H97       -57.1457  -27.2528   10.5769 H         1 UNK         0.0638 
     98 H98       -54.7542  -26.6818   11.1364 H         1 UNK         0.0568 
     99 H99       -56.6829  -23.7182   10.1013 H         1 UNK         0.3450 
    100 H100      -56.7079  -25.4078    9.6818 H         1 UNK         0.3450 
    101 H101      -53.9379  -26.8241   13.1325 H         1 UNK         0.2987 
    102 H102      -53.7603  -26.0431   15.5096 H         1 UNK         0.0766 
    103 H103      -55.6478  -25.3915   16.9787 H         1 UNK         0.0798 
    104 H104      -54.6530  -26.6097   17.7605 H         1 UNK         0.0798 
    105 H105      -56.2062  -27.0566   17.0553 H         1 UNK         0.0798 
    106 H106      -53.0655  -28.1262   15.6083 H         1 UNK         0.3198 
    107 H107      -54.4780  -31.2894   16.0040 H         1 UNK         0.0843 
    108 H108      -53.4525  -30.3351   13.2711 H         1 UNK         0.0831 
    109 H109      -54.9370  -31.2260   13.5692 H         1 UNK         0.0831 
    110 H110      -53.3898  -31.9984   13.8612 H         1 UNK         0.0831 
    111 H111      -51.8594  -30.3834   15.1882 H         1 UNK         0.3133 
    112 H112      -50.7124  -29.3286   18.3095 H         1 UNK         0.0566 
    113 H113      -49.0047  -31.1226   18.1778 H         1 UNK         0.0814 
    114 H114      -50.0099  -32.0378   17.0523 H         1 UNK         0.0814 
    115 H115      -50.5357  -31.7927   18.7115 H         1 UNK         0.0814 
    116 H116      -49.2222  -29.8925   15.9958 H         1 UNK         0.3091 
    117 H117      -48.4370  -28.0637   14.7762 H         1 UNK         0.0702 
    118 H118      -49.4893  -28.0258   12.4372 H         1 UNK         0.0785 
    119 H119      -51.0585  -28.2806   13.1860 H         1 UNK         0.0785 
    120 H120      -49.8046  -29.4992   13.3329 H         1 UNK         0.0785 
    121 H121      -50.2485  -25.9489   13.8488 H         1 UNK         0.2998 
    122 H122      -49.2032  -23.4885   15.9680 H         1 UNK         0.0697 
    123 H123      -47.5901  -23.6578   13.3632 H         1 UNK         0.0825 
    124 H124      -46.9096  -23.4770   14.9724 H         1 UNK         0.0825 
    125 H125      -47.9069  -22.2006   14.3003 H         1 UNK         0.0825 
    126 H126      -50.0236  -23.4349   13.1703 H         1 UNK         0.3029 
    127 H127      -53.4231  -23.9738   13.7637 H         1 UNK         0.0897 
    128 H128      -52.1355  -21.2468   13.1949 H         1 UNK         0.0792 
    129 H129      -53.2910  -21.5792   14.4798 H         1 UNK         0.0792 
    130 H130      -53.7899  -21.7195   12.8028 H         1 UNK         0.0792 
    131 H131      -51.9306  -23.0167   11.4805 H         1 UNK         0.3086 
    132 H132      -51.2878  -26.2875   10.1577 H         1 UNK         0.0583 
    133 H133      -53.5776  -25.4618    9.5573 H         1 UNK         0.1020 
    134 H134      -52.9509  -23.8614    9.2963 H         1 UNK         0.1020 
    135 H135      -54.5507  -25.9451    7.1408 H         1 UNK         0.0694 
    136 H136      -53.4790  -26.7719    6.0363 H         1 UNK         0.0694 
    137 H137      -49.4931  -25.1470    9.6783 H         1 UNK         0.2989 
    138 H138      -48.8268  -21.8073    8.7455 H         1 UNK         0.1055 
    139 H139      -47.4135  -23.6833   10.7193 H         1 UNK         0.0806 
    140 H140      -47.8629  -22.0132   11.0308 H         1 UNK         0.0806 
    141 H141      -46.6544  -22.3812    9.8106 H         1 UNK         0.0806 
    142 H142      -47.7286  -24.5191    8.3933 H         1 UNK         0.3061 
    143 H143      -48.9007  -25.8446    6.5494 H         1 UNK         0.0734 
    144 H144      -48.9887  -24.0610    4.0586 H         1 UNK         0.0832 
    145 H145      -49.0720  -25.8231    4.0682 H         1 UNK         0.0832 
    146 H146      -50.3602  -24.8775    4.7956 H         1 UNK         0.0832 
    147 H147      -46.7614  -26.0619    6.0898 H         1 UNK         0.3156 
    148 H148      -44.5972  -24.8330    4.1112 H         1 UNK         0.0589 
    149 H149      -42.7261  -23.9614    5.5473 H         1 UNK         0.0808 
    150 H150      -43.8719  -22.7108    5.0984 H         1 UNK         0.0808 
    151 H151      -43.9105  -23.3819    6.7189 H         1 UNK         0.0808 
    152 H152      -44.2774  -26.7589    5.1056 H         1 UNK         0.3098 
    153 H153      -44.2534  -28.4111    6.4581 H         1 UNK         0.0720 
    154 H154      -42.0614  -27.6808    7.4243 H         1 UNK         0.0791 
    155 H155      -42.6755  -29.1037    8.2497 H         1 UNK         0.0791 
    156 H156      -42.8005  -27.5166    9.0107 H         1 UNK         0.0791 
    157 H157      -45.0141  -28.6240    9.1885 H         1 UNK         0.3028 
@<TRIPOS>BOND
     1    1    2 1    
     2    1   82 1    
     3    1   83 1    
     4    1   84 1    
     5    2    3 2    
     6    2    4 am   BACKBONE|DICT|INTERRES
     7    4    5 1    
     8    4   85 1    
     9    5    6 1    
    10    5   80 1    
    11    5   86 1    
    12    6    7 1    
    13    6   87 1    
    14    6   88 1    
    15    7    8 1    
    16    8    9 1    
    17    8   89 1    
    18    8   90 1    
    19    9   10 ar   
    20    9   14 ar   
    21   10   11 ar   
    22   10   91 1    
    23   11   12 ar   
    24   11   58 1    
    25   12   13 ar   
    26   12   92 1    
    27   13   14 ar   
    28   13   15 1    
    29   14   93 1    
    30   15   16 1    
    31   15   94 1    
    32   15   95 1    
    33   16   17 1    
    34   17   18 1    
    35   17   96 1    
    36   17   97 1    
    37   18   19 1    
    38   18   22 1    
    39   18   98 1    
    40   19   20 am   BACKBONE|DICT|INTERRES
    41   19   21 2    
    42   20   99 1    
    43   20  100 1    
    44   22   23 am   BACKBONE|DICT|INTERRES
    45   22  101 1    
    46   23   24 2    
    47   23   25 1    
    48   25   26 1    
    49   25   27 1    
    50   25  102 1    
    51   26  103 1    
    52   26  104 1    
    53   26  105 1    
    54   27   28 am   BACKBONE|DICT|INTERRES
    55   27  106 1    
    56   28   29 2    
    57   28   30 1    
    58   30   31 1    
    59   30   32 1    
    60   30  107 1    
    61   31  108 1    
    62   31  109 1    
    63   31  110 1    
    64   32   33 am   BACKBONE|DICT|INTERRES
    65   32  111 1    
    66   33   34 2    
    67   33   35 1    
    68   35   36 1    
    69   35   37 1    
    70   35  112 1    
    71   36  113 1    
    72   36  114 1    
    73   36  115 1    
    74   37   38 am   BACKBONE|DICT|INTERRES
    75   37  116 1    
    76   38   39 2    
    77   38   40 1    
    78   40   41 1    
    79   40   42 1    
    80   40  117 1    
    81   41  118 1    
    82   41  119 1    
    83   41  120 1    
    84   42   43 am   BACKBONE|DICT|INTERRES
    85   42  121 1    
    86   43   44 2    
    87   43   45 1    
    88   45   46 1    
    89   45   47 1    
    90   45  122 1    
    91   46  123 1    
    92   46  124 1    
    93   46  125 1    
    94   47   48 am   BACKBONE|DICT|INTERRES
    95   47  126 1    
    96   48   49 2    
    97   48   50 1    
    98   50   51 1    
    99   50   52 1    
   100   50  127 1    
   101   51  128 1    
   102   51  129 1    
   103   51  130 1    
   104   52   53 am   BACKBONE|DICT|INTERRES
   105   52  131 1    
   106   53   54 2    
   107   53   55 1    
   108   55   56 1    
   109   55   59 1    
   110   55  132 1    
   111   56   57 1    
   112   56  133 1    
   113   56  134 1    
   114   57   58 1    
   115   58  135 1    
   116   58  136 1    
   117   59   60 am   BACKBONE|DICT|INTERRES
   118   59  137 1    
   119   60   61 2    
   120   60   62 1    
   121   62   63 1    
   122   62   64 1    
   123   62  138 1    
   124   63  139 1    
   125   63  140 1    
   126   63  141 1    
   127   64   65 am   BACKBONE|DICT|INTERRES
   128   64  142 1    
   129   65   66 2    
   130   65   67 1    
   131   67   68 1    
   132   67   69 1    
   133   67  143 1    
   134   68  144 1    
   135   68  145 1    
   136   68  146 1    
   137   69   70 am   BACKBONE|DICT|INTERRES
   138   69  147 1    
   139   70   71 2    
   140   70   72 1    
   141   72   73 1    
   142   72   74 1    
   143   72  148 1    
   144   73  149 1    
   145   73  150 1    
   146   73  151 1    
   147   74   75 am   BACKBONE|DICT|INTERRES
   148   74  152 1    
   149   75   76 2    
   150   75   77 1    
   151   77   78 1    
   152   77   79 1    
   153   77  153 1    
   154   78  154 1    
   155   78  155 1    
   156   78  156 1    
   157   79   80 am   BACKBONE|DICT|INTERRES
   158   79  157 1    
   159   80   81 2    
@<TRIPOS>SUBSTRUCTURE
     1 UNK         1 GROUP             0       ****    0 ROOT    
