@<TRIPOS>MOLECULE
3R207
157   159    1
SMALL
USER_CHARGES


@<TRIPOS>ATOM
      1 CA        -46.2041  -29.1172   10.0506 C.3       0 UNK        -0.1975 
      2 C         -46.9827  -28.4728    8.9145 C.2       0 UNK         0.4852 
      3 O         -46.9567  -27.2493    8.7761 O.2       0 UNK        -0.5216 
      4 N         -47.6572  -29.2908    8.0928 N.am      1 UNK        -0.4461 
      5 CA        -48.5132  -28.8850    6.9665 C.3       1 UNK         0.0864 
      6 C6        -49.8167  -28.1765    7.4265 C.3       14 UNK        -0.0898 
      7 S7        -50.8662  -29.2982    8.4149 S.3       14 UNK        -0.2598 
      8 C8        -52.5116  -29.0336    7.6807 C.3       14 UNK         0.0286 
      9 C9        -53.1779  -27.7914    8.2526 C.ar      14 UNK        -0.0844 
     10 C10       -52.9349  -26.5346    7.6924 C.ar      14 UNK        -0.0881 
     11 C11       -53.5275  -25.3911    8.2341 C.ar      14 UNK        -0.0643 
     12 C12       -54.3829  -25.5119    9.3335 C.ar      14 UNK        -0.0930 
     13 C13       -54.6296  -26.7622    9.9067 C.ar      14 UNK        -0.0827 
     14 C14       -54.0301  -27.8987    9.3553 C.ar      14 UNK        -0.1249 
     15 C15       -55.5125  -26.8709   11.1422 C.3       14 UNK         0.0141 
     16 S16       -57.2281  -27.3032   10.7127 S.3       14 UNK        -0.2313 
     17 C17       -57.1573  -29.1290   10.7052 C.3       14 UNK        -0.0915 
     18 CA        -58.0710  -29.7828   11.7845 C.3       13 UNK         0.0968 
     19 C         -58.0892  -31.3394   11.6846 C.2       13 UNK         0.5732 
     20 N         -58.1963  -32.0733   12.7860 N.am      13 UNK        -0.7310 
     21 O         -58.0423  -31.8957   10.5896 O.2       13 UNK        -0.5035 
     22 N         -57.8520  -29.2520   13.1446 N.am      13 UNK        -0.4233 
     23 C         -56.7175  -29.3207   13.8514 C.2       13 UNK         0.4989 
     24 O         -55.6812  -29.8690   13.4658 O.2       13 UNK        -0.4996 
     25 CA        -56.7571  -28.6775   15.2414 C.3       12 UNK         0.0216 
     26 CB        -57.3660  -29.6339   16.2825 C.3       12 UNK        -0.1964 
     27 N         -55.3940  -28.3323   15.6272 N.am      12 UNK        -0.4276 
     28 C         -55.0325  -27.2854   16.3758 C.2       12 UNK         0.5020 
     29 O         -55.8361  -26.5175   16.9075 O.2       12 UNK        -0.5489 
     30 CA        -53.5237  -27.0451   16.5771 C.3       11 UNK         0.0294 
     31 CB        -53.0929  -27.4680   17.9908 C.3       11 UNK        -0.2019 
     32 N         -52.6632  -27.7187   15.5989 N.am      11 UNK        -0.4493 
     33 C         -52.5919  -27.4268   14.2944 C.2       11 UNK         0.4932 
     34 O         -53.2671  -26.5551   13.7484 O.2       11 UNK        -0.5029 
     35 CA        -51.5644  -28.2377   13.4889 C.3       10 UNK         0.0280 
     36 CB        -51.7242  -28.0703   11.9715 C.3       10 UNK        -0.1976 
     37 N         -50.2092  -27.8476   13.8664 N.am      10 UNK        -0.4242 
     38 C         -49.5437  -28.3350   14.9224 C.2       10 UNK         0.5072 
     39 O         -50.0091  -29.1776   15.6919 O.2       10 UNK        -0.5224 
     40 CA        -48.1470  -27.7652   15.1841 C.3       9 UNK         0.0343 
     41 CB        -47.1423  -28.2554   14.1285 C.3       9 UNK        -0.2003 
     42 N         -48.2013  -26.3028   15.1943 N.am      9 UNK        -0.4272 
     43 C         -47.7707  -25.5366   16.2049 C.2       9 UNK         0.4988 
     44 O         -47.1842  -25.9687   17.1983 O.2       9 UNK        -0.5108 
     45 CA        -48.0411  -24.0251   16.1041 C.3       8 UNK         0.0248 
     46 CB        -46.8645  -23.3110   15.4183 C.3       8 UNK        -0.2001 
     47 N         -49.2868  -23.6801   15.4127 N.am      8 UNK        -0.4140 
     48 C         -50.5232  -23.9930   15.8337 C.2       8 UNK         0.5028 
     49 O         -50.7656  -24.6413   16.8508 O.2       8 UNK        -0.5428 
     50 CA        -51.6803  -23.4976   14.9600 C.3       7 UNK         0.0264 
     51 CB        -51.9854  -22.0172   15.2700 C.3       7 UNK        -0.1988 
     52 N         -51.3464  -23.7034   13.5514 N.am      7 UNK        -0.4454 
     53 C         -52.1386  -23.5194   12.4930 C.2       7 UNK         0.5027 
     54 O         -53.2909  -23.0919   12.5845 O.2       7 UNK        -0.5083 
     55 CA        -51.5572  -23.8500   11.0915 C.3       6 UNK         0.0844 
     56 C56       -52.1600  -22.9068   10.0117 C.3       14 UNK        -0.0967 
     57 S57       -51.6746  -23.3414    8.3040 S.3       14 UNK        -0.2604 
     58 C58       -53.2248  -24.0259    7.6383 C.3       14 UNK         0.0134 
     59 N         -50.0871  -23.8635   10.9917 N.am      6 UNK        -0.4116 
     60 C         -49.1750  -24.6400   11.5933 C.2       5 UNK         0.5034 
     61 O         -49.4284  -25.4315   12.5072 O.2       5 UNK        -0.5045 
     62 CA        -47.7234  -24.4742   11.0984 C.3       5 UNK         0.0224 
     63 CB        -46.7597  -25.5043   11.7113 C.3       5 UNK        -0.1978 
     64 N         -47.6285  -24.5606    9.6381 N.am      5 UNK        -0.4737 
     65 C         -47.9040  -23.5660    8.7834 C.2       4 UNK         0.5027 
     66 O         -48.2847  -22.4533    9.1523 O.2       4 UNK        -0.5211 
     67 CA        -47.7507  -23.8793    7.2833 C.3       4 UNK         0.0297 
     68 CB        -47.7717  -22.6193    6.3930 C.3       4 UNK        -0.1993 
     69 N         -46.5742  -24.7087    7.0058 N.am      4 UNK        -0.4486 
     70 C         -45.2865  -24.4106    7.2468 C.2       3 UNK         0.4961 
     71 O         -44.8985  -23.3157    7.6559 O.2       3 UNK        -0.5105 
     72 CA        -44.2440  -25.5231    7.0210 C.3       3 UNK         0.0299 
     73 CB        -43.6434  -25.9748    8.3637 C.3       3 UNK        -0.1972 
     74 N         -44.7962  -26.6919    6.3334 N.am      3 UNK        -0.4305 
     75 C         -44.9570  -26.7942    5.0067 C.2       2 UNK         0.5006 
     76 O         -44.5761  -25.9429    4.2027 O.2       2 UNK        -0.5106 
     77 CA        -45.6792  -28.0508    4.4842 C.3       2 UNK         0.0296 
     78 CB        -44.6578  -29.1059    4.0288 C.3       2 UNK        -0.2002 
     79 N         -46.6009  -28.6559    5.4535 N.am      2 UNK        -0.4032 
     80 C         -47.7191  -28.0764    5.9171 C.2       1 UNK         0.5000 
     81 O         -48.0865  -26.9477    5.5847 O.2       1 UNK        -0.5238 
     82 H82       -45.2338  -28.6350   10.1653 H         1 UNK         0.0889 
     83 H83       -46.0346  -30.1791    9.8738 H         1 UNK         0.0889 
     84 H84       -46.7517  -29.0099   10.9856 H         1 UNK         0.0889 
     85 H85       -47.6334  -30.2853    8.2715 H         1 UNK         0.3028 
     86 H86       -48.8073  -29.8041    6.4567 H         1 UNK         0.0864 
     87 H87       -49.5977  -27.2844    8.0162 H         1 UNK         0.0720 
     88 H88       -50.3828  -27.8368    6.5584 H         1 UNK         0.0720 
     89 H89       -53.1282  -29.9099    7.8865 H         1 UNK         0.0814 
     90 H90       -52.4394  -28.9676    6.5942 H         1 UNK         0.0814 
     91 H91       -52.2702  -26.4397    6.8454 H         1 UNK         0.1469 
     92 H92       -54.8426  -24.6301    9.7576 H         1 UNK         0.1381 
     93 H93       -54.2064  -28.8686    9.7975 H         1 UNK         0.1206 
     94 H94       -55.5156  -25.9217   11.6806 H         1 UNK         0.0813 
     95 H95       -55.0993  -27.6003   11.8399 H         1 UNK         0.0813 
     96 H96       -56.1294  -29.4671   10.8328 H         1 UNK         0.0638 
     97 H97       -57.4554  -29.4542    9.7071 H         1 UNK         0.0638 
     98 H98       -59.0935  -29.4945   11.5392 H         1 UNK         0.0568 
     99 H99       -58.2470  -31.6352   13.6908 H         1 UNK         0.3450 
    100 H100      -58.2194  -33.0777   12.7077 H         1 UNK         0.3450 
    101 H101      -58.6530  -28.7980   13.5590 H         1 UNK         0.2987 
    102 H102      -57.3594  -27.7681   15.1811 H         1 UNK         0.0766 
    103 H103      -58.3908  -29.9008   16.0218 H         1 UNK         0.0798 
    104 H104      -57.3945  -29.1754   17.2712 H         1 UNK         0.0798 
    105 H105      -56.7948  -30.5600   16.3608 H         1 UNK         0.0798 
    106 H106      -54.6779  -28.8833   15.1703 H         1 UNK         0.3198 
    107 H107      -53.3571  -25.9707   16.4804 H         1 UNK         0.0843 
    108 H108      -53.2075  -28.5417   18.1444 H         1 UNK         0.0831 
    109 H109      -53.6929  -26.9634   18.7495 H         1 UNK         0.0831 
    110 H110      -52.0510  -27.2077   18.1803 H         1 UNK         0.0831 
    111 H111      -52.0214  -28.4185   15.9553 H         1 UNK         0.3133 
    112 H112      -51.7170  -29.2948   13.7175 H         1 UNK         0.0566 
    113 H113      -50.9828  -28.6532   11.4254 H         1 UNK         0.0814 
    114 H114      -51.6292  -27.0314   11.6579 H         1 UNK         0.0814 
    115 H115      -52.7055  -28.4224   11.6594 H         1 UNK         0.0814 
    116 H116      -49.7909  -27.1141   13.3014 H         1 UNK         0.3091 
    117 H117      -47.8234  -28.1417   16.1568 H         1 UNK         0.0702 
    118 H118      -46.1544  -27.8235   14.2888 H         1 UNK         0.0785 
    119 H119      -47.4615  -28.0026   13.1189 H         1 UNK         0.0785 
    120 H120      -47.0345  -29.3400   14.1711 H         1 UNK         0.0785 
    121 H121      -48.6758  -25.8588   14.4181 H         1 UNK         0.2998 
    122 H122      -48.1198  -23.6440   17.1246 H         1 UNK         0.0697 
    123 H123      -46.7630  -23.6040   14.3733 H         1 UNK         0.0825 
    124 H124      -45.9220  -23.5464   15.9151 H         1 UNK         0.0825 
    125 H125      -46.9826  -22.2278   15.4534 H         1 UNK         0.0825 
    126 H126      -49.1967  -23.0866   14.6015 H         1 UNK         0.3029 
    127 H127      -52.5615  -24.0996   15.1896 H         1 UNK         0.0897 
    128 H128      -51.1697  -21.3621   14.9626 H         1 UNK         0.0792 
    129 H129      -52.1403  -21.8672   16.3394 H         1 UNK         0.0792 
    130 H130      -52.8922  -21.6781   14.7700 H         1 UNK         0.0792 
    131 H131      -50.4816  -24.2034   13.3665 H         1 UNK         0.3086 
    132 H132      -51.8923  -24.8634   10.8671 H         1 UNK         0.0583 
    133 H133      -53.2492  -22.8876   10.0660 H         1 UNK         0.1020 
    134 H134      -51.8435  -21.8786   10.1970 H         1 UNK         0.1020 
    135 H135      -54.0467  -23.3314    7.8189 H         1 UNK         0.0694 
    136 H136      -53.1335  -24.1117    6.5545 H         1 UNK         0.0694 
    137 H137      -49.7179  -23.2397   10.2804 H         1 UNK         0.2989 
    138 H138      -47.3915  -23.4829   11.4151 H         1 UNK         0.1055 
    139 H139      -45.7353  -25.3330   11.3802 H         1 UNK         0.0806 
    140 H140      -47.0342  -26.5182   11.4248 H         1 UNK         0.0806 
    141 H141      -46.7584  -25.4554   12.7998 H         1 UNK         0.0806 
    142 H142      -47.3593  -25.4674    9.2582 H         1 UNK         0.3061 
    143 H143      -48.6172  -24.4856    7.0141 H         1 UNK         0.0734 
    144 H144      -46.9689  -21.9273    6.6485 H         1 UNK         0.0832 
    145 H145      -47.6726  -22.8771    5.3388 H         1 UNK         0.0832 
    146 H146      -48.7130  -22.0801    6.5076 H         1 UNK         0.0832 
    147 H147      -46.7904  -25.6430    6.6765 H         1 UNK         0.3156 
    148 H148      -43.4393  -25.1017    6.4148 H         1 UNK         0.0589 
    149 H149      -44.4058  -26.3672    9.0373 H         1 UNK         0.0808 
    150 H150      -43.1608  -25.1406    8.8746 H         1 UNK         0.0808 
    151 H151      -42.8870  -26.7471    8.2228 H         1 UNK         0.0808 
    152 H152      -45.1597  -27.4277    6.9218 H         1 UNK         0.3098 
    153 H153      -46.2664  -27.7471    3.6148 H         1 UNK         0.0720 
    154 H154      -43.9753  -28.6926    3.2846 H         1 UNK         0.0791 
    155 H155      -45.1500  -29.9643    3.5711 H         1 UNK         0.0791 
    156 H156      -44.0519  -29.4682    4.8604 H         1 UNK         0.0791 
    157 H157      -46.3620  -29.5772    5.7922 H         1 UNK         0.3028 
@<TRIPOS>BOND
     1    1    2 1    
     2    1   82 1    
     3    1   83 1    
     4    1   84 1    
     5    2    3 2    
     6    2    4 am   BACKBONE|DICT|INTERRES
     7    4    5 1    
     8    4   85 1    
     9    5    6 1    
    10    5   80 1    
    11    5   86 1    
    12    6    7 1    
    13    6   87 1    
    14    6   88 1    
    15    7    8 1    
    16    8    9 1    
    17    8   89 1    
    18    8   90 1    
    19    9   10 ar   
    20    9   14 ar   
    21   10   11 ar   
    22   10   91 1    
    23   11   12 ar   
    24   11   58 1    
    25   12   13 ar   
    26   12   92 1    
    27   13   14 ar   
    28   13   15 1    
    29   14   93 1    
    30   15   16 1    
    31   15   94 1    
    32   15   95 1    
    33   16   17 1    
    34   17   18 1    
    35   17   96 1    
    36   17   97 1    
    37   18   19 1    
    38   18   22 1    
    39   18   98 1    
    40   19   20 am   BACKBONE|DICT|INTERRES
    41   19   21 2    
    42   20   99 1    
    43   20  100 1    
    44   22   23 am   BACKBONE|DICT|INTERRES
    45   22  101 1    
    46   23   24 2    
    47   23   25 1    
    48   25   26 1    
    49   25   27 1    
    50   25  102 1    
    51   26  103 1    
    52   26  104 1    
    53   26  105 1    
    54   27   28 am   BACKBONE|DICT|INTERRES
    55   27  106 1    
    56   28   29 2    
    57   28   30 1    
    58   30   31 1    
    59   30   32 1    
    60   30  107 1    
    61   31  108 1    
    62   31  109 1    
    63   31  110 1    
    64   32   33 am   BACKBONE|DICT|INTERRES
    65   32  111 1    
    66   33   34 2    
    67   33   35 1    
    68   35   36 1    
    69   35   37 1    
    70   35  112 1    
    71   36  113 1    
    72   36  114 1    
    73   36  115 1    
    74   37   38 am   BACKBONE|DICT|INTERRES
    75   37  116 1    
    76   38   39 2    
    77   38   40 1    
    78   40   41 1    
    79   40   42 1    
    80   40  117 1    
    81   41  118 1    
    82   41  119 1    
    83   41  120 1    
    84   42   43 am   BACKBONE|DICT|INTERRES
    85   42  121 1    
    86   43   44 2    
    87   43   45 1    
    88   45   46 1    
    89   45   47 1    
    90   45  122 1    
    91   46  123 1    
    92   46  124 1    
    93   46  125 1    
    94   47   48 am   BACKBONE|DICT|INTERRES
    95   47  126 1    
    96   48   49 2    
    97   48   50 1    
    98   50   51 1    
    99   50   52 1    
   100   50  127 1    
   101   51  128 1    
   102   51  129 1    
   103   51  130 1    
   104   52   53 am   BACKBONE|DICT|INTERRES
   105   52  131 1    
   106   53   54 2    
   107   53   55 1    
   108   55   56 1    
   109   55   59 1    
   110   55  132 1    
   111   56   57 1    
   112   56  133 1    
   113   56  134 1    
   114   57   58 1    
   115   58  135 1    
   116   58  136 1    
   117   59   60 am   BACKBONE|DICT|INTERRES
   118   59  137 1    
   119   60   61 2    
   120   60   62 1    
   121   62   63 1    
   122   62   64 1    
   123   62  138 1    
   124   63  139 1    
   125   63  140 1    
   126   63  141 1    
   127   64   65 am   BACKBONE|DICT|INTERRES
   128   64  142 1    
   129   65   66 2    
   130   65   67 1    
   131   67   68 1    
   132   67   69 1    
   133   67  143 1    
   134   68  144 1    
   135   68  145 1    
   136   68  146 1    
   137   69   70 am   BACKBONE|DICT|INTERRES
   138   69  147 1    
   139   70   71 2    
   140   70   72 1    
   141   72   73 1    
   142   72   74 1    
   143   72  148 1    
   144   73  149 1    
   145   73  150 1    
   146   73  151 1    
   147   74   75 am   BACKBONE|DICT|INTERRES
   148   74  152 1    
   149   75   76 2    
   150   75   77 1    
   151   77   78 1    
   152   77   79 1    
   153   77  153 1    
   154   78  154 1    
   155   78  155 1    
   156   78  156 1    
   157   79   80 am   BACKBONE|DICT|INTERRES
   158   79  157 1    
   159   80   81 2    
@<TRIPOS>SUBSTRUCTURE
     1 UNK         1 GROUP             0       ****    0 ROOT    
