@<TRIPOS>MOLECULE
3R207
157   159    1
SMALL
USER_CHARGES


@<TRIPOS>ATOM
      1 CA        -51.1018  -32.3691    3.9284 C.3       0 UNK        -0.1975 
      2 C         -50.4625  -31.0375    4.2941 C.2       0 UNK         0.4852 
      3 O         -49.4268  -30.6806    3.7298 O.2       0 UNK        -0.5216 
      4 N         -51.0764  -30.2987    5.2266 N.am      1 UNK        -0.4461 
      5 CA        -50.5765  -29.0202    5.7446 C.3       1 UNK         0.0864 
      6 C6        -51.6967  -28.2342    6.4665 C.3       14 UNK        -0.0898 
      7 S7        -53.0254  -27.6964    5.3411 S.3       14 UNK        -0.2598 
      8 C8        -54.5005  -28.4134    6.1516 C.3       14 UNK         0.0286 
      9 C9        -54.8460  -27.8613    7.5394 C.ar      14 UNK        -0.0844 
     10 C10       -54.2838  -26.6860    8.0568 C.ar      14 UNK        -0.0881 
     11 C11       -54.6179  -26.2293    9.3365 C.ar      14 UNK        -0.0643 
     12 C12       -55.5631  -26.9344   10.0878 C.ar      14 UNK        -0.0930 
     13 C13       -56.1524  -28.0962    9.5797 C.ar      14 UNK        -0.0827 
     14 C14       -55.7814  -28.5560    8.3129 C.ar      14 UNK        -0.1249 
     15 C15       -57.2297  -28.8246   10.3740 C.3       14 UNK         0.0141 
     16 S16       -56.5669  -29.7450   11.7976 S.3       14 UNK        -0.2313 
     17 C17       -55.7999  -31.1979   11.0058 C.3       14 UNK        -0.0915 
     18 CA        -54.5405  -31.6897   11.7798 C.3       13 UNK         0.0968 
     19 C         -54.0231  -33.0739   11.2798 C.2       13 UNK         0.5732 
     20 N         -52.7271  -33.3565   11.3420 N.am      13 UNK        -0.7310 
     21 O         -54.8077  -33.9244   10.8651 O.2       13 UNK        -0.5035 
     22 N         -53.5060  -30.6464   11.9069 N.am      13 UNK        -0.4233 
     23 C         -52.8136  -30.0945   10.9027 C.2       13 UNK         0.4989 
     24 O         -52.9114  -30.4439    9.7253 O.2       13 UNK        -0.4996 
     25 CA        -51.8599  -28.9500   11.2921 C.3       12 UNK         0.0216 
     26 CB        -51.1163  -28.3755   10.0778 C.3       12 UNK        -0.1964 
     27 N         -52.5853  -27.8624   11.9516 N.am      12 UNK        -0.4276 
     28 C         -52.8659  -27.8111   13.2584 C.2       12 UNK         0.5020 
     29 O         -52.5361  -28.6862   14.0616 O.2       12 UNK        -0.5489 
     30 CA        -53.6845  -26.6132   13.7469 C.3       11 UNK         0.0294 
     31 CB        -55.1285  -27.0276   14.0829 C.3       11 UNK        -0.2019 
     32 N         -53.0378  -26.0501   14.9267 N.am      11 UNK        -0.4493 
     33 C         -53.2267  -24.8096   15.3878 C.2       11 UNK         0.4932 
     34 O         -54.0179  -24.0160   14.8761 O.2       11 UNK        -0.5029 
     35 CA        -52.4061  -24.3461   16.6082 C.3       10 UNK         0.0280 
     36 CB        -53.1975  -24.5526   17.9152 C.3       10 UNK        -0.1976 
     37 N         -51.0422  -24.8923   16.7070 N.am      10 UNK        -0.4242 
     38 C         -50.6589  -26.1500   16.9669 C.2       10 UNK         0.5072 
     39 O         -51.4493  -27.0840   17.1072 O.2       10 UNK        -0.5224 
     40 CA        -49.1491  -26.4135   17.0993 C.3       9 UNK         0.0343 
     41 CB        -48.7662  -27.8347   16.6422 C.3       9 UNK        -0.2003 
     42 N         -48.3419  -25.4431   16.3521 N.am      9 UNK        -0.4272 
     43 C         -47.3570  -24.7033   16.8789 C.2       9 UNK         0.4988 
     44 O         -47.1119  -24.6485   18.0849 O.2       9 UNK        -0.5108 
     45 CA        -46.4575  -23.9201   15.9075 C.3       8 UNK         0.0248 
     46 CB        -45.3598  -24.8381   15.3461 C.3       8 UNK        -0.2001 
     47 N         -47.1695  -23.2724   14.8027 N.am      8 UNK        -0.4140 
     48 C         -47.9403  -22.1840   14.9422 C.2       8 UNK         0.5028 
     49 O         -48.1989  -21.6622   16.0275 O.2       8 UNK        -0.5428 
     50 CA        -48.5147  -21.5649   13.6551 C.3       7 UNK         0.0264 
     51 CB        -47.4310  -20.8097   12.8680 C.3       7 UNK        -0.1988 
     52 N         -49.1503  -22.5601   12.7920 N.am      7 UNK        -0.4454 
     53 C         -50.2848  -23.2025   13.1020 C.2       7 UNK         0.5027 
     54 O         -50.9501  -22.9474   14.1030 O.2       7 UNK        -0.5083 
     55 CA        -50.7334  -24.3396   12.1613 C.3       6 UNK         0.0844 
     56 C56       -51.6109  -23.7851   11.0105 C.3       14 UNK        -0.0967 
     57 S57       -52.1493  -25.0980    9.8694 S.3       14 UNK        -0.2604 
     58 C58       -53.9660  -24.9704    9.8995 C.3       14 UNK         0.0134 
     59 N         -49.5843  -25.1329   11.7014 N.am      6 UNK        -0.4116 
     60 C         -48.8168  -25.8788   12.5107 C.2       5 UNK         0.5034 
     61 O         -49.0584  -26.0519   13.7034 O.2       5 UNK        -0.5045 
     62 CA        -47.5244  -26.4730   11.9284 C.3       5 UNK         0.0224 
     63 CB        -47.7222  -27.9087   11.4174 C.3       5 UNK        -0.1978 
     64 N         -46.9557  -25.6320   10.8742 N.am      5 UNK        -0.4737 
     65 C         -46.2904  -24.4930   11.1139 C.2       4 UNK         0.5027 
     66 O         -46.0492  -24.0749   12.2454 O.2       4 UNK        -0.5211 
     67 CA        -45.8721  -23.6519    9.8944 C.3       4 UNK         0.0297 
     68 CB        -44.5275  -24.1435    9.3367 C.3       4 UNK        -0.1993 
     69 N         -46.8774  -23.6547    8.8284 N.am      4 UNK        -0.4486 
     70 C         -48.1255  -23.1850    8.9626 C.2       3 UNK         0.4961 
     71 O         -48.5284  -22.6134    9.9750 O.2       3 UNK        -0.5105 
     72 CA        -49.1085  -23.4323    7.8026 C.3       3 UNK         0.0299 
     73 CB        -49.2018  -22.1851    6.9102 C.3       3 UNK        -0.1972 
     74 N         -48.8126  -24.6060    6.9698 N.am      3 UNK        -0.4305 
     75 C         -48.6829  -25.8677    7.4056 C.2       2 UNK         0.5006 
     76 O         -48.7316  -26.1920    8.5938 O.2       2 UNK        -0.5106 
     77 CA        -48.4102  -26.9268    6.3268 C.3       2 UNK         0.0296 
     78 CB        -47.0042  -26.7325    5.7315 C.3       2 UNK        -0.2002 
     79 N         -48.4756  -28.2742    6.9025 N.am      2 UNK        -0.4032 
     80 C         -49.3817  -29.2434    6.7057 C.2       1 UNK         0.5000 
     81 O         -49.2976  -30.3127    7.3136 O.2       1 UNK        -0.5238 
     82 H82       -52.0173  -32.5504    4.4914 H         1 UNK         0.0889 
     83 H83       -50.4102  -33.1857    4.1338 H         1 UNK         0.0889 
     84 H84       -51.3474  -32.3886    2.8669 H         1 UNK         0.0889 
     85 H85       -51.9066  -30.6545    5.6767 H         1 UNK         0.3028 
     86 H86       -50.2391  -28.4518    4.8779 H         1 UNK         0.0864 
     87 H87       -51.3041  -27.3376    6.9490 H         1 UNK         0.0720 
     88 H88       -52.1228  -28.8465    7.2631 H         1 UNK         0.0720 
     89 H89       -54.3637  -29.4940    6.2173 H         1 UNK         0.0814 
     90 H90       -55.3582  -28.2523    5.4974 H         1 UNK         0.0814 
     91 H91       -53.5685  -26.1199    7.4783 H         1 UNK         0.1469 
     92 H92       -55.8545  -26.5738   11.0639 H         1 UNK         0.1381 
     93 H93       -56.2353  -29.4551    7.9187 H         1 UNK         0.1206 
     94 H94       -57.9522  -28.0941   10.7405 H         1 UNK         0.0813 
     95 H95       -57.7915  -29.5075    9.7347 H         1 UNK         0.0813 
     96 H96       -55.5468  -30.9667    9.9705 H         1 UNK         0.0638 
     97 H97       -56.5615  -31.9783   10.9662 H         1 UNK         0.0638 
     98 H98       -54.8603  -31.8898   12.8028 H         1 UNK         0.0568 
     99 H99       -52.4035  -34.2577   11.0287 H         1 UNK         0.3450 
    100 H100      -52.0717  -32.6751   11.6880 H         1 UNK         0.3450 
    101 H101      -53.3461  -30.2879   12.8410 H         1 UNK         0.2987 
    102 H102      -51.1130  -29.3572   11.9770 H         1 UNK         0.0766 
    103 H103      -50.4670  -27.5507   10.3629 H         1 UNK         0.0798 
    104 H104      -51.8148  -27.9938    9.3352 H         1 UNK         0.0798 
    105 H105      -50.4977  -29.1336    9.5969 H         1 UNK         0.0798 
    106 H106      -52.9207  -27.1305   11.3398 H         1 UNK         0.3198 
    107 H107      -53.7040  -25.8541   12.9632 H         1 UNK         0.0843 
    108 H108      -55.7273  -26.1765   14.4068 H         1 UNK         0.0831 
    109 H109      -55.1572  -27.7780   14.8739 H         1 UNK         0.0831 
    110 H110      -55.6239  -27.4531   13.2131 H         1 UNK         0.0831 
    111 H111      -52.4046  -26.6699   15.4280 H         1 UNK         0.3133 
    112 H112      -52.2683  -23.2704   16.4879 H         1 UNK         0.0566 
    113 H113      -52.6552  -24.1594   18.7750 H         1 UNK         0.0814 
    114 H114      -53.4100  -25.6053   18.1035 H         1 UNK         0.0814 
    115 H115      -54.1565  -24.0346   17.8727 H         1 UNK         0.0814 
    116 H116      -50.3062  -24.2168   16.5503 H         1 UNK         0.3091 
    117 H117      -48.9337  -26.3421   18.1670 H         1 UNK         0.0702 
    118 H118      -47.6959  -28.0110   16.7493 H         1 UNK         0.0785 
    119 H119      -49.0318  -28.0057   15.5982 H         1 UNK         0.0785 
    120 H120      -49.2779  -28.5922   17.2373 H         1 UNK         0.0785 
    121 H121      -48.4897  -25.4472   15.3440 H         1 UNK         0.2998 
    122 H122      -45.9642  -23.1351   16.4851 H         1 UNK         0.0697 
    123 H123      -45.7772  -25.6429   14.7410 H         1 UNK         0.0825 
    124 H124      -44.7857  -25.2994   16.1509 H         1 UNK         0.0825 
    125 H125      -44.6570  -24.2826   14.7248 H         1 UNK         0.0825 
    126 H126      -46.9552  -23.6049   13.8653 H         1 UNK         0.3029 
    127 H127      -49.2779  -20.8411   13.9500 H         1 UNK         0.0897 
    128 H128      -46.6377  -21.4735   12.5243 H         1 UNK         0.0792 
    129 H129      -46.9670  -20.0394   13.4853 H         1 UNK         0.0792 
    130 H130      -47.8517  -20.3146   11.9925 H         1 UNK         0.0792 
    131 H131      -48.7063  -22.7547   11.8982 H         1 UNK         0.3086 
    132 H132      -51.3582  -25.0090   12.7543 H         1 UNK         0.0583 
    133 H133      -52.4869  -23.2767   11.4182 H         1 UNK         0.1020 
    134 H134      -51.0728  -23.0317   10.4342 H         1 UNK         0.1020 
    135 H135      -54.3036  -24.7870   10.9201 H         1 UNK         0.0694 
    136 H136      -54.2751  -24.1074    9.3083 H         1 UNK         0.0694 
    137 H137      -49.3386  -25.0601   10.7235 H         1 UNK         0.2989 
    138 H138      -46.8091  -26.5232   12.7520 H         1 UNK         0.1055 
    139 H139      -48.2547  -27.9407   10.4692 H         1 UNK         0.0806 
    140 H140      -46.7620  -28.4019   11.2663 H         1 UNK         0.0806 
    141 H141      -48.2841  -28.5100   12.1338 H         1 UNK         0.0806 
    142 H142      -47.2068  -25.8690    9.9202 H         1 UNK         0.3061 
    143 H143      -45.7474  -22.6209   10.2323 H         1 UNK         0.0734 
    144 H144      -44.5935  -25.1648    8.9593 H         1 UNK         0.0832 
    145 H145      -44.1766  -23.5059    8.5250 H         1 UNK         0.0832 
    146 H146      -43.7586  -24.1317   10.1106 H         1 UNK         0.0832 
    147 H147      -46.6269  -24.1035    7.9600 H         1 UNK         0.3156 
    148 H148      -50.0903  -23.6005    8.2470 H         1 UNK         0.0589 
    149 H149      -49.9805  -22.2932    6.1549 H         1 UNK         0.0808 
    150 H150      -49.4484  -21.3008    7.5000 H         1 UNK         0.0808 
    151 H151      -48.2601  -21.9828    6.3983 H         1 UNK         0.0808 
    152 H152      -48.7416  -24.4340    5.9770 H         1 UNK         0.3098 
    153 H153      -49.1426  -26.7775    5.5359 H         1 UNK         0.0720 
    154 H154      -46.9026  -25.7604    5.2475 H         1 UNK         0.0791 
    155 H155      -46.7910  -27.4874    4.9741 H         1 UNK         0.0791 
    156 H156      -46.2275  -26.8008    6.4945 H         1 UNK         0.0791 
    157 H157      -47.7782  -28.4477    7.6110 H         1 UNK         0.3028 
@<TRIPOS>BOND
     1    1    2 1    
     2    1   82 1    
     3    1   83 1    
     4    1   84 1    
     5    2    3 2    
     6    2    4 am   BACKBONE|DICT|INTERRES
     7    4    5 1    
     8    4   85 1    
     9    5    6 1    
    10    5   80 1    
    11    5   86 1    
    12    6    7 1    
    13    6   87 1    
    14    6   88 1    
    15    7    8 1    
    16    8    9 1    
    17    8   89 1    
    18    8   90 1    
    19    9   10 ar   
    20    9   14 ar   
    21   10   11 ar   
    22   10   91 1    
    23   11   12 ar   
    24   11   58 1    
    25   12   13 ar   
    26   12   92 1    
    27   13   14 ar   
    28   13   15 1    
    29   14   93 1    
    30   15   16 1    
    31   15   94 1    
    32   15   95 1    
    33   16   17 1    
    34   17   18 1    
    35   17   96 1    
    36   17   97 1    
    37   18   19 1    
    38   18   22 1    
    39   18   98 1    
    40   19   20 am   BACKBONE|DICT|INTERRES
    41   19   21 2    
    42   20   99 1    
    43   20  100 1    
    44   22   23 am   BACKBONE|DICT|INTERRES
    45   22  101 1    
    46   23   24 2    
    47   23   25 1    
    48   25   26 1    
    49   25   27 1    
    50   25  102 1    
    51   26  103 1    
    52   26  104 1    
    53   26  105 1    
    54   27   28 am   BACKBONE|DICT|INTERRES
    55   27  106 1    
    56   28   29 2    
    57   28   30 1    
    58   30   31 1    
    59   30   32 1    
    60   30  107 1    
    61   31  108 1    
    62   31  109 1    
    63   31  110 1    
    64   32   33 am   BACKBONE|DICT|INTERRES
    65   32  111 1    
    66   33   34 2    
    67   33   35 1    
    68   35   36 1    
    69   35   37 1    
    70   35  112 1    
    71   36  113 1    
    72   36  114 1    
    73   36  115 1    
    74   37   38 am   BACKBONE|DICT|INTERRES
    75   37  116 1    
    76   38   39 2    
    77   38   40 1    
    78   40   41 1    
    79   40   42 1    
    80   40  117 1    
    81   41  118 1    
    82   41  119 1    
    83   41  120 1    
    84   42   43 am   BACKBONE|DICT|INTERRES
    85   42  121 1    
    86   43   44 2    
    87   43   45 1    
    88   45   46 1    
    89   45   47 1    
    90   45  122 1    
    91   46  123 1    
    92   46  124 1    
    93   46  125 1    
    94   47   48 am   BACKBONE|DICT|INTERRES
    95   47  126 1    
    96   48   49 2    
    97   48   50 1    
    98   50   51 1    
    99   50   52 1    
   100   50  127 1    
   101   51  128 1    
   102   51  129 1    
   103   51  130 1    
   104   52   53 am   BACKBONE|DICT|INTERRES
   105   52  131 1    
   106   53   54 2    
   107   53   55 1    
   108   55   56 1    
   109   55   59 1    
   110   55  132 1    
   111   56   57 1    
   112   56  133 1    
   113   56  134 1    
   114   57   58 1    
   115   58  135 1    
   116   58  136 1    
   117   59   60 am   BACKBONE|DICT|INTERRES
   118   59  137 1    
   119   60   61 2    
   120   60   62 1    
   121   62   63 1    
   122   62   64 1    
   123   62  138 1    
   124   63  139 1    
   125   63  140 1    
   126   63  141 1    
   127   64   65 am   BACKBONE|DICT|INTERRES
   128   64  142 1    
   129   65   66 2    
   130   65   67 1    
   131   67   68 1    
   132   67   69 1    
   133   67  143 1    
   134   68  144 1    
   135   68  145 1    
   136   68  146 1    
   137   69   70 am   BACKBONE|DICT|INTERRES
   138   69  147 1    
   139   70   71 2    
   140   70   72 1    
   141   72   73 1    
   142   72   74 1    
   143   72  148 1    
   144   73  149 1    
   145   73  150 1    
   146   73  151 1    
   147   74   75 am   BACKBONE|DICT|INTERRES
   148   74  152 1    
   149   75   76 2    
   150   75   77 1    
   151   77   78 1    
   152   77   79 1    
   153   77  153 1    
   154   78  154 1    
   155   78  155 1    
   156   78  156 1    
   157   79   80 am   BACKBONE|DICT|INTERRES
   158   79  157 1    
   159   80   81 2    
@<TRIPOS>SUBSTRUCTURE
     1 UNK         1 GROUP             0       ****    0 ROOT    
