@<TRIPOS>MOLECULE
3R207
157   159    1
SMALL
USER_CHARGES


@<TRIPOS>ATOM
      1 CA        -50.1579  -23.8380    7.7799 C.3       0 UNK        -0.1975 
      2 C         -49.7967  -24.8430    6.6959 C.2       0 UNK         0.4852 
      3 O         -50.1313  -24.6195    5.5325 O.2       0 UNK        -0.5216 
      4 N         -49.1243  -25.9351    7.0867 N.am      1 UNK        -0.4461 
      5 CA        -48.5542  -27.0131    6.2686 C.3       1 UNK         0.0864 
      6 C6        -49.5725  -27.7344    5.3353 C.3       14 UNK        -0.0898 
      7 S7        -50.4444  -29.0809    6.2030 S.3       14 UNK        -0.2598 
      8 C8        -51.8131  -28.1899    7.0197 C.3       14 UNK         0.0286 
      9 C9        -52.2844  -28.8513    8.3137 C.ar      14 UNK        -0.0844 
     10 C10       -51.3739  -29.4302    9.2063 C.ar      14 UNK        -0.0881 
     11 C11       -51.8045  -29.9845   10.4147 C.ar      14 UNK        -0.0643 
     12 C12       -53.1665  -29.9582   10.7311 C.ar      14 UNK        -0.0930 
     13 C13       -54.0897  -29.3769    9.8552 C.ar      14 UNK        -0.0827 
     14 C14       -53.6423  -28.8310    8.6475 C.ar      14 UNK        -0.1249 
     15 C15       -55.5636  -29.2974   10.2289 C.3       14 UNK         0.0141 
     16 S16       -55.9401  -27.6567   10.9127 S.3       14 UNK        -0.2313 
     17 C17       -57.6820  -27.8022   11.4288 C.3       14 UNK        -0.0915 
     18 CA        -57.8866  -28.1667   12.9295 C.3       13 UNK         0.0968 
     19 C         -57.9199  -29.7043   13.1842 C.2       13 UNK         0.5732 
     20 N         -57.3019  -30.2332   14.2333 N.am      13 UNK        -0.7310 
     21 O         -58.5389  -30.4419   12.4210 O.2       13 UNK        -0.5035 
     22 N         -56.9655  -27.4249   13.8072 N.am      13 UNK        -0.4233 
     23 C         -57.2387  -26.9823   15.0390 C.2       13 UNK         0.4989 
     24 O         -58.3565  -27.0296   15.5558 O.2       13 UNK        -0.4996 
     25 CA        -56.0314  -26.4363   15.8295 C.3       12 UNK         0.0216 
     26 CB        -56.3678  -26.0872   17.2944 C.3       12 UNK        -0.1964 
     27 N         -54.8736  -27.3402   15.7627 N.am      12 UNK        -0.4276 
     28 C         -54.8411  -28.6303   16.1310 C.2       12 UNK         0.5020 
     29 O         -55.7976  -29.2347   16.6168 O.2       12 UNK        -0.5489 
     30 CA        -53.5354  -29.3931   15.8785 C.3       11 UNK         0.0294 
     31 CB        -53.3994  -29.7636   14.3943 C.3       11 UNK        -0.2019 
     32 N         -52.3543  -28.6539   16.3219 N.am      11 UNK        -0.4493 
     33 C         -51.9811  -28.5085   17.5988 C.2       11 UNK         0.4932 
     34 O         -52.6097  -28.9701   18.5517 O.2       11 UNK        -0.5029 
     35 CA        -50.6717  -27.7438   17.8697 C.3       10 UNK         0.0280 
     36 CB        -49.4471  -28.5392   17.3714 C.3       10 UNK        -0.1976 
     37 N         -50.6520  -26.3603   17.3745 N.am      10 UNK        -0.4242 
     38 C         -50.7132  -25.9338   16.1068 C.2       10 UNK         0.5072 
     39 O         -50.8157  -26.6786   15.1304 O.2       10 UNK        -0.5224 
     40 CA        -50.6000  -24.4193   15.8909 C.3       9 UNK         0.0343 
     41 CB        -49.1642  -24.0388   15.4951 C.3       9 UNK        -0.2003 
     42 N         -51.5171  -24.0070   14.8323 N.am      9 UNK        -0.4272 
     43 C         -52.8098  -23.7135   15.0316 C.2       9 UNK         0.4988 
     44 O         -53.3341  -23.6477   16.1439 O.2       9 UNK        -0.5108 
     45 CA        -53.6746  -23.4583   13.7838 C.3       8 UNK         0.0248 
     46 CB        -53.7135  -21.9581   13.4519 C.3       8 UNK        -0.2001 
     47 N         -53.2221  -24.2038   12.6085 N.am      8 UNK        -0.4140 
     48 C         -53.2425  -25.5386   12.4978 C.2       8 UNK         0.5028 
     49 O         -53.7192  -26.2888   13.3512 O.2       8 UNK        -0.5428 
     50 CA        -52.6124  -26.1424   11.2323 C.3       7 UNK         0.0264 
     51 CB        -52.5531  -25.1803   10.0271 C.3       7 UNK        -0.1988 
     52 N         -51.3003  -26.7209   11.5144 N.am      7 UNK        -0.4454 
     53 C         -50.2089  -26.0982   11.9787 C.2       7 UNK         0.5027 
     54 O         -50.1575  -24.8840   12.1987 O.2       7 UNK        -0.5083 
     55 CA        -48.9662  -26.9762   12.2748 C.3       6 UNK         0.0844 
     56 C56       -49.0376  -28.4390   11.7420 C.3       14 UNK        -0.0967 
     57 S57       -50.2034  -29.5056   12.6586 S.3       14 UNK        -0.2604 
     58 C58       -50.8030  -30.6379   11.3606 C.3       14 UNK         0.0134 
     59 N         -47.7331  -26.3008   11.8542 N.am      6 UNK        -0.4116 
     60 C         -47.3950  -26.0186   10.5887 C.2       5 UNK         0.5034 
     61 O         -48.0894  -26.3083    9.6117 O.2       5 UNK        -0.5045 
     62 CA        -46.0211  -25.3604   10.3766 C.3       5 UNK         0.0224 
     63 CB        -44.9119  -26.4247   10.3986 C.3       5 UNK        -0.1978 
     64 N         -45.9518  -24.6409    9.1022 N.am      5 UNK        -0.4737 
     65 C         -46.5270  -23.4520    8.8726 C.2       4 UNK         0.5027 
     66 O         -47.1441  -22.8266    9.7357 O.2       4 UNK        -0.5211 
     67 CA        -46.4120  -22.8624    7.4500 C.3       4 UNK         0.0297 
     68 CB        -46.3929  -21.3190    7.4440 C.3       4 UNK        -0.1993 
     69 N         -45.3042  -23.4115    6.6596 N.am      4 UNK        -0.4486 
     70 C         -43.9871  -23.3037    6.9028 C.2       3 UNK         0.4961 
     71 O         -43.5151  -22.6430    7.8291 O.2       3 UNK        -0.5105 
     72 CA        -43.0344  -24.0688    5.9542 C.3       3 UNK         0.0299 
     73 CB        -41.7374  -24.5179    6.6615 C.3       3 UNK        -0.1972 
     74 N         -43.6653  -25.2022    5.2596 N.am      3 UNK        -0.4305 
     75 C         -44.2407  -26.2704    5.8301 C.2       2 UNK         0.5006 
     76 O         -44.2682  -26.4791    7.0452 O.2       2 UNK        -0.5106 
     77 CA        -44.9751  -27.2364    4.8846 C.3       2 UNK         0.0296 
     78 CB        -44.2103  -28.5638    4.7602 C.3       2 UNK        -0.2002 
     79 N         -46.3350  -27.4968    5.3655 N.am      2 UNK        -0.4032 
     80 C         -47.2745  -26.5544    5.5378 C.2       1 UNK         0.5000 
     81 O         -47.1261  -25.3821    5.1778 O.2       1 UNK        -0.5238 
     82 H82       -49.8271  -24.1652    8.7663 H         1 UNK         0.0889 
     83 H83       -51.2369  -23.6919    7.8099 H         1 UNK         0.0889 
     84 H84       -49.6937  -22.8748    7.5712 H         1 UNK         0.0889 
     85 H85       -48.8598  -26.0106    8.0703 H         1 UNK         0.3028 
     86 H86       -48.2056  -27.7379    7.0069 H         1 UNK         0.0864 
     87 H87       -49.0628  -28.2030    4.4913 H         1 UNK         0.0720 
     88 H88       -50.2957  -27.0518    4.8901 H         1 UNK         0.0720 
     89 H89       -52.6370  -28.1018    6.3099 H         1 UNK         0.0814 
     90 H90       -51.5063  -27.1743    7.2611 H         1 UNK         0.0814 
     91 H91       -50.3226  -29.4516    8.9575 H         1 UNK         0.1469 
     92 H92       -53.5070  -30.3846   11.6634 H         1 UNK         0.1381 
     93 H93       -54.3541  -28.3658    7.9791 H         1 UNK         0.1206 
     94 H94       -55.8149  -30.0672   10.9599 H         1 UNK         0.0813 
     95 H95       -56.1855  -29.4814    9.3517 H         1 UNK         0.0813 
     96 H96       -58.2098  -28.4841   10.7598 H         1 UNK         0.0638 
     97 H97       -58.1337  -26.8259   11.2482 H         1 UNK         0.0638 
     98 H98       -58.8999  -27.8457   13.1767 H         1 UNK         0.0568 
     99 H99       -56.8462  -29.6584   14.9316 H         1 UNK         0.3450 
    100 H100      -57.3547  -31.2295   14.3706 H         1 UNK         0.3450 
    101 H101      -56.0174  -27.3415   13.4632 H         1 UNK         0.2987 
    102 H102      -55.7313  -25.5136   15.3323 H         1 UNK         0.0766 
    103 H103      -57.1642  -25.3439   17.3458 H         1 UNK         0.0798 
    104 H104      -55.5017  -25.6693   17.8079 H         1 UNK         0.0798 
    105 H105      -56.7011  -26.9615   17.8544 H         1 UNK         0.0798 
    106 H106      -54.0788  -26.9776   15.2427 H         1 UNK         0.3198 
    107 H107      -53.5872  -30.3239   16.4480 H         1 UNK         0.0843 
    108 H108      -53.2268  -28.8876   13.7680 H         1 UNK         0.0831 
    109 H109      -54.3011  -30.2566   14.0286 H         1 UNK         0.0831 
    110 H110      -52.5711  -30.4543   14.2393 H         1 UNK         0.0831 
    111 H111      -51.8004  -28.1687   15.6173 H         1 UNK         0.3133 
    112 H112      -50.5787  -27.6629   18.9541 H         1 UNK         0.0566 
    113 H113      -48.5156  -28.0467   17.6501 H         1 UNK         0.0814 
    114 H114      -49.4473  -28.6633   16.2878 H         1 UNK         0.0814 
    115 H115      -49.4287  -29.5379   17.8094 H         1 UNK         0.0814 
    116 H116      -50.5919  -25.6564   18.0978 H         1 UNK         0.3091 
    117 H117      -50.8525  -23.8979   16.8169 H         1 UNK         0.0702 
    118 H118      -49.0709  -22.9658   15.3274 H         1 UNK         0.0785 
    119 H119      -48.8464  -24.5480   14.5846 H         1 UNK         0.0785 
    120 H120      -48.4581  -24.3075   16.2818 H         1 UNK         0.0785 
    121 H121      -51.1831  -24.1307   13.8822 H         1 UNK         0.2998 
    122 H122      -54.6913  -23.7825   14.0130 H         1 UNK         0.0697 
    123 H123      -52.7255  -21.5750   13.1930 H         1 UNK         0.0825 
    124 H124      -54.0735  -21.3801   14.3044 H         1 UNK         0.0825 
    125 H125      -54.3842  -21.7525   12.6175 H         1 UNK         0.0825 
    126 H126      -52.7858  -23.6732   11.8686 H         1 UNK         0.3029 
    127 H127      -53.2417  -26.9804   10.9471 H         1 UNK         0.0897 
    128 H128      -51.8871  -24.3350   10.1992 H         1 UNK         0.0792 
    129 H129      -53.5426  -24.7849    9.7938 H         1 UNK         0.0792 
    130 H130      -52.2015  -25.7025    9.1378 H         1 UNK         0.0792 
    131 H131      -51.2572  -27.7303   11.4467 H         1 UNK         0.3086 
    132 H132      -48.8968  -27.0300   13.3616 H         1 UNK         0.0583 
    133 H133      -49.2565  -28.4474   10.6756 H         1 UNK         0.1020 
    134 H134      -48.0559  -28.9062   11.8349 H         1 UNK         0.1020 
    135 H135      -49.9525  -31.0342   10.8035 H         1 UNK         0.0694 
    136 H136      -51.2713  -31.4972   11.8430 H         1 UNK         0.0694 
    137 H137      -47.1176  -26.0116   12.6003 H         1 UNK         0.2989 
    138 H138      -45.8459  -24.6485   11.1865 H         1 UNK         0.1055 
    139 H139      -45.0614  -27.1770    9.6227 H         1 UNK         0.0806 
    140 H140      -44.8824  -26.9459   11.3563 H         1 UNK         0.0806 
    141 H141      -43.9296  -25.9778   10.2431 H         1 UNK         0.0806 
    142 H142      -45.4728  -25.1102    8.3424 H         1 UNK         0.3061 
    143 H143      -47.3164  -23.1739    6.9281 H         1 UNK         0.0734 
    144 H144      -45.5544  -20.9214    8.0164 H         1 UNK         0.0832 
    145 H145      -46.3252  -20.9259    6.4298 H         1 UNK         0.0832 
    146 H146      -47.3049  -20.9149    7.8852 H         1 UNK         0.0832 
    147 H147      -45.5968  -24.0066    5.8915 H         1 UNK         0.3156 
    148 H148      -42.7543  -23.3570    5.1764 H         1 UNK         0.0589 
    149 H149      -41.0746  -25.0479    5.9776 H         1 UNK         0.0808 
    150 H150      -41.1832  -23.6611    7.0466 H         1 UNK         0.0808 
    151 H151      -41.9439  -25.1758    7.5064 H         1 UNK         0.0808 
    152 H152      -43.7176  -25.1161    4.2532 H         1 UNK         0.3098 
    153 H153      -45.0517  -26.7849    3.8932 H         1 UNK         0.0720 
    154 H154      -43.2005  -28.3976    4.3825 H         1 UNK         0.0791 
    155 H155      -44.7057  -29.2454    4.0685 H         1 UNK         0.0791 
    156 H156      -44.1183  -29.0687    5.7230 H         1 UNK         0.0791 
    157 H157      -46.5169  -28.4312    5.7021 H         1 UNK         0.3028 
@<TRIPOS>BOND
     1    1    2 1    
     2    1   82 1    
     3    1   83 1    
     4    1   84 1    
     5    2    3 2    
     6    2    4 am   BACKBONE|DICT|INTERRES
     7    4    5 1    
     8    4   85 1    
     9    5    6 1    
    10    5   80 1    
    11    5   86 1    
    12    6    7 1    
    13    6   87 1    
    14    6   88 1    
    15    7    8 1    
    16    8    9 1    
    17    8   89 1    
    18    8   90 1    
    19    9   10 ar   
    20    9   14 ar   
    21   10   11 ar   
    22   10   91 1    
    23   11   12 ar   
    24   11   58 1    
    25   12   13 ar   
    26   12   92 1    
    27   13   14 ar   
    28   13   15 1    
    29   14   93 1    
    30   15   16 1    
    31   15   94 1    
    32   15   95 1    
    33   16   17 1    
    34   17   18 1    
    35   17   96 1    
    36   17   97 1    
    37   18   19 1    
    38   18   22 1    
    39   18   98 1    
    40   19   20 am   BACKBONE|DICT|INTERRES
    41   19   21 2    
    42   20   99 1    
    43   20  100 1    
    44   22   23 am   BACKBONE|DICT|INTERRES
    45   22  101 1    
    46   23   24 2    
    47   23   25 1    
    48   25   26 1    
    49   25   27 1    
    50   25  102 1    
    51   26  103 1    
    52   26  104 1    
    53   26  105 1    
    54   27   28 am   BACKBONE|DICT|INTERRES
    55   27  106 1    
    56   28   29 2    
    57   28   30 1    
    58   30   31 1    
    59   30   32 1    
    60   30  107 1    
    61   31  108 1    
    62   31  109 1    
    63   31  110 1    
    64   32   33 am   BACKBONE|DICT|INTERRES
    65   32  111 1    
    66   33   34 2    
    67   33   35 1    
    68   35   36 1    
    69   35   37 1    
    70   35  112 1    
    71   36  113 1    
    72   36  114 1    
    73   36  115 1    
    74   37   38 am   BACKBONE|DICT|INTERRES
    75   37  116 1    
    76   38   39 2    
    77   38   40 1    
    78   40   41 1    
    79   40   42 1    
    80   40  117 1    
    81   41  118 1    
    82   41  119 1    
    83   41  120 1    
    84   42   43 am   BACKBONE|DICT|INTERRES
    85   42  121 1    
    86   43   44 2    
    87   43   45 1    
    88   45   46 1    
    89   45   47 1    
    90   45  122 1    
    91   46  123 1    
    92   46  124 1    
    93   46  125 1    
    94   47   48 am   BACKBONE|DICT|INTERRES
    95   47  126 1    
    96   48   49 2    
    97   48   50 1    
    98   50   51 1    
    99   50   52 1    
   100   50  127 1    
   101   51  128 1    
   102   51  129 1    
   103   51  130 1    
   104   52   53 am   BACKBONE|DICT|INTERRES
   105   52  131 1    
   106   53   54 2    
   107   53   55 1    
   108   55   56 1    
   109   55   59 1    
   110   55  132 1    
   111   56   57 1    
   112   56  133 1    
   113   56  134 1    
   114   57   58 1    
   115   58  135 1    
   116   58  136 1    
   117   59   60 am   BACKBONE|DICT|INTERRES
   118   59  137 1    
   119   60   61 2    
   120   60   62 1    
   121   62   63 1    
   122   62   64 1    
   123   62  138 1    
   124   63  139 1    
   125   63  140 1    
   126   63  141 1    
   127   64   65 am   BACKBONE|DICT|INTERRES
   128   64  142 1    
   129   65   66 2    
   130   65   67 1    
   131   67   68 1    
   132   67   69 1    
   133   67  143 1    
   134   68  144 1    
   135   68  145 1    
   136   68  146 1    
   137   69   70 am   BACKBONE|DICT|INTERRES
   138   69  147 1    
   139   70   71 2    
   140   70   72 1    
   141   72   73 1    
   142   72   74 1    
   143   72  148 1    
   144   73  149 1    
   145   73  150 1    
   146   73  151 1    
   147   74   75 am   BACKBONE|DICT|INTERRES
   148   74  152 1    
   149   75   76 2    
   150   75   77 1    
   151   77   78 1    
   152   77   79 1    
   153   77  153 1    
   154   78  154 1    
   155   78  155 1    
   156   78  156 1    
   157   79   80 am   BACKBONE|DICT|INTERRES
   158   79  157 1    
   159   80   81 2    
@<TRIPOS>SUBSTRUCTURE
     1 UNK         1 GROUP             0       ****    0 ROOT    
