@<TRIPOS>MOLECULE
3R207
157   159    1
SMALL
USER_CHARGES


@<TRIPOS>ATOM
      1 CA        -48.4072  -23.2630    4.9875 C.3       0 UNK        -0.1975 
      2 C         -48.7379  -24.7481    4.9801 C.2       0 UNK         0.4852 
      3 O         -48.5752  -25.3981    3.9478 O.2       0 UNK        -0.5216 
      4 N         -49.2071  -25.2640    6.1238 N.am      1 UNK        -0.4461 
      5 CA        -49.5623  -26.6569    6.4145 C.3       1 UNK         0.0864 
      6 C6        -50.5209  -27.2907    5.3710 C.3       14 UNK        -0.0898 
      7 S7        -51.5752  -28.5835    6.1057 S.3       14 UNK        -0.2598 
      8 C8        -53.1534  -27.6962    6.2967 C.3       14 UNK         0.0286 
      9 C9        -53.0718  -26.6012    7.3513 C.ar      14 UNK        -0.0844 
     10 C10       -52.9510  -25.2587    6.9765 C.ar      14 UNK        -0.0881 
     11 C11       -52.9208  -24.2497    7.9446 C.ar      14 UNK        -0.0643 
     12 C12       -53.0154  -24.5942    9.2975 C.ar      14 UNK        -0.0930 
     13 C13       -53.1100  -25.9342    9.6837 C.ar      14 UNK        -0.0827 
     14 C14       -53.1412  -26.9325    8.7070 C.ar      14 UNK        -0.1249 
     15 C15       -53.1783  -26.3105   11.1538 C.3       14 UNK         0.0141 
     16 S16       -54.8988  -26.3820   11.7329 S.3       14 UNK        -0.2313 
     17 C17       -54.7215  -27.2976   13.3018 C.3       14 UNK        -0.0915 
     18 CA        -55.2706  -28.7523   13.1962 C.3       13 UNK         0.0968 
     19 C         -54.1556  -29.7992   12.8950 C.2       13 UNK         0.5732 
     20 N         -53.9499  -30.8251   13.7144 N.am      13 UNK        -0.7310 
     21 O         -53.4722  -29.6953   11.8805 O.2       13 UNK        -0.5035 
     22 N         -56.1152  -29.0945   14.3504 N.am      13 UNK        -0.4233 
     23 C         -57.1332  -29.9672   14.3070 C.2       13 UNK         0.4989 
     24 O         -57.5341  -30.4912   13.2658 O.2       13 UNK        -0.4996 
     25 CA        -57.8218  -30.3189   15.6450 C.3       12 UNK         0.0216 
     26 CB        -58.5181  -31.6969   15.6084 C.3       12 UNK        -0.1964 
     27 N         -56.9359  -30.2252   16.8134 N.am      12 UNK        -0.4276 
     28 C         -55.7774  -30.8731   16.9995 C.2       12 UNK         0.5020 
     29 O         -55.2903  -31.6771   16.2011 O.2       12 UNK        -0.5489 
     30 CA        -54.9962  -30.5080   18.2710 C.3       11 UNK         0.0294 
     31 CB        -54.8022  -31.7415   19.1684 C.3       11 UNK        -0.2019 
     32 N         -53.6901  -29.9245   17.9540 N.am      11 UNK        -0.4493 
     33 C         -53.4876  -28.8283   17.2098 C.2       11 UNK         0.4932 
     34 O         -54.3886  -28.1796   16.6699 O.2       11 UNK        -0.5029 
     35 CA        -52.0219  -28.4039   17.0236 C.3       10 UNK         0.0280 
     36 CB        -51.4655  -28.9624   15.7046 C.3       10 UNK        -0.1976 
     37 N         -51.8747  -26.9466   17.0433 N.am      10 UNK        -0.4242 
     38 C         -52.0791  -26.1825   18.1298 C.2       10 UNK         0.5072 
     39 O         -52.3407  -26.6441   19.2424 O.2       10 UNK        -0.5224 
     40 CA        -51.9544  -24.6516   17.9855 C.3       9 UNK         0.0343 
     41 CB        -50.6420  -24.1576   18.6170 C.3       9 UNK        -0.2003 
     42 N         -52.0169  -24.1818   16.6022 N.am      9 UNK        -0.4272 
     43 C         -53.1173  -24.1685   15.8380 C.2       9 UNK         0.4988 
     44 O         -54.2431  -24.4382   16.2565 O.2       9 UNK        -0.5108 
     45 CA        -52.9351  -23.8062   14.3508 C.3       8 UNK         0.0248 
     46 CB        -53.4685  -22.3931   14.0661 C.3       8 UNK        -0.2001 
     47 N         -51.5575  -23.9049   13.8485 N.am      8 UNK        -0.4140 
     48 C         -50.8014  -25.0106   13.8237 C.2       8 UNK         0.5028 
     49 O         -51.1714  -26.0890   14.2875 O.2       8 UNK        -0.5428 
     50 CA        -49.4119  -24.8833   13.1678 C.3       7 UNK         0.0264 
     51 CB        -48.5837  -26.1761   13.2939 C.3       7 UNK        -0.1988 
     52 N         -49.4952  -24.5194   11.7508 N.am      7 UNK        -0.4454 
     53 C         -49.8213  -23.3152   11.2632 C.2       7 UNK         0.5027 
     54 O         -50.0850  -22.3400   11.9700 O.2       7 UNK        -0.5083 
     55 CA        -49.8184  -23.1839    9.7304 C.3       6 UNK         0.0844 
     56 C56       -50.6988  -22.0151    9.2259 C.3       14 UNK        -0.0967 
     57 S57       -51.0888  -22.2085    7.4543 S.3       14 UNK        -0.2604 
     58 C58       -52.8163  -22.7894    7.5222 C.3       14 UNK         0.0134 
     59 N         -48.4310  -23.0601    9.2805 N.am      6 UNK        -0.4116 
     60 C         -47.6281  -24.1011    9.0429 C.2       5 UNK         0.5034 
     61 O         -48.0121  -25.2711    9.0835 O.2       5 UNK        -0.5045 
     62 CA        -46.1597  -23.7883    8.7420 C.3       5 UNK         0.0224 
     63 CB        -45.3021  -24.0107    9.9982 C.3       5 UNK        -0.1978 
     64 N         -45.6913  -24.6785    7.6829 N.am      5 UNK        -0.4737 
     65 C         -45.2317  -24.2765    6.4904 C.2       4 UNK         0.5027 
     66 O         -45.1084  -23.0907    6.1809 O.2       4 UNK        -0.5211 
     67 CA        -44.8825  -25.3627    5.4523 C.3       4 UNK         0.0297 
     68 CB        -43.7691  -24.9256    4.4760 C.3       4 UNK        -0.1993 
     69 N         -44.5982  -26.6744    6.0430 N.am      4 UNK        -0.4486 
     70 C         -43.5626  -27.0157    6.8270 C.2       3 UNK         0.4961 
     71 O         -42.6335  -26.2567    7.1069 O.2       3 UNK        -0.5105 
     72 CA        -43.5757  -28.4513    7.4002 C.3       3 UNK         0.0299 
     73 CB        -42.7517  -28.5798    8.6996 C.3       3 UNK        -0.1972 
     74 N         -44.9292  -28.9957    7.5871 N.am      3 UNK        -0.4305 
     75 C         -45.9019  -28.4730    8.3481 C.2       2 UNK         0.5006 
     76 O         -45.7658  -27.4739    9.0548 O.2       2 UNK        -0.5106 
     77 CA        -47.2751  -29.1596    8.2645 C.3       2 UNK         0.0296 
     78 CB        -47.6715  -29.7517    9.6272 C.3       2 UNK        -0.2002 
     79 N         -48.3250  -28.2414    7.8143 N.am      2 UNK        -0.4032 
     80 C         -48.3198  -27.5367    6.6724 C.2       1 UNK         0.5000 
     81 O         -47.4094  -27.5942    5.8405 O.2       1 UNK        -0.5238 
     82 H82       -49.1857  -22.7032    4.4698 H         1 UNK         0.0889 
     83 H83       -47.4611  -23.0831    4.4774 H         1 UNK         0.0889 
     84 H84       -48.3206  -22.8701    6.0004 H         1 UNK         0.0889 
     85 H85       -49.3013  -24.6493    6.9199 H         1 UNK         0.3028 
     86 H86       -50.1055  -26.5789    7.3582 H         1 UNK         0.0864 
     87 H87       -49.9683  -27.7177    4.5318 H         1 UNK         0.0720 
     88 H88       -51.1646  -26.5269    4.9333 H         1 UNK         0.0720 
     89 H89       -53.9256  -28.4127    6.5809 H         1 UNK         0.0814 
     90 H90       -53.4633  -27.2871    5.3337 H         1 UNK         0.0814 
     91 H91       -52.8914  -24.9957    5.9292 H         1 UNK         0.1469 
     92 H92       -53.0138  -23.8217   10.0534 H         1 UNK         0.1381 
     93 H93       -53.2286  -27.9696    9.0029 H         1 UNK         0.1206 
     94 H94       -52.6851  -27.2695   11.3144 H         1 UNK         0.0813 
     95 H95       -52.6315  -25.5815   11.7481 H         1 UNK         0.0813 
     96 H96       -55.2792  -26.7301   14.0488 H         1 UNK         0.0638 
     97 H97       -53.6854  -27.2723   13.6448 H         1 UNK         0.0638 
     98 H98       -55.9226  -28.7926   12.3218 H         1 UNK         0.0568 
     99 H99       -53.2315  -31.4912   13.4828 H         1 UNK         0.3450 
    100 H100      -54.5150  -30.9697   14.5454 H         1 UNK         0.3450 
    101 H101      -55.7974  -28.7406   15.2465 H         1 UNK         0.2987 
    102 H102      -58.5955  -29.5630   15.7876 H         1 UNK         0.0766 
    103 H103      -59.2816  -31.7323   14.8303 H         1 UNK         0.0798 
    104 H104      -59.0136  -31.9168   16.5540 H         1 UNK         0.0798 
    105 H105      -57.8099  -32.5014   15.4061 H         1 UNK         0.0798 
    106 H106      -57.2195  -29.5549   17.5157 H         1 UNK         0.3198 
    107 H107      -55.5595  -29.7621   18.8358 H         1 UNK         0.0843 
    108 H108      -54.2103  -32.5125   18.6729 H         1 UNK         0.0831 
    109 H109      -55.7628  -32.1879   19.4293 H         1 UNK         0.0831 
    110 H110      -54.3032  -31.4816   20.1021 H         1 UNK         0.0831 
    111 H111      -52.8846  -30.4081   18.3238 H         1 UNK         0.3133 
    112 H112      -51.4277  -28.8101   17.8449 H         1 UNK         0.0566 
    113 H113      -52.0255  -28.5950   14.8445 H         1 UNK         0.0814 
    114 H114      -51.5202  -30.0515   15.6849 H         1 UNK         0.0814 
    115 H115      -50.4207  -28.6851   15.5633 H         1 UNK         0.0814 
    116 H116      -51.6855  -26.5040   16.1481 H         1 UNK         0.3091 
    117 H117      -52.7869  -24.2055   18.5337 H         1 UNK         0.0702 
    118 H118      -50.5717  -23.0701   18.5885 H         1 UNK         0.0785 
    119 H119      -49.7691  -24.5660   18.1060 H         1 UNK         0.0785 
    120 H120      -50.5756  -24.4566   19.6641 H         1 UNK         0.0785 
    121 H121      -51.1403  -23.9330   16.1690 H         1 UNK         0.2998 
    122 H122      -53.5386  -24.5157   13.7830 H         1 UNK         0.0697 
    123 H123      -52.8858  -21.6306   14.5846 H         1 UNK         0.0825 
    124 H124      -54.5042  -22.2918   14.3936 H         1 UNK         0.0825 
    125 H125      -53.4453  -22.1673   12.9997 H         1 UNK         0.0825 
    126 H126      -51.1707  -23.0754   13.4064 H         1 UNK         0.3029 
    127 H127      -48.8766  -24.0919   13.6972 H         1 UNK         0.0897 
    128 H128      -49.0595  -27.0121   12.7793 H         1 UNK         0.0792 
    129 H129      -48.4638  -26.4636   14.3394 H         1 UNK         0.0792 
    130 H130      -47.5842  -26.0507   12.8766 H         1 UNK         0.0792 
    131 H131      -49.2605  -25.2467   11.0866 H         1 UNK         0.3086 
    132 H132      -50.2463  -24.1095    9.3390 H         1 UNK         0.0583 
    133 H133      -51.6309  -21.9458    9.7887 H         1 UNK         0.1020 
    134 H134      -50.1983  -21.0571    9.3776 H         1 UNK         0.1020 
    135 H135      -53.3967  -22.1557    8.1945 H         1 UNK         0.0694 
    136 H136      -53.2618  -22.6606    6.5346 H         1 UNK         0.0694 
    137 H137      -48.0506  -22.1247    9.2626 H         1 UNK         0.2989 
    138 H138      -46.0741  -22.7423    8.4395 H         1 UNK         0.1055 
    139 H139      -45.3731  -25.0384   10.3581 H         1 UNK         0.0806 
    140 H140      -45.6190  -23.3568   10.8117 H         1 UNK         0.0806 
    141 H141      -44.2509  -23.7994    9.8009 H         1 UNK         0.0806 
    142 H142      -45.7975  -25.6697    7.8771 H         1 UNK         0.3061 
    143 H143      -45.7876  -25.5034    4.8604 H         1 UNK         0.0734 
    144 H144      -42.8468  -24.6703    4.9983 H         1 UNK         0.0832 
    145 H145      -43.5421  -25.7100    3.7542 H         1 UNK         0.0832 
    146 H146      -44.0719  -24.0446    3.9089 H         1 UNK         0.0832 
    147 H147      -45.3453  -27.3518    5.9197 H         1 UNK         0.3156 
    148 H148      -43.0985  -29.0783    6.6457 H         1 UNK         0.0589 
    149 H149      -42.7677  -29.6005    9.0813 H         1 UNK         0.0808 
    150 H150      -41.7071  -28.3162    8.5294 H         1 UNK         0.0808 
    151 H151      -43.1279  -27.9220    9.4839 H         1 UNK         0.0808 
    152 H152      -45.1493  -29.8089    7.0275 H         1 UNK         0.3098 
    153 H153      -47.2233  -29.9745    7.5398 H         1 UNK         0.0720 
    154 H154      -47.7791  -28.9757   10.3867 H         1 UNK         0.0791 
    155 H155      -46.9152  -30.4527    9.9829 H         1 UNK         0.0791 
    156 H156      -48.6140  -30.2962    9.5664 H         1 UNK         0.0791 
    157 H157      -49.0965  -28.1091    8.4511 H         1 UNK         0.3028 
@<TRIPOS>BOND
     1    1    2 1    
     2    1   82 1    
     3    1   83 1    
     4    1   84 1    
     5    2    3 2    
     6    2    4 am   BACKBONE|DICT|INTERRES
     7    4    5 1    
     8    4   85 1    
     9    5    6 1    
    10    5   80 1    
    11    5   86 1    
    12    6    7 1    
    13    6   87 1    
    14    6   88 1    
    15    7    8 1    
    16    8    9 1    
    17    8   89 1    
    18    8   90 1    
    19    9   10 ar   
    20    9   14 ar   
    21   10   11 ar   
    22   10   91 1    
    23   11   12 ar   
    24   11   58 1    
    25   12   13 ar   
    26   12   92 1    
    27   13   14 ar   
    28   13   15 1    
    29   14   93 1    
    30   15   16 1    
    31   15   94 1    
    32   15   95 1    
    33   16   17 1    
    34   17   18 1    
    35   17   96 1    
    36   17   97 1    
    37   18   19 1    
    38   18   22 1    
    39   18   98 1    
    40   19   20 am   BACKBONE|DICT|INTERRES
    41   19   21 2    
    42   20   99 1    
    43   20  100 1    
    44   22   23 am   BACKBONE|DICT|INTERRES
    45   22  101 1    
    46   23   24 2    
    47   23   25 1    
    48   25   26 1    
    49   25   27 1    
    50   25  102 1    
    51   26  103 1    
    52   26  104 1    
    53   26  105 1    
    54   27   28 am   BACKBONE|DICT|INTERRES
    55   27  106 1    
    56   28   29 2    
    57   28   30 1    
    58   30   31 1    
    59   30   32 1    
    60   30  107 1    
    61   31  108 1    
    62   31  109 1    
    63   31  110 1    
    64   32   33 am   BACKBONE|DICT|INTERRES
    65   32  111 1    
    66   33   34 2    
    67   33   35 1    
    68   35   36 1    
    69   35   37 1    
    70   35  112 1    
    71   36  113 1    
    72   36  114 1    
    73   36  115 1    
    74   37   38 am   BACKBONE|DICT|INTERRES
    75   37  116 1    
    76   38   39 2    
    77   38   40 1    
    78   40   41 1    
    79   40   42 1    
    80   40  117 1    
    81   41  118 1    
    82   41  119 1    
    83   41  120 1    
    84   42   43 am   BACKBONE|DICT|INTERRES
    85   42  121 1    
    86   43   44 2    
    87   43   45 1    
    88   45   46 1    
    89   45   47 1    
    90   45  122 1    
    91   46  123 1    
    92   46  124 1    
    93   46  125 1    
    94   47   48 am   BACKBONE|DICT|INTERRES
    95   47  126 1    
    96   48   49 2    
    97   48   50 1    
    98   50   51 1    
    99   50   52 1    
   100   50  127 1    
   101   51  128 1    
   102   51  129 1    
   103   51  130 1    
   104   52   53 am   BACKBONE|DICT|INTERRES
   105   52  131 1    
   106   53   54 2    
   107   53   55 1    
   108   55   56 1    
   109   55   59 1    
   110   55  132 1    
   111   56   57 1    
   112   56  133 1    
   113   56  134 1    
   114   57   58 1    
   115   58  135 1    
   116   58  136 1    
   117   59   60 am   BACKBONE|DICT|INTERRES
   118   59  137 1    
   119   60   61 2    
   120   60   62 1    
   121   62   63 1    
   122   62   64 1    
   123   62  138 1    
   124   63  139 1    
   125   63  140 1    
   126   63  141 1    
   127   64   65 am   BACKBONE|DICT|INTERRES
   128   64  142 1    
   129   65   66 2    
   130   65   67 1    
   131   67   68 1    
   132   67   69 1    
   133   67  143 1    
   134   68  144 1    
   135   68  145 1    
   136   68  146 1    
   137   69   70 am   BACKBONE|DICT|INTERRES
   138   69  147 1    
   139   70   71 2    
   140   70   72 1    
   141   72   73 1    
   142   72   74 1    
   143   72  148 1    
   144   73  149 1    
   145   73  150 1    
   146   73  151 1    
   147   74   75 am   BACKBONE|DICT|INTERRES
   148   74  152 1    
   149   75   76 2    
   150   75   77 1    
   151   77   78 1    
   152   77   79 1    
   153   77  153 1    
   154   78  154 1    
   155   78  155 1    
   156   78  156 1    
   157   79   80 am   BACKBONE|DICT|INTERRES
   158   79  157 1    
   159   80   81 2    
@<TRIPOS>SUBSTRUCTURE
     1 UNK         1 GROUP             0       ****    0 ROOT    
