@<TRIPOS>MOLECULE
3R207
157   159    1
SMALL
USER_CHARGES


@<TRIPOS>ATOM
      1 CA        -52.2208  -29.5337    2.9082 C.3       0 UNK        -0.1975 
      2 C         -51.2613  -29.3361    4.0729 C.2       0 UNK         0.4852 
      3 O         -50.0734  -29.6337    3.9381 O.2       0 UNK        -0.5216 
      4 N         -51.7744  -28.8392    5.2076 N.am      1 UNK        -0.4461 
      5 CA        -51.0421  -28.5489    6.4491 C.3       1 UNK         0.0864 
      6 C6        -50.4706  -29.8168    7.1547 C.3       14 UNK        -0.0898 
      7 S7        -51.7136  -31.1357    7.3913 S.3       14 UNK        -0.2598 
      8 C8        -52.2354  -30.8836    9.1168 C.3       14 UNK         0.0286 
      9 C9        -53.0182  -29.5902    9.2867 C.ar      14 UNK        -0.0844 
     10 C10       -52.4228  -28.4794    9.8908 C.ar      14 UNK        -0.0881 
     11 C11       -53.1287  -27.2801   10.0163 C.ar      14 UNK        -0.0643 
     12 C12       -54.4452  -27.2023    9.5549 C.ar      14 UNK        -0.0930 
     13 C13       -55.0583  -28.3119    8.9678 C.ar      14 UNK        -0.0827 
     14 C14       -54.3374  -29.5024    8.8314 C.ar      14 UNK        -0.1249 
     15 C15       -56.4879  -28.2025    8.4578 C.3       14 UNK         0.0141 
     16 S16       -57.7043  -28.6929    9.7222 S.3       14 UNK        -0.2313 
     17 C17       -57.7164  -30.5086    9.5291 C.3       14 UNK        -0.0915 
     18 CA        -57.4527  -31.2900   10.8434 C.3       13 UNK         0.0968 
     19 C         -57.4746  -32.8217   10.5606 C.2       13 UNK         0.5732 
     20 N         -56.3490  -33.5244   10.6114 N.am      13 UNK        -0.7310 
     21 O         -58.5353  -33.3798   10.2893 O.2       13 UNK        -0.5035 
     22 N         -56.2653  -30.7947   11.5618 N.am      13 UNK        -0.4233 
     23 C         -55.9264  -31.1440   12.8110 C.2       13 UNK         0.4989 
     24 O         -56.5567  -31.9471   13.4999 O.2       13 UNK        -0.4996 
     25 CA        -54.6785  -30.4708   13.4017 C.3       12 UNK         0.0216 
     26 CB        -53.3975  -31.1639   12.9109 C.3       12 UNK        -0.1964 
     27 N         -54.6098  -29.0402   13.1001 N.am      12 UNK        -0.4276 
     28 C         -55.4094  -28.1120   13.6415 C.2       12 UNK         0.5020 
     29 O         -56.2988  -28.3554   14.4597 O.2       12 UNK        -0.5489 
     30 CA        -55.1416  -26.6557   13.2264 C.3       11 UNK         0.0294 
     31 CB        -56.4464  -25.9068   12.9058 C.3       11 UNK        -0.2019 
     32 N         -54.3926  -25.9251   14.2521 N.am      11 UNK        -0.4493 
     33 C         -53.1409  -26.2069   14.6398 C.2       11 UNK         0.4932 
     34 O         -52.4441  -27.0864   14.1252 O.2       11 UNK        -0.5029 
     35 CA        -52.5736  -25.3714   15.7972 C.3       10 UNK         0.0280 
     36 CB        -53.4264  -25.5176   17.0751 C.3       10 UNK        -0.1976 
     37 N         -51.2082  -25.8203   16.0531 N.am      10 UNK        -0.4242 
     38 C         -50.2595  -25.1698   16.7345 C.2       10 UNK         0.5072 
     39 O         -50.4245  -24.0623   17.2494 O.2       10 UNK        -0.5224 
     40 CA        -48.9074  -25.8830   16.9092 C.3       9 UNK         0.0343 
     41 CB        -48.8923  -27.3470   16.4181 C.3       9 UNK        -0.2003 
     42 N         -47.8693  -25.1369   16.2033 N.am      9 UNK        -0.4272 
     43 C         -46.9249  -24.3851   16.7818 C.2       9 UNK         0.4988 
     44 O         -46.8107  -24.2320   17.9991 O.2       9 UNK        -0.5108 
     45 CA        -45.9142  -23.7025   15.8445 C.3       8 UNK         0.0248 
     46 CB        -44.8517  -24.7084   15.3721 C.3       8 UNK        -0.2001 
     47 N         -46.5408  -23.0638   14.6844 N.am      8 UNK        -0.4140 
     48 C         -47.3038  -21.9624   14.7481 C.2       8 UNK         0.5028 
     49 O         -47.5404  -21.3504   15.7907 O.2       8 UNK        -0.5428 
     50 CA        -47.8963  -21.4425   13.4269 C.3       7 UNK         0.0264 
     51 CB        -46.8609  -20.6047   12.6591 C.3       7 UNK        -0.1988 
     52 N         -48.3969  -22.5156   12.5665 N.am      7 UNK        -0.4454 
     53 C         -49.4748  -23.2654   12.8401 C.2       7 UNK         0.5027 
     54 O         -50.2090  -23.0769   13.8097 O.2       7 UNK        -0.5083 
     55 CA        -49.7817  -24.4371   11.8854 C.3       6 UNK         0.0844 
     56 C56       -50.6666  -23.9644   10.7055 C.3       14 UNK        -0.0967 
     57 S57       -51.2064  -25.3280    9.6218 S.3       14 UNK        -0.2604 
     58 C58       -52.4771  -26.0778   10.6767 C.3       14 UNK         0.0134 
     59 N         -48.5698  -25.1364   11.4473 N.am      6 UNK        -0.4116 
     60 C         -47.7247  -25.7767   12.2677 C.2       5 UNK         0.5034 
     61 O         -47.8934  -25.8847   13.4810 O.2       5 UNK        -0.5045 
     62 CA        -46.4410  -26.3385   11.6426 C.3       5 UNK         0.0224 
     63 CB        -46.6968  -27.7004   10.9767 C.3       5 UNK        -0.1978 
     64 N         -45.8580  -25.4008   10.6810 N.am      5 UNK        -0.4737 
     65 C         -45.2792  -24.2412   11.0251 C.2       4 UNK         0.5027 
     66 O         -45.1359  -23.8698   12.1893 O.2       4 UNK        -0.5211 
     67 CA        -44.8245  -23.3222    9.8790 C.3       4 UNK         0.0297 
     68 CB        -43.4364  -23.7403    9.3695 C.3       4 UNK        -0.1993 
     69 N         -45.7728  -23.2964    8.7627 N.am      4 UNK        -0.4486 
     70 C         -47.0217  -22.8155    8.8420 C.2       3 UNK         0.4961 
     71 O         -47.4945  -22.2994    9.8534 O.2       3 UNK        -0.5105 
     72 CA        -47.9121  -22.9819    7.5989 C.3       3 UNK         0.0299 
     73 CB        -47.7191  -21.7992    6.6370 C.3       3 UNK        -0.1972 
     74 N         -47.7092  -24.2441    6.8773 N.am      3 UNK        -0.4305 
     75 C         -47.8460  -25.4645    7.4142 C.2       2 UNK         0.5006 
     76 O         -48.0640  -25.6716    8.6087 O.2       2 UNK        -0.5106 
     77 CA        -47.6554  -26.6617    6.4737 C.3       2 UNK         0.0296 
     78 CB        -46.3142  -27.3579    6.7592 C.3       2 UNK        -0.2002 
     79 N         -48.7447  -27.6274    6.6255 N.am      2 UNK        -0.4032 
     80 C         -50.0041  -27.4255    6.2088 C.2       1 UNK         0.5000 
     81 O         -50.3662  -26.3968    5.6298 O.2       1 UNK        -0.5238 
     82 H82       -53.2390  -29.2404    3.1632 H         1 UNK         0.0889 
     83 H83       -52.2354  -30.5814    2.6088 H         1 UNK         0.0889 
     84 H84       -51.9005  -28.9389    2.0532 H         1 UNK         0.0889 
     85 H85       -52.7552  -28.5998    5.2337 H         1 UNK         0.3028 
     86 H86       -51.7785  -28.1091    7.1228 H         1 UNK         0.0864 
     87 H87       -50.0485  -29.5581    8.1273 H         1 UNK         0.0720 
     88 H88       -49.6561  -30.2479    6.5701 H         1 UNK         0.0720 
     89 H89       -51.3626  -30.9048    9.7714 H         1 UNK         0.0814 
     90 H90       -52.8616  -31.7248    9.4173 H         1 UNK         0.0814 
     91 H91       -51.4031  -28.5367   10.2475 H         1 UNK         0.1469 
     92 H92       -54.9961  -26.2768    9.6545 H         1 UNK         0.1381 
     93 H93       -54.7914  -30.3597    8.3544 H         1 UNK         0.1206 
     94 H94       -56.6946  -27.1727    8.1624 H         1 UNK         0.0813 
     95 H95       -56.6196  -28.8007    7.5549 H         1 UNK         0.0813 
     96 H96       -56.9930  -30.8008    8.7677 H         1 UNK         0.0638 
     97 H97       -58.6930  -30.7805    9.1242 H         1 UNK         0.0638 
     98 H98       -58.3017  -31.1004   11.5028 H         1 UNK         0.0568 
     99 H99       -55.4764  -33.0771   10.8376 H         1 UNK         0.3450 
    100 H100      -56.3780  -34.5149   10.4287 H         1 UNK         0.3450 
    101 H101      -55.7055  -30.1128   11.0714 H         1 UNK         0.2987 
    102 H102      -54.7255  -30.5823   14.4874 H         1 UNK         0.0766 
    103 H103      -53.4125  -32.2277   13.1523 H         1 UNK         0.0798 
    104 H104      -52.5114  -30.7384   13.3827 H         1 UNK         0.0798 
    105 H105      -53.2772  -31.0758   11.8320 H         1 UNK         0.0798 
    106 H106      -53.8679  -28.7380   12.4842 H         1 UNK         0.3198 
    107 H107      -54.5437  -26.6684   12.3198 H         1 UNK         0.0843 
    108 H108      -57.0864  -25.8111   13.7838 H         1 UNK         0.0831 
    109 H109      -57.0187  -26.4362   12.1423 H         1 UNK         0.0831 
    110 H110      -56.2469  -24.9058   12.5231 H         1 UNK         0.0831 
    111 H111      -54.8985  -25.2032   14.7446 H         1 UNK         0.3133 
    112 H112      -52.5489  -24.3262   15.4822 H         1 UNK         0.0566 
    113 H113      -53.4938  -26.5585   17.3945 H         1 UNK         0.0814 
    114 H114      -54.4435  -25.1558   16.9225 H         1 UNK         0.0814 
    115 H115      -53.0097  -24.9429   17.9023 H         1 UNK         0.0814 
    116 H116      -50.9833  -26.6977   15.5985 H         1 UNK         0.3091 
    117 H117      -48.7017  -25.8981   17.9814 H         1 UNK         0.0702 
    118 H118      -47.9249  -27.8104   16.6128 H         1 UNK         0.0785 
    119 H119      -49.0807  -27.4273   15.3468 H         1 UNK         0.0785 
    120 H120      -49.6409  -27.9468   16.9375 H         1 UNK         0.0785 
    121 H121      -47.8801  -25.2190   15.1882 H         1 UNK         0.2998 
    122 H122      -45.4055  -22.9246   16.4181 H         1 UNK         0.0697 
    123 H123      -44.0757  -24.2178   14.7841 H         1 UNK         0.0825 
    124 H124      -45.2871  -25.4972   14.7579 H         1 UNK         0.0825 
    125 H125      -44.3613  -25.1872   16.2207 H         1 UNK         0.0825 
    126 H126      -46.3325  -23.4642   13.7748 H         1 UNK         0.3029 
    127 H127      -48.7383  -20.7930   13.6766 H         1 UNK         0.0897 
    128 H128      -46.0030  -21.2039   12.3520 H         1 UNK         0.0792 
    129 H129      -46.4853  -19.7868   13.2753 H         1 UNK         0.0792 
    130 H130      -47.2961  -20.1623   11.7627 H         1 UNK         0.0792 
    131 H131      -47.9019  -22.6685   11.6910 H         1 UNK         0.3086 
    132 H132      -50.3552  -25.1553   12.4737 H         1 UNK         0.0583 
    133 H133      -51.5541  -23.4444   11.0722 H         1 UNK         0.1020 
    134 H134      -50.1274  -23.2397   10.0934 H         1 UNK         0.1020 
    135 H135      -52.0276  -26.3996   11.6149 H         1 UNK         0.0694 
    136 H136      -53.2208  -25.3196   10.9267 H         1 UNK         0.0694 
    137 H137      -48.3836  -25.1499   10.4477 H         1 UNK         0.2989 
    138 H138      -45.7190  -26.4884   12.4486 H         1 UNK         0.1055 
    139 H139      -45.7827  -28.1107   10.5475 H         1 UNK         0.0806 
    140 H140      -47.4422  -27.6381   10.1840 H         1 UNK         0.0806 
    141 H141      -47.0639  -28.4231   11.7067 H         1 UNK         0.0806 
    142 H142      -46.0231  -25.5915    9.7023 H         1 UNK         0.3061 
    143 H143      -44.7504  -22.3084   10.2786 H         1 UNK         0.0734 
    144 H144      -43.4472  -24.7400    8.9335 H         1 UNK         0.0832 
    145 H145      -43.0648  -23.0472    8.6144 H         1 UNK         0.0832 
    146 H146      -42.7102  -23.7485   10.1837 H         1 UNK         0.0832 
    147 H147      -45.4704  -23.7024    7.8893 H         1 UNK         0.3156 
    148 H148      -48.9492  -22.9734    7.9400 H         1 UNK         0.0589 
    149 H149      -48.4239  -21.8430    5.8064 H         1 UNK         0.0808 
    150 H150      -46.7106  -21.7738    6.2223 H         1 UNK         0.0808 
    151 H151      -47.8848  -20.8499    7.1487 H         1 UNK         0.0808 
    152 H152      -47.5179  -24.1708    5.8882 H         1 UNK         0.3098 
    153 H153      -47.6502  -26.3114    5.4393 H         1 UNK         0.0720 
    154 H154      -45.4799  -26.6660    6.6357 H         1 UNK         0.0791 
    155 H155      -46.1462  -28.1900    6.0751 H         1 UNK         0.0791 
    156 H156      -46.2672  -27.7465    7.7774 H         1 UNK         0.0791 
    157 H157      -48.5234  -28.4833    7.1106 H         1 UNK         0.3028 
@<TRIPOS>BOND
     1    1    2 1    
     2    1   82 1    
     3    1   83 1    
     4    1   84 1    
     5    2    3 2    
     6    2    4 am   BACKBONE|DICT|INTERRES
     7    4    5 1    
     8    4   85 1    
     9    5    6 1    
    10    5   80 1    
    11    5   86 1    
    12    6    7 1    
    13    6   87 1    
    14    6   88 1    
    15    7    8 1    
    16    8    9 1    
    17    8   89 1    
    18    8   90 1    
    19    9   10 ar   
    20    9   14 ar   
    21   10   11 ar   
    22   10   91 1    
    23   11   12 ar   
    24   11   58 1    
    25   12   13 ar   
    26   12   92 1    
    27   13   14 ar   
    28   13   15 1    
    29   14   93 1    
    30   15   16 1    
    31   15   94 1    
    32   15   95 1    
    33   16   17 1    
    34   17   18 1    
    35   17   96 1    
    36   17   97 1    
    37   18   19 1    
    38   18   22 1    
    39   18   98 1    
    40   19   20 am   BACKBONE|DICT|INTERRES
    41   19   21 2    
    42   20   99 1    
    43   20  100 1    
    44   22   23 am   BACKBONE|DICT|INTERRES
    45   22  101 1    
    46   23   24 2    
    47   23   25 1    
    48   25   26 1    
    49   25   27 1    
    50   25  102 1    
    51   26  103 1    
    52   26  104 1    
    53   26  105 1    
    54   27   28 am   BACKBONE|DICT|INTERRES
    55   27  106 1    
    56   28   29 2    
    57   28   30 1    
    58   30   31 1    
    59   30   32 1    
    60   30  107 1    
    61   31  108 1    
    62   31  109 1    
    63   31  110 1    
    64   32   33 am   BACKBONE|DICT|INTERRES
    65   32  111 1    
    66   33   34 2    
    67   33   35 1    
    68   35   36 1    
    69   35   37 1    
    70   35  112 1    
    71   36  113 1    
    72   36  114 1    
    73   36  115 1    
    74   37   38 am   BACKBONE|DICT|INTERRES
    75   37  116 1    
    76   38   39 2    
    77   38   40 1    
    78   40   41 1    
    79   40   42 1    
    80   40  117 1    
    81   41  118 1    
    82   41  119 1    
    83   41  120 1    
    84   42   43 am   BACKBONE|DICT|INTERRES
    85   42  121 1    
    86   43   44 2    
    87   43   45 1    
    88   45   46 1    
    89   45   47 1    
    90   45  122 1    
    91   46  123 1    
    92   46  124 1    
    93   46  125 1    
    94   47   48 am   BACKBONE|DICT|INTERRES
    95   47  126 1    
    96   48   49 2    
    97   48   50 1    
    98   50   51 1    
    99   50   52 1    
   100   50  127 1    
   101   51  128 1    
   102   51  129 1    
   103   51  130 1    
   104   52   53 am   BACKBONE|DICT|INTERRES
   105   52  131 1    
   106   53   54 2    
   107   53   55 1    
   108   55   56 1    
   109   55   59 1    
   110   55  132 1    
   111   56   57 1    
   112   56  133 1    
   113   56  134 1    
   114   57   58 1    
   115   58  135 1    
   116   58  136 1    
   117   59   60 am   BACKBONE|DICT|INTERRES
   118   59  137 1    
   119   60   61 2    
   120   60   62 1    
   121   62   63 1    
   122   62   64 1    
   123   62  138 1    
   124   63  139 1    
   125   63  140 1    
   126   63  141 1    
   127   64   65 am   BACKBONE|DICT|INTERRES
   128   64  142 1    
   129   65   66 2    
   130   65   67 1    
   131   67   68 1    
   132   67   69 1    
   133   67  143 1    
   134   68  144 1    
   135   68  145 1    
   136   68  146 1    
   137   69   70 am   BACKBONE|DICT|INTERRES
   138   69  147 1    
   139   70   71 2    
   140   70   72 1    
   141   72   73 1    
   142   72   74 1    
   143   72  148 1    
   144   73  149 1    
   145   73  150 1    
   146   73  151 1    
   147   74   75 am   BACKBONE|DICT|INTERRES
   148   74  152 1    
   149   75   76 2    
   150   75   77 1    
   151   77   78 1    
   152   77   79 1    
   153   77  153 1    
   154   78  154 1    
   155   78  155 1    
   156   78  156 1    
   157   79   80 am   BACKBONE|DICT|INTERRES
   158   79  157 1    
   159   80   81 2    
@<TRIPOS>SUBSTRUCTURE
     1 UNK         1 GROUP             0       ****    0 ROOT    
