@<TRIPOS>MOLECULE
3R207
157   159    1
SMALL
USER_CHARGES


@<TRIPOS>ATOM
      1 CA        -54.8631  -22.7506    9.0616 C.3       0 UNK        -0.1975 
      2 C         -54.9657  -23.4054    7.6859 C.2       0 UNK         0.4852 
      3 O         -55.8446  -23.0365    6.9089 O.2       0 UNK        -0.5216 
      4 N         -54.1149  -24.3822    7.3401 N.am      1 UNK        -0.4461 
      5 CA        -52.9622  -24.8702    8.1052 C.3       1 UNK         0.0864 
      6 C6        -52.6019  -26.3259    7.6900 C.3       14 UNK        -0.0898 
      7 S7        -52.2607  -27.3854    9.1306 S.3       14 UNK        -0.2598 
      8 C8        -51.3835  -28.7844    8.3579 C.3       14 UNK         0.0286 
      9 C9        -50.8541  -29.7693    9.3956 C.ar      14 UNK        -0.0844 
     10 C10       -49.4884  -30.0675    9.4684 C.ar      14 UNK        -0.0881 
     11 C11       -49.0057  -30.9827   10.4098 C.ar      14 UNK        -0.0643 
     12 C12       -49.9084  -31.6069   11.2790 C.ar      14 UNK        -0.0930 
     13 C13       -51.2823  -31.3439   11.2046 C.ar      14 UNK        -0.0827 
     14 C14       -51.7405  -30.4123   10.2638 C.ar      14 UNK        -0.1249 
     15 C15       -52.2327  -32.0809   12.1554 C.3       14 UNK         0.0141 
     16 S16       -53.9629  -32.2191   11.5670 S.3       14 UNK        -0.2313 
     17 C17       -54.9404  -31.5540   12.9618 C.3       14 UNK        -0.0915 
     18 CA        -56.1171  -30.6529   12.4958 C.3       13 UNK         0.0968 
     19 C         -57.0549  -30.3072   13.6869 C.2       13 UNK         0.5732 
     20 N         -56.9969  -29.1123   14.2599 N.am      13 UNK        -0.7310 
     21 O         -57.8588  -31.1429   14.0933 O.2       13 UNK        -0.5035 
     22 N         -55.6636  -29.4955   11.7043 N.am      13 UNK        -0.4233 
     23 C         -56.4562  -28.7729   10.8998 C.2       13 UNK         0.4989 
     24 O         -57.6702  -28.9542   10.7870 O.2       13 UNK        -0.4996 
     25 CA        -55.7517  -27.7009   10.0473 C.3       12 UNK         0.0216 
     26 CB        -56.6907  -26.9784    9.0563 C.3       12 UNK        -0.1964 
     27 N         -54.9888  -26.7477   10.8622 N.am      12 UNK        -0.4276 
     28 C         -55.4678  -25.8370   11.7229 C.2       12 UNK         0.5020 
     29 O         -56.6657  -25.6281   11.9210 O.2       12 UNK        -0.5489 
     30 CA        -54.4020  -25.0424   12.5077 C.3       11 UNK         0.0294 
     31 CB        -55.0082  -24.0659   13.5368 C.3       11 UNK        -0.2019 
     32 N         -53.4157  -25.9186   13.1514 N.am      11 UNK        -0.4493 
     33 C         -53.6788  -26.9257   13.9998 C.2       11 UNK         0.4932 
     34 O         -54.8065  -27.2381   14.3798 O.2       11 UNK        -0.5029 
     35 CA        -52.4870  -27.7671   14.4679 C.3       10 UNK         0.0280 
     36 CB        -52.0680  -28.7295   13.3497 C.3       10 UNK        -0.1976 
     37 N         -51.3313  -26.9741   14.8787 N.am      10 UNK        -0.4242 
     38 C         -51.2740  -26.1734   15.9513 C.2       10 UNK         0.5072 
     39 O         -52.2096  -25.9934   16.7318 O.2       10 UNK        -0.5224 
     40 CA        -49.9352  -25.4562   16.1974 C.3       9 UNK         0.0343 
     41 CB        -48.9158  -26.4007   16.8553 C.3       9 UNK        -0.2003 
     42 N         -49.3716  -24.9121   14.9616 N.am      9 UNK        -0.4272 
     43 C         -49.8534  -23.8320   14.3303 C.2       9 UNK         0.4988 
     44 O         -50.7631  -23.1275   14.7684 O.2       9 UNK        -0.5108 
     45 CA        -49.2288  -23.4875   12.9701 C.3       8 UNK         0.0248 
     46 CB        -47.9552  -22.6460   13.1458 C.3       8 UNK        -0.2001 
     47 N         -48.9174  -24.6791   12.1810 N.am      8 UNK        -0.4140 
     48 C         -49.8287  -25.4922   11.6324 C.2       8 UNK         0.5028 
     49 O         -51.0410  -25.2726   11.6414 O.2       8 UNK        -0.5428 
     50 CA        -49.2978  -26.7501   10.9322 C.3       7 UNK         0.0264 
     51 CB        -48.9301  -26.4463    9.4750 C.3       7 UNK        -0.1988 
     52 N         -48.1284  -27.3241   11.5822 N.am      7 UNK        -0.4454 
     53 C         -48.0982  -27.8691   12.8030 C.2       7 UNK         0.5027 
     54 O         -49.0466  -27.8722   13.5834 O.2       7 UNK        -0.5083 
     55 CA        -46.7485  -28.4693   13.2319 C.3       6 UNK         0.0844 
     56 C56       -46.5604  -29.9045   12.6713 C.3       14 UNK        -0.0967 
     57 S57       -46.3950  -30.0020   10.8493 S.3       14 UNK        -0.2604 
     58 C58       -47.5275  -31.3700   10.4223 C.3       14 UNK         0.0134 
     59 N         -45.6377  -27.5674   12.9018 N.am      6 UNK        -0.4116 
     60 C         -45.4782  -26.3419   13.4278 C.2       5 UNK         0.5034 
     61 O         -46.2015  -25.8711   14.3072 O.2       5 UNK        -0.5045 
     62 CA        -44.3556  -25.4723   12.8343 C.3       5 UNK         0.0224 
     63 CB        -42.9967  -25.8434   13.4493 C.3       5 UNK        -0.1978 
     64 N         -44.2716  -25.5376   11.3690 N.am      5 UNK        -0.4737 
     65 C         -45.2514  -25.1624   10.5360 C.2       4 UNK         0.5027 
     66 O         -46.3429  -24.7332   10.9185 O.2       4 UNK        -0.5211 
     67 CA        -44.9871  -25.3285    9.0328 C.3       4 UNK         0.0297 
     68 CB        -44.8419  -26.8204    8.6652 C.3       4 UNK        -0.1993 
     69 N         -46.1093  -24.7424    8.3031 N.am      4 UNK        -0.4486 
     70 C         -46.1713  -24.4649    6.9970 C.2       3 UNK         0.4961 
     71 O         -45.2100  -24.5841    6.2362 O.2       3 UNK        -0.5105 
     72 CA        -47.5312  -24.0157    6.4159 C.3       3 UNK         0.0299 
     73 CB        -48.0330  -25.0408    5.3838 C.3       3 UNK        -0.1972 
     74 N         -48.5964  -23.8096    7.4059 N.am      3 UNK        -0.4305 
     75 C         -48.7239  -22.7367    8.1965 C.2       2 UNK         0.5006 
     76 O         -47.9036  -21.8184    8.2097 O.2       2 UNK        -0.5106 
     77 CA        -49.9330  -22.6742    9.1604 C.3       2 UNK         0.0296 
     78 CB        -50.5655  -21.2667    9.1912 C.3       2 UNK        -0.2002 
     79 N         -50.9852  -23.6982    9.0017 N.am      2 UNK        -0.4032 
     80 C         -51.7762  -23.8923    7.9343 C.2       1 UNK         0.5000 
     81 O         -51.6103  -23.3298    6.8499 O.2       1 UNK        -0.5238 
     82 H82       -55.1339  -23.4597    9.8418 H         1 UNK         0.0889 
     83 H83       -55.5495  -21.9069    9.1318 H         1 UNK         0.0889 
     84 H84       -53.8608  -22.3712    9.2551 H         1 UNK         0.0889 
     85 H85       -54.1923  -24.7616    6.4075 H         1 UNK         0.3028 
     86 H86       -53.2485  -24.8690    9.1583 H         1 UNK         0.0864 
     87 H87       -51.7608  -26.3595    6.9942 H         1 UNK         0.0720 
     88 H88       -53.4335  -26.7963    7.1618 H         1 UNK         0.0720 
     89 H89       -50.5683  -28.4023    7.7421 H         1 UNK         0.0814 
     90 H90       -52.0642  -29.3061    7.6839 H         1 UNK         0.0814 
     91 H91       -48.7950  -29.6029    8.7818 H         1 UNK         0.1469 
     92 H92       -49.5433  -32.3271   11.9983 H         1 UNK         0.1381 
     93 H93       -52.7928  -30.1798   10.1919 H         1 UNK         0.1206 
     94 H94       -52.1928  -31.6063   13.1345 H         1 UNK         0.0813 
     95 H95       -51.8657  -33.0969   12.3077 H         1 UNK         0.0813 
     96 H96       -54.3010  -31.0074   13.6548 H         1 UNK         0.0638 
     97 H97       -55.3189  -32.4122   13.5205 H         1 UNK         0.0638 
     98 H98       -56.7242  -31.2617   11.8224 H         1 UNK         0.0568 
     99 H99       -57.6205  -28.9090   15.0237 H         1 UNK         0.3450 
    100 H100      -56.2881  -28.4329   14.0029 H         1 UNK         0.3450 
    101 H101      -54.6797  -29.2861   11.7445 H         1 UNK         0.2987 
    102 H102      -55.0229  -28.2429    9.4439 H         1 UNK         0.0766 
    103 H103      -56.1431  -26.2647    8.4417 H         1 UNK         0.0798 
    104 H104      -57.4908  -26.4404    9.5650 H         1 UNK         0.0798 
    105 H105      -57.1625  -27.6916    8.3795 H         1 UNK         0.0798 
    106 H106      -53.9830  -26.8344   10.7865 H         1 UNK         0.3198 
    107 H107      -53.8520  -24.4489   11.7760 H         1 UNK         0.0843 
    108 H108      -55.5949  -24.5883   14.2932 H         1 UNK         0.0831 
    109 H109      -55.6690  -23.3471   13.0510 H         1 UNK         0.0831 
    110 H110      -54.2305  -23.4988   14.0487 H         1 UNK         0.0831 
    111 H111      -52.4531  -25.7679   12.8560 H         1 UNK         0.3133 
    112 H112      -52.8098  -28.3592   15.3267 H         1 UNK         0.0566 
    113 H113      -51.3064  -29.4291   13.6937 H         1 UNK         0.0814 
    114 H114      -52.9157  -29.3115   12.9955 H         1 UNK         0.0814 
    115 H115      -51.6652  -28.1991   12.4875 H         1 UNK         0.0814 
    116 H116      -50.4768  -27.1253   14.3439 H         1 UNK         0.3091 
    117 H117      -50.1201  -24.6284   16.8855 H         1 UNK         0.0702 
    118 H118      -47.9855  -25.8804   17.0843 H         1 UNK         0.0785 
    119 H119      -48.6728  -27.2488   16.2142 H         1 UNK         0.0785 
    120 H120      -49.3040  -26.8006   17.7929 H         1 UNK         0.0785 
    121 H121      -48.6077  -25.4246   14.5399 H         1 UNK         0.2998 
    122 H122      -49.9601  -22.8918   12.4204 H         1 UNK         0.0697 
    123 H123      -47.1759  -23.1985   13.6724 H         1 UNK         0.0825 
    124 H124      -48.1602  -21.7405   13.7184 H         1 UNK         0.0825 
    125 H125      -47.5498  -22.3367   12.1820 H         1 UNK         0.0825 
    126 H126      -47.9337  -24.8815   12.0219 H         1 UNK         0.3029 
    127 H127      -50.0803  -27.5073   10.9558 H         1 UNK         0.0897 
    128 H128      -48.2335  -25.6194    9.4257 H         1 UNK         0.0792 
    129 H129      -49.7982  -26.1618    8.8886 H         1 UNK         0.0792 
    130 H130      -48.4717  -27.3008    8.9797 H         1 UNK         0.0792 
    131 H131      -47.2836  -27.3690   11.0334 H         1 UNK         0.3086 
    132 H132      -46.7752  -28.5512   14.3209 H         1 UNK         0.0583 
    133 H133      -45.6672  -30.3504   13.1115 H         1 UNK         0.1020 
    134 H134      -47.3878  -30.5387   12.9963 H         1 UNK         0.1020 
    135 H135      -47.2622  -31.7315    9.4279 H         1 UNK         0.0694 
    136 H136      -47.3479  -32.2062   11.0999 H         1 UNK         0.0694 
    137 H137      -45.0031  -27.8759   12.1801 H         1 UNK         0.2989 
    138 H138      -44.5784  -24.4369   13.1029 H         1 UNK         0.1055 
    139 H139      -43.0331  -25.7871   14.5384 H         1 UNK         0.0806 
    140 H140      -42.2125  -25.1617   13.1192 H         1 UNK         0.0806 
    141 H141      -42.6935  -26.8574   13.1856 H         1 UNK         0.0806 
    142 H142      -43.4038  -25.8769   10.9781 H         1 UNK         0.3061 
    143 H143      -44.0735  -24.7872    8.7793 H         1 UNK         0.0734 
    144 H144      -45.7443  -27.3844    8.9044 H         1 UNK         0.0832 
    145 H145      -44.6424  -26.9524    7.6019 H         1 UNK         0.0832 
    146 H146      -44.0141  -27.2871    9.1998 H         1 UNK         0.0832 
    147 H147      -46.8983  -24.5204    8.8959 H         1 UNK         0.3156 
    148 H148      -47.3597  -23.0707    5.8962 H         1 UNK         0.0589 
    149 H149      -48.2155  -26.0152    5.8391 H         1 UNK         0.0808 
    150 H150      -48.9590  -24.7100    4.9126 H         1 UNK         0.0808 
    151 H151      -47.3028  -25.1863    4.5864 H         1 UNK         0.0808 
    152 H152      -49.3322  -24.4986    7.4228 H         1 UNK         0.3098 
    153 H153      -49.5013  -22.8464   10.1442 H         1 UNK         0.0720 
    154 H154      -51.3599  -21.2053    9.9349 H         1 UNK         0.0791 
    155 H155      -50.9883  -20.9928    8.2240 H         1 UNK         0.0791 
    156 H156      -49.8279  -20.5058    9.4498 H         1 UNK         0.0791 
    157 H157      -51.1798  -24.2367    9.8415 H         1 UNK         0.3028 
@<TRIPOS>BOND
     1    1    2 1    
     2    1   82 1    
     3    1   83 1    
     4    1   84 1    
     5    2    3 2    
     6    2    4 am   BACKBONE|DICT|INTERRES
     7    4    5 1    
     8    4   85 1    
     9    5    6 1    
    10    5   80 1    
    11    5   86 1    
    12    6    7 1    
    13    6   87 1    
    14    6   88 1    
    15    7    8 1    
    16    8    9 1    
    17    8   89 1    
    18    8   90 1    
    19    9   10 ar   
    20    9   14 ar   
    21   10   11 ar   
    22   10   91 1    
    23   11   12 ar   
    24   11   58 1    
    25   12   13 ar   
    26   12   92 1    
    27   13   14 ar   
    28   13   15 1    
    29   14   93 1    
    30   15   16 1    
    31   15   94 1    
    32   15   95 1    
    33   16   17 1    
    34   17   18 1    
    35   17   96 1    
    36   17   97 1    
    37   18   19 1    
    38   18   22 1    
    39   18   98 1    
    40   19   20 am   BACKBONE|DICT|INTERRES
    41   19   21 2    
    42   20   99 1    
    43   20  100 1    
    44   22   23 am   BACKBONE|DICT|INTERRES
    45   22  101 1    
    46   23   24 2    
    47   23   25 1    
    48   25   26 1    
    49   25   27 1    
    50   25  102 1    
    51   26  103 1    
    52   26  104 1    
    53   26  105 1    
    54   27   28 am   BACKBONE|DICT|INTERRES
    55   27  106 1    
    56   28   29 2    
    57   28   30 1    
    58   30   31 1    
    59   30   32 1    
    60   30  107 1    
    61   31  108 1    
    62   31  109 1    
    63   31  110 1    
    64   32   33 am   BACKBONE|DICT|INTERRES
    65   32  111 1    
    66   33   34 2    
    67   33   35 1    
    68   35   36 1    
    69   35   37 1    
    70   35  112 1    
    71   36  113 1    
    72   36  114 1    
    73   36  115 1    
    74   37   38 am   BACKBONE|DICT|INTERRES
    75   37  116 1    
    76   38   39 2    
    77   38   40 1    
    78   40   41 1    
    79   40   42 1    
    80   40  117 1    
    81   41  118 1    
    82   41  119 1    
    83   41  120 1    
    84   42   43 am   BACKBONE|DICT|INTERRES
    85   42  121 1    
    86   43   44 2    
    87   43   45 1    
    88   45   46 1    
    89   45   47 1    
    90   45  122 1    
    91   46  123 1    
    92   46  124 1    
    93   46  125 1    
    94   47   48 am   BACKBONE|DICT|INTERRES
    95   47  126 1    
    96   48   49 2    
    97   48   50 1    
    98   50   51 1    
    99   50   52 1    
   100   50  127 1    
   101   51  128 1    
   102   51  129 1    
   103   51  130 1    
   104   52   53 am   BACKBONE|DICT|INTERRES
   105   52  131 1    
   106   53   54 2    
   107   53   55 1    
   108   55   56 1    
   109   55   59 1    
   110   55  132 1    
   111   56   57 1    
   112   56  133 1    
   113   56  134 1    
   114   57   58 1    
   115   58  135 1    
   116   58  136 1    
   117   59   60 am   BACKBONE|DICT|INTERRES
   118   59  137 1    
   119   60   61 2    
   120   60   62 1    
   121   62   63 1    
   122   62   64 1    
   123   62  138 1    
   124   63  139 1    
   125   63  140 1    
   126   63  141 1    
   127   64   65 am   BACKBONE|DICT|INTERRES
   128   64  142 1    
   129   65   66 2    
   130   65   67 1    
   131   67   68 1    
   132   67   69 1    
   133   67  143 1    
   134   68  144 1    
   135   68  145 1    
   136   68  146 1    
   137   69   70 am   BACKBONE|DICT|INTERRES
   138   69  147 1    
   139   70   71 2    
   140   70   72 1    
   141   72   73 1    
   142   72   74 1    
   143   72  148 1    
   144   73  149 1    
   145   73  150 1    
   146   73  151 1    
   147   74   75 am   BACKBONE|DICT|INTERRES
   148   74  152 1    
   149   75   76 2    
   150   75   77 1    
   151   77   78 1    
   152   77   79 1    
   153   77  153 1    
   154   78  154 1    
   155   78  155 1    
   156   78  156 1    
   157   79   80 am   BACKBONE|DICT|INTERRES
   158   79  157 1    
   159   80   81 2    
@<TRIPOS>SUBSTRUCTURE
     1 UNK         1 GROUP             0       ****    0 ROOT    
