@<TRIPOS>MOLECULE
3R207
157   159    1
SMALL
USER_CHARGES


@<TRIPOS>ATOM
      1 CA        -46.0262  -31.1890    7.3163 C.3       0 UNK        -0.1975 
      2 C         -46.8454  -30.5470    6.2060 C.2       0 UNK         0.4852 
      3 O         -46.9072  -31.0897    5.1022 O.2       0 UNK        -0.5216 
      4 N         -47.4694  -29.4005    6.4968 N.am      1 UNK        -0.4461 
      5 CA        -48.2511  -28.5873    5.5643 C.3       1 UNK         0.0864 
      6 C6        -49.7746  -28.6582    5.8474 C.3       14 UNK        -0.0898 
      7 S7        -50.5048  -30.2917    5.4737 S.3       14 UNK        -0.2598 
      8 C8        -50.4902  -31.1426    7.0871 C.3       14 UNK         0.0286 
      9 C9        -51.5863  -30.6474    8.0200 C.ar      14 UNK        -0.0844 
     10 C10       -51.3322  -29.5837    8.8888 C.ar      14 UNK        -0.0881 
     11 C11       -52.3265  -29.1122    9.7459 C.ar      14 UNK        -0.0643 
     12 C12       -53.5692  -29.7464    9.7704 C.ar      14 UNK        -0.0930 
     13 C13       -53.8309  -30.8352    8.9334 C.ar      14 UNK        -0.0827 
     14 C14       -52.8398  -31.2710    8.0456 C.ar      14 UNK        -0.1249 
     15 C15       -55.1569  -31.5762    9.0472 C.3       14 UNK         0.0141 
     16 S16       -56.5874  -30.5406    8.5839 S.3       14 UNK        -0.2313 
     17 C17       -57.8491  -31.1187    9.7811 C.3       14 UNK        -0.0915 
     18 CA        -58.2775  -30.0443   10.8233 C.3       13 UNK         0.0968 
     19 C         -59.1879  -30.6809   11.9096 C.2       13 UNK         0.5732 
     20 N         -60.5010  -30.6195   11.7360 N.am      13 UNK        -0.7310 
     21 O         -58.7106  -31.2706   12.8776 O.2       13 UNK        -0.5035 
     22 N         -57.1140  -29.3243   11.3606 N.am      13 UNK        -0.4233 
     23 C         -57.1102  -28.3477   12.2755 C.2       13 UNK         0.4989 
     24 O         -58.0996  -27.9460   12.8929 O.2       13 UNK        -0.4996 
     25 CA        -55.7627  -27.6468   12.4696 C.3       12 UNK         0.0216 
     26 CB        -55.5539  -26.5932   11.3646 C.3       12 UNK        -0.1964 
     27 N         -55.7067  -27.0171   13.7860 N.am      12 UNK        -0.4276 
     28 C         -54.5771  -26.6721   14.4135 C.2       12 UNK         0.5020 
     29 O         -53.4492  -26.8205   13.9330 O.2       12 UNK        -0.5489 
     30 CA        -54.7205  -26.0828   15.8217 C.3       11 UNK         0.0294 
     31 CB        -54.9925  -27.1966   16.8524 C.3       11 UNK        -0.2019 
     32 N         -53.4775  -25.3874   16.1418 N.am      11 UNK        -0.4493 
     33 C         -53.2667  -24.5380   17.1538 C.2       11 UNK         0.4932 
     34 O         -54.1393  -24.2083   17.9591 O.2       11 UNK        -0.5029 
     35 CA        -51.8446  -23.9513   17.2748 C.3       10 UNK         0.0280 
     36 CB        -51.5201  -23.4214   18.6878 C.3       10 UNK        -0.1976 
     37 N         -50.8076  -24.8727   16.7955 N.am      10 UNK        -0.4242 
     38 C         -50.4617  -26.0626   17.3094 C.2       10 UNK         0.5072 
     39 O         -50.9267  -26.5322   18.3488 O.2       10 UNK        -0.5224 
     40 CA        -49.4362  -26.8893   16.5125 C.3       9 UNK         0.0343 
     41 CB        -50.1629  -27.8278   15.5353 C.3       9 UNK        -0.2003 
     42 N         -48.4631  -26.0763   15.7747 N.am      9 UNK        -0.4272 
     43 C         -47.4979  -25.3421   16.3491 C.2       9 UNK         0.4988 
     44 O         -47.3080  -25.2915   17.5649 O.2       9 UNK        -0.5108 
     45 CA        -46.5895  -24.5230   15.4147 C.3       8 UNK         0.0248 
     46 CB        -45.5195  -25.4179   14.7685 C.3       8 UNK        -0.2001 
     47 N         -47.3362  -23.8131   14.3740 N.am      8 UNK        -0.4140 
     48 C         -48.1829  -22.7979   14.6036 C.2       8 UNK         0.5028 
     49 O         -48.3706  -22.2957   15.7120 O.2       8 UNK        -0.5428 
     50 CA        -48.9892  -22.2784   13.3997 C.3       7 UNK         0.0264 
     51 CB        -48.1636  -21.2823   12.5706 C.3       7 UNK        -0.1988 
     52 N         -49.4726  -23.3599   12.5381 N.am      7 UNK        -0.4454 
     53 C         -50.3261  -24.3173   12.9305 C.2       7 UNK         0.5027 
     54 O         -50.8558  -24.3458   14.0403 O.2       7 UNK        -0.5083 
     55 CA        -50.5976  -25.4614   11.9416 C.3       6 UNK         0.0844 
     56 C56       -51.7481  -25.0993   10.9730 C.3       14 UNK        -0.0967 
     57 S57       -52.1108  -26.3671    9.7059 S.3       14 UNK        -0.2604 
     58 C58       -52.0417  -27.9259   10.6480 C.3       14 UNK         0.0134 
     59 N         -49.3761  -25.8550   11.2385 N.am      6 UNK        -0.4116 
     60 C         -48.3628  -26.5353   11.7876 C.2       5 UNK         0.5034 
     61 O         -48.3418  -26.9102   12.9590 O.2       5 UNK        -0.5045 
     62 CA        -47.1514  -26.8067   10.8798 C.3       5 UNK         0.0224 
     63 CB        -47.4005  -28.0414    9.9989 C.3       5 UNK        -0.1978 
     64 N         -46.8166  -25.6605   10.0296 N.am      5 UNK        -0.4737 
     65 C         -46.4251  -24.4668   10.4993 C.2       4 UNK         0.5027 
     66 O         -46.2443  -24.2281   11.6930 O.2       4 UNK        -0.5211 
     67 CA        -46.2658  -23.3343    9.4730 C.3       4 UNK         0.0297 
     68 CB        -44.8636  -23.3704    8.8465 C.3       4 UNK        -0.1993 
     69 N         -47.2731  -23.3618    8.4094 N.am      4 UNK        -0.4486 
     70 C         -48.6017  -23.3200    8.5687 C.2       3 UNK         0.4961 
     71 O         -49.1460  -23.2514    9.6705 O.2       3 UNK        -0.5105 
     72 CA        -49.4867  -23.3961    7.3070 C.3       3 UNK         0.0299 
     73 CB        -49.9045  -21.9852    6.8514 C.3       3 UNK        -0.1972 
     74 N         -48.9349  -24.1806    6.1875 N.am      3 UNK        -0.4305 
     75 C         -47.8333  -23.9500    5.4555 C.2       2 UNK         0.5006 
     76 O         -47.1032  -22.9718    5.6230 O.2       2 UNK        -0.5106 
     77 CA        -47.4596  -24.9920    4.3791 C.3       2 UNK         0.0296 
     78 CB        -45.9368  -25.0368    4.1252 C.3       2 UNK        -0.2002 
     79 N         -47.9654  -26.3540    4.6132 N.am      2 UNK        -0.4032 
     80 C         -47.7383  -27.1401    5.6777 C.2       1 UNK         0.5000 
     81 O         -47.1727  -26.7664    6.7121 O.2       1 UNK        -0.5238 
     82 H82       -46.0940  -30.6310    8.2500 H         1 UNK         0.0889 
     83 H83       -44.9770  -31.2406    7.0266 H         1 UNK         0.0889 
     84 H84       -46.3788  -32.2031    7.5031 H         1 UNK         0.0889 
     85 H85       -47.2937  -28.9433    7.3807 H         1 UNK         0.3028 
     86 H86       -48.0647  -28.9159    4.5392 H         1 UNK         0.0864 
     87 H87       -49.9927  -28.3632    6.8715 H         1 UNK         0.0720 
     88 H88       -50.3077  -27.9405    5.2212 H         1 UNK         0.0720 
     89 H89       -49.5139  -31.0294    7.5587 H         1 UNK         0.0814 
     90 H90       -50.6143  -32.2126    6.9141 H         1 UNK         0.0814 
     91 H91       -50.3614  -29.1104    8.8985 H         1 UNK         0.1469 
     92 H92       -54.3294  -29.3991   10.4504 H         1 UNK         0.1381 
     93 H93       -53.0325  -32.1113    7.3924 H         1 UNK         0.1206 
     94 H94       -55.1584  -32.4730    8.4257 H         1 UNK         0.0813 
     95 H95       -55.2537  -31.9214   10.0772 H         1 UNK         0.0813 
     96 H96       -57.4855  -32.0168   10.2835 H         1 UNK         0.0638 
     97 H97       -58.7209  -31.4405    9.2087 H         1 UNK         0.0638 
     98 H98       -58.8672  -29.2916   10.2969 H         1 UNK         0.0568 
     99 H99       -61.1053  -31.0431   12.4227 H         1 UNK         0.3450 
    100 H100      -60.9014  -30.1522   10.9374 H         1 UNK         0.3450 
    101 H101      -56.2470  -29.5610   10.9068 H         1 UNK         0.2987 
    102 H102      -54.9742  -28.3998   12.4200 H         1 UNK         0.0766 
    103 H103      -54.6063  -26.0739   11.4842 H         1 UNK         0.0798 
    104 H104      -56.3448  -25.8421   11.3714 H         1 UNK         0.0798 
    105 H105      -55.5445  -27.0510   10.3745 H         1 UNK         0.0798 
    106 H106      -56.6058  -26.9076   14.2402 H         1 UNK         0.3198 
    107 H107      -55.5411  -25.3624   15.8210 H         1 UNK         0.0843 
    108 H108      -54.1727  -27.9154   16.8892 H         1 UNK         0.0831 
    109 H109      -55.9010  -27.7483   16.6082 H         1 UNK         0.0831 
    110 H110      -55.1252  -26.7918   17.8557 H         1 UNK         0.0831 
    111 H111      -52.7311  -25.5743   15.4795 H         1 UNK         0.3133 
    112 H112      -51.8151  -23.0994   16.5939 H         1 UNK         0.0566 
    113 H113      -50.5090  -23.0169   18.7357 H         1 UNK         0.0814 
    114 H114      -52.2032  -22.6194   18.9700 H         1 UNK         0.0814 
    115 H115      -51.6072  -24.2012   19.4447 H         1 UNK         0.0814 
    116 H116      -50.4293  -24.6340   15.8822 H         1 UNK         0.3091 
    117 H117      -48.8850  -27.5047   17.2265 H         1 UNK         0.0702 
    118 H118      -49.4624  -28.4855   15.0206 H         1 UNK         0.0785 
    119 H119      -50.7170  -27.2711   14.7787 H         1 UNK         0.0785 
    120 H120      -50.8787  -28.4624   16.0598 H         1 UNK         0.0785 
    121 H121      -48.5033  -26.1282   14.7609 H         1 UNK         0.2998 
    122 H122      -46.0778  -23.7747   16.0237 H         1 UNK         0.0697 
    123 H123      -45.9608  -26.1745   14.1191 H         1 UNK         0.0825 
    124 H124      -44.9353  -25.9391   15.5280 H         1 UNK         0.0825 
    125 H125      -44.8229  -24.8313   14.1690 H         1 UNK         0.0825 
    126 H126      -47.1781  -24.1084   13.4141 H         1 UNK         0.3029 
    127 H127      -49.8644  -21.7540   13.7897 H         1 UNK         0.0897 
    128 H128      -48.7360  -20.8959   11.7269 H         1 UNK         0.0792 
    129 H129      -47.8621  -20.4281   13.1782 H         1 UNK         0.0792 
    130 H130      -47.2547  -21.7380   12.1784 H         1 UNK         0.0792 
    131 H131      -49.1367  -23.3755   11.5778 H         1 UNK         0.3086 
    132 H132      -50.9235  -26.3077   12.5484 H         1 UNK         0.0583 
    133 H133      -52.6596  -24.9113   11.5419 H         1 UNK         0.1020 
    134 H134      -51.5311  -24.1671   10.4481 H         1 UNK         0.1020 
    135 H135      -51.0543  -28.0622   11.0886 H         1 UNK         0.0694 
    136 H136      -52.7501  -27.8850   11.4758 H         1 UNK         0.0694 
    137 H137      -49.2872  -25.5300   10.2869 H         1 UNK         0.2989 
    138 H138      -46.2952  -27.0088   11.5274 H         1 UNK         0.1055 
    139 H139      -47.6574  -28.9107   10.6062 H         1 UNK         0.0806 
    140 H140      -46.5096  -28.2983    9.4258 H         1 UNK         0.0806 
    141 H141      -48.2186  -27.8773    9.2967 H         1 UNK         0.0806 
    142 H142      -46.9300  -25.7737    9.0297 H         1 UNK         0.3061 
    143 H143      -46.3801  -22.3879   10.0043 H         1 UNK         0.0734 
    144 H144      -44.7019  -22.5181    8.1861 H         1 UNK         0.0832 
    145 H145      -44.0910  -23.3343    9.6160 H         1 UNK         0.0832 
    146 H146      -44.7044  -24.2797    8.2652 H         1 UNK         0.0832 
    147 H147      -46.9345  -23.3504    7.4509 H         1 UNK         0.3156 
    148 H148      -50.3943  -23.9222    7.6082 H         1 UNK         0.0589 
    149 H149      -49.0478  -21.3824    6.5488 H         1 UNK         0.0808 
    150 H150      -50.5982  -22.0284    6.0119 H         1 UNK         0.0808 
    151 H151      -50.4062  -21.4496    7.6587 H         1 UNK         0.0808 
    152 H152      -49.4404  -25.0300    5.9802 H         1 UNK         0.3098 
    153 H153      -47.9353  -24.6468    3.4599 H         1 UNK         0.0720 
    154 H154      -45.6853  -25.7508    3.3410 H         1 UNK         0.0791 
    155 H155      -45.3875  -25.3192    5.0243 H         1 UNK         0.0791 
    156 H156      -45.5594  -24.0648    3.8046 H         1 UNK         0.0791 
    157 H157      -48.4775  -26.7529    3.8376 H         1 UNK         0.3028 
@<TRIPOS>BOND
     1    1    2 1    
     2    1   82 1    
     3    1   83 1    
     4    1   84 1    
     5    2    3 2    
     6    2    4 am   BACKBONE|DICT|INTERRES
     7    4    5 1    
     8    4   85 1    
     9    5    6 1    
    10    5   80 1    
    11    5   86 1    
    12    6    7 1    
    13    6   87 1    
    14    6   88 1    
    15    7    8 1    
    16    8    9 1    
    17    8   89 1    
    18    8   90 1    
    19    9   10 ar   
    20    9   14 ar   
    21   10   11 ar   
    22   10   91 1    
    23   11   12 ar   
    24   11   58 1    
    25   12   13 ar   
    26   12   92 1    
    27   13   14 ar   
    28   13   15 1    
    29   14   93 1    
    30   15   16 1    
    31   15   94 1    
    32   15   95 1    
    33   16   17 1    
    34   17   18 1    
    35   17   96 1    
    36   17   97 1    
    37   18   19 1    
    38   18   22 1    
    39   18   98 1    
    40   19   20 am   BACKBONE|DICT|INTERRES
    41   19   21 2    
    42   20   99 1    
    43   20  100 1    
    44   22   23 am   BACKBONE|DICT|INTERRES
    45   22  101 1    
    46   23   24 2    
    47   23   25 1    
    48   25   26 1    
    49   25   27 1    
    50   25  102 1    
    51   26  103 1    
    52   26  104 1    
    53   26  105 1    
    54   27   28 am   BACKBONE|DICT|INTERRES
    55   27  106 1    
    56   28   29 2    
    57   28   30 1    
    58   30   31 1    
    59   30   32 1    
    60   30  107 1    
    61   31  108 1    
    62   31  109 1    
    63   31  110 1    
    64   32   33 am   BACKBONE|DICT|INTERRES
    65   32  111 1    
    66   33   34 2    
    67   33   35 1    
    68   35   36 1    
    69   35   37 1    
    70   35  112 1    
    71   36  113 1    
    72   36  114 1    
    73   36  115 1    
    74   37   38 am   BACKBONE|DICT|INTERRES
    75   37  116 1    
    76   38   39 2    
    77   38   40 1    
    78   40   41 1    
    79   40   42 1    
    80   40  117 1    
    81   41  118 1    
    82   41  119 1    
    83   41  120 1    
    84   42   43 am   BACKBONE|DICT|INTERRES
    85   42  121 1    
    86   43   44 2    
    87   43   45 1    
    88   45   46 1    
    89   45   47 1    
    90   45  122 1    
    91   46  123 1    
    92   46  124 1    
    93   46  125 1    
    94   47   48 am   BACKBONE|DICT|INTERRES
    95   47  126 1    
    96   48   49 2    
    97   48   50 1    
    98   50   51 1    
    99   50   52 1    
   100   50  127 1    
   101   51  128 1    
   102   51  129 1    
   103   51  130 1    
   104   52   53 am   BACKBONE|DICT|INTERRES
   105   52  131 1    
   106   53   54 2    
   107   53   55 1    
   108   55   56 1    
   109   55   59 1    
   110   55  132 1    
   111   56   57 1    
   112   56  133 1    
   113   56  134 1    
   114   57   58 1    
   115   58  135 1    
   116   58  136 1    
   117   59   60 am   BACKBONE|DICT|INTERRES
   118   59  137 1    
   119   60   61 2    
   120   60   62 1    
   121   62   63 1    
   122   62   64 1    
   123   62  138 1    
   124   63  139 1    
   125   63  140 1    
   126   63  141 1    
   127   64   65 am   BACKBONE|DICT|INTERRES
   128   64  142 1    
   129   65   66 2    
   130   65   67 1    
   131   67   68 1    
   132   67   69 1    
   133   67  143 1    
   134   68  144 1    
   135   68  145 1    
   136   68  146 1    
   137   69   70 am   BACKBONE|DICT|INTERRES
   138   69  147 1    
   139   70   71 2    
   140   70   72 1    
   141   72   73 1    
   142   72   74 1    
   143   72  148 1    
   144   73  149 1    
   145   73  150 1    
   146   73  151 1    
   147   74   75 am   BACKBONE|DICT|INTERRES
   148   74  152 1    
   149   75   76 2    
   150   75   77 1    
   151   77   78 1    
   152   77   79 1    
   153   77  153 1    
   154   78  154 1    
   155   78  155 1    
   156   78  156 1    
   157   79   80 am   BACKBONE|DICT|INTERRES
   158   79  157 1    
   159   80   81 2    
@<TRIPOS>SUBSTRUCTURE
     1 UNK         1 GROUP             0       ****    0 ROOT    
