@<TRIPOS>MOLECULE
3R207
157   159    1
SMALL
USER_CHARGES


@<TRIPOS>ATOM
      1 CA        -46.5067  -30.8821    4.6496 C.3       0 UNK        -0.1975 
      2 C         -47.0704  -29.7614    5.5100 C.2       0 UNK         0.4852 
      3 O         -46.4801  -29.4225    6.5368 O.2       0 UNK        -0.5216 
      4 N         -48.2081  -29.1813    5.1023 N.am      1 UNK        -0.4461 
      5 CA        -48.9096  -28.1165    5.8268 C.3       1 UNK         0.0864 
      6 C6        -50.0596  -27.5213    4.9818 C.3       14 UNK        -0.0898 
      7 S7        -50.4596  -25.8074    5.4641 S.3       14 UNK        -0.2598 
      8 C8        -52.2742  -25.8070    5.3218 C.3       14 UNK         0.0286 
      9 C9        -52.9587  -25.9906    6.6691 C.ar      14 UNK        -0.0844 
     10 C10       -53.6410  -24.9196    7.2536 C.ar      14 UNK        -0.0881 
     11 C11       -54.3209  -25.0853    8.4628 C.ar      14 UNK        -0.0643 
     12 C12       -54.3098  -26.3322    9.0925 C.ar      14 UNK        -0.0930 
     13 C13       -53.6066  -27.4058    8.5357 C.ar      14 UNK        -0.0827 
     14 C14       -52.9426  -27.2302    7.3172 C.ar      14 UNK        -0.1249 
     15 C15       -53.5730  -28.7575    9.2386 C.3       14 UNK         0.0141 
     16 S16       -53.0420  -28.6046   10.9726 S.3       14 UNK        -0.2313 
     17 C17       -52.8707  -30.3504   11.4679 C.3       14 UNK        -0.0915 
     18 CA        -54.0807  -30.8775   12.2834 C.3       13 UNK         0.0968 
     19 C         -53.8636  -32.3691   12.6730 C.2       13 UNK         0.5732 
     20 N         -53.6803  -32.7064   13.9441 N.am      13 UNK        -0.7310 
     21 O         -53.8651  -33.2361   11.8023 O.2       13 UNK        -0.5035 
     22 N         -54.4200  -29.9788   13.3992 N.am      13 UNK        -0.4233 
     23 C         -55.5609  -30.0109   14.0992 C.2       13 UNK         0.4989 
     24 O         -56.4569  -30.8373   13.9238 O.2       13 UNK        -0.4996 
     25 CA        -55.7399  -28.9232   15.1691 C.3       12 UNK         0.0216 
     26 CB        -55.1418  -29.3789   16.5100 C.3       12 UNK        -0.1964 
     27 N         -55.1503  -27.6400   14.7712 N.am      12 UNK        -0.4276 
     28 C         -55.7165  -26.7962   13.8929 C.2       12 UNK         0.5020 
     29 O         -56.7784  -27.0462   13.3191 O.2       12 UNK        -0.5489 
     30 CA        -55.0110  -25.4548   13.5869 C.3       11 UNK         0.0294 
     31 CB        -56.0216  -24.2890   13.5179 C.3       11 UNK        -0.2019 
     32 N         -53.8953  -25.1194   14.4811 N.am      11 UNK        -0.4493 
     33 C         -53.9462  -24.8986   15.8047 C.2       11 UNK         0.4932 
     34 O         -54.9929  -24.8604   16.4531 O.2       11 UNK        -0.5029 
     35 CA        -52.5932  -24.7401   16.5323 C.3       10 UNK         0.0280 
     36 CB        -52.6970  -25.0509   18.0401 C.3       10 UNK        -0.1976 
     37 N         -51.4968  -25.5187   15.9378 N.am      10 UNK        -0.4242 
     38 C         -51.4856  -26.8351   15.6633 C.2       10 UNK         0.5072 
     39 O         -52.4458  -27.5785   15.8700 O.2       10 UNK        -0.5224 
     40 CA        -50.2205  -27.4195   15.0105 C.3       9 UNK         0.0343 
     41 CB        -50.5761  -28.4694   13.9445 C.3       9 UNK        -0.2003 
     42 N         -49.4062  -26.3656   14.4003 N.am      9 UNK        -0.4272 
     43 C         -48.1781  -26.0174   14.8070 C.2       9 UNK         0.4988 
     44 O         -47.5417  -26.6209   15.6719 O.2       9 UNK        -0.5108 
     45 CA        -47.5636  -24.7509   14.1839 C.3       8 UNK         0.0248 
     46 CB        -46.6081  -25.1155   13.0397 C.3       8 UNK        -0.2001 
     47 N         -48.5497  -23.7715   13.7100 N.am      8 UNK        -0.4140 
     48 C         -49.4130  -23.1183   14.5035 C.2       8 UNK         0.5028 
     49 O         -49.4874  -23.3062   15.7180 O.2       8 UNK        -0.5428 
     50 CA        -50.3852  -22.1133   13.8581 C.3       7 UNK         0.0264 
     51 CB        -49.8573  -20.6795   14.0245 C.3       7 UNK        -0.1988 
     52 N         -50.6731  -22.3550   12.4432 N.am      7 UNK        -0.4454 
     53 C         -51.2597  -23.4536   11.9463 C.2       7 UNK         0.5027 
     54 O         -51.6051  -24.4155   12.6403 O.2       7 UNK        -0.5083 
     55 CA        -51.4682  -23.4827   10.4107 C.3       6 UNK         0.0844 
     56 C56       -52.7113  -22.6483    9.9984 C.3       14 UNK        -0.0967 
     57 S57       -54.2949  -23.3197   10.6047 S.3       14 UNK        -0.2604 
     58 C58       -55.0841  -23.9242    9.0813 C.3       14 UNK         0.0134 
     59 N         -50.3079  -23.0724    9.5950 N.am      6 UNK        -0.4116 
     60 C         -48.9962  -23.2593    9.8108 C.2       5 UNK         0.5034 
     61 O         -48.5128  -23.7220   10.8450 O.2       5 UNK        -0.5045 
     62 CA        -48.0540  -22.7933    8.6841 C.3       5 UNK         0.0224 
     63 CB        -47.7870  -21.2837    8.8024 C.3       5 UNK        -0.1978 
     64 N         -46.7708  -23.5040    8.7132 N.am      5 UNK        -0.4737 
     65 C         -46.6219  -24.8027    8.4257 C.2       4 UNK         0.5027 
     66 O         -47.5397  -25.5075    7.9908 O.2       4 UNK        -0.5211 
     67 CA        -45.2472  -25.4494    8.6902 C.3       4 UNK         0.0297 
     68 CB        -44.4301  -24.7266    9.7854 C.3       4 UNK        -0.1993 
     69 N         -45.5619  -26.8270    9.0476 N.am      4 UNK        -0.4486 
     70 C         -44.8103  -27.8398    9.4893 C.2       3 UNK         0.4961 
     71 O         -43.5948  -27.7744    9.6747 O.2       3 UNK        -0.5105 
     72 CA        -45.5502  -29.1758    9.7304 C.3       3 UNK         0.0299 
     73 CB        -45.1954  -29.8102   11.0919 C.3       3 UNK        -0.1972 
     74 N         -47.0061  -29.0751    9.5123 N.am      3 UNK        -0.4305 
     75 C         -47.9259  -28.4808   10.2949 C.2       2 UNK         0.5006 
     76 O         -47.7032  -28.1069   11.4453 O.2       2 UNK        -0.5106 
     77 CA        -49.2950  -28.1737    9.6519 C.3       2 UNK         0.0296 
     78 CB        -49.9961  -26.9924   10.3413 C.3       2 UNK        -0.2002 
     79 N         -49.1225  -27.8233    8.2423 N.am      2 UNK        -0.4032 
     80 C         -49.3936  -28.6177    7.2039 C.2       1 UNK         0.5000 
     81 O         -49.9518  -29.7141    7.2965 O.2       1 UNK        -0.5238 
     82 H82       -46.4478  -31.8038    5.2277 H         1 UNK         0.0889 
     83 H83       -45.5027  -30.6261    4.3125 H         1 UNK         0.0889 
     84 H84       -47.1224  -31.0711    3.7704 H         1 UNK         0.0889 
     85 H85       -48.6652  -29.5217    4.2686 H         1 UNK         0.3028 
     86 H86       -48.1668  -27.3312    5.9887 H         1 UNK         0.0864 
     87 H87       -50.9442  -28.1594    5.0184 H         1 UNK         0.0720 
     88 H88       -49.7691  -27.4805    3.9307 H         1 UNK         0.0720 
     89 H89       -52.6078  -26.5802    4.6285 H         1 UNK         0.0814 
     90 H90       -52.5762  -24.8603    4.8713 H         1 UNK         0.0814 
     91 H91       -53.6573  -23.9583    6.7583 H         1 UNK         0.1469 
     92 H92       -54.8357  -26.4611   10.0287 H         1 UNK         0.1381 
     93 H93       -52.4130  -28.0602    6.8715 H         1 UNK         0.1206 
     94 H94       -54.5646  -29.2101    9.2013 H         1 UNK         0.0813 
     95 H95       -52.8933  -29.4364    8.7207 H         1 UNK         0.0813 
     96 H96       -52.7113  -30.9606   10.5771 H         1 UNK         0.0638 
     97 H97       -51.9551  -30.4343   12.0558 H         1 UNK         0.0638 
     98 H98       -54.9433  -30.8726   11.6144 H         1 UNK         0.0568 
     99 H99       -53.5446  -33.6759   14.1825 H         1 UNK         0.3450 
    100 H100      -53.6811  -32.0034   14.6647 H         1 UNK         0.3450 
    101 H101      -53.7465  -29.2572   13.6064 H         1 UNK         0.2987 
    102 H102      -56.8121  -28.7757   15.3159 H         1 UNK         0.0766 
    103 H103      -55.2710  -28.6187   17.2807 H         1 UNK         0.0798 
    104 H104      -54.0760  -29.5945   16.4288 H         1 UNK         0.0798 
    105 H105      -55.6306  -30.2873   16.8647 H         1 UNK         0.0798 
    106 H106      -54.2588  -27.3957   15.1967 H         1 UNK         0.3198 
    107 H107      -54.5663  -25.5719   12.5975 H         1 UNK         0.0843 
    108 H108      -56.6121  -24.2089   14.4309 H         1 UNK         0.0831 
    109 H109      -56.7198  -24.4280   12.6917 H         1 UNK         0.0831 
    110 H110      -55.5207  -23.3343   13.3594 H         1 UNK         0.0831 
    111 H111      -52.9859  -25.0859   14.0286 H         1 UNK         0.3133 
    112 H112      -52.3140  -23.6909   16.4273 H         1 UNK         0.0566 
    113 H113      -53.0182  -26.0781   18.2171 H         1 UNK         0.0814 
    114 H114      -51.7397  -24.9075   18.5411 H         1 UNK         0.0814 
    115 H115      -53.4172  -24.3943   18.5298 H         1 UNK         0.0814 
    116 H116      -50.6538  -24.9852   15.7502 H         1 UNK         0.3091 
    117 H117      -49.6659  -27.9221   15.8049 H         1 UNK         0.0702 
    118 H118      -51.0467  -29.3434   14.3965 H         1 UNK         0.0785 
    119 H119      -51.2756  -28.0660   13.2143 H         1 UNK         0.0785 
    120 H120      -49.6904  -28.8167   13.4121 H         1 UNK         0.0785 
    121 H121      -49.8535  -25.8090   13.6825 H         1 UNK         0.2998 
    122 H122      -46.9766  -24.2646   14.9658 H         1 UNK         0.0697 
    123 H123      -47.1360  -25.5745   12.2029 H         1 UNK         0.0825 
    124 H124      -45.8463  -25.8226   13.3706 H         1 UNK         0.0825 
    125 H125      -46.0944  -24.2289   12.6702 H         1 UNK         0.0825 
    126 H126      -48.5761  -23.6084   12.7047 H         1 UNK         0.3029 
    127 H127      -51.3308  -22.1934   14.3988 H         1 UNK         0.0897 
    128 H128      -48.9257  -20.5267   13.4779 H         1 UNK         0.0792 
    129 H129      -49.6597  -20.4553   15.0739 H         1 UNK         0.0792 
    130 H130      -50.5809  -19.9450   13.6704 H         1 UNK         0.0792 
    131 H131      -50.3941  -21.6318   11.7966 H         1 UNK         0.3086 
    132 H132      -51.6627  -24.5216   10.1411 H         1 UNK         0.0583 
    133 H133      -52.6196  -21.6189   10.3502 H         1 UNK         0.1020 
    134 H134      -52.7697  -22.5753    8.9117 H         1 UNK         0.1020 
    135 H135      -56.0979  -24.2501    9.3184 H         1 UNK         0.0694 
    136 H136      -55.1864  -23.0987    8.3751 H         1 UNK         0.0694 
    137 H137      -50.5565  -22.6553    8.7104 H         1 UNK         0.2989 
    138 H138      -48.5330  -22.9979    7.7235 H         1 UNK         0.1055 
    139 H139      -48.7143  -20.7123    8.7426 H         1 UNK         0.0806 
    140 H140      -47.1413  -20.9307    7.9980 H         1 UNK         0.0806 
    141 H141      -47.3101  -21.0314    9.7507 H         1 UNK         0.0806 
    142 H142      -45.9874  -23.0062    9.1093 H         1 UNK         0.3061 
    143 H143      -44.6863  -25.4534    7.7544 H         1 UNK         0.0734 
    144 H144      -43.4734  -25.2152    9.9651 H         1 UNK         0.0832 
    145 H145      -44.1961  -23.7008    9.4999 H         1 UNK         0.0832 
    146 H146      -44.9679  -24.6967   10.7310 H         1 UNK         0.0832 
    147 H147      -46.5435  -27.0227    8.8997 H         1 UNK         0.3156 
    148 H148      -45.1904  -29.8561    8.9573 H         1 UNK         0.0589 
    149 H149      -45.3939  -29.1332   11.9230 H         1 UNK         0.0808 
    150 H150      -45.7561  -30.7291   11.2622 H         1 UNK         0.0808 
    151 H151      -44.1357  -30.0639   11.1349 H         1 UNK         0.0808 
    152 H152      -47.2876  -29.3359    8.5732 H         1 UNK         0.3098 
    153 H153      -49.9230  -29.0604    9.7595 H         1 UNK         0.0720 
    154 H154      -50.9396  -26.7534    9.8513 H         1 UNK         0.0791 
    155 H155      -49.3732  -26.1007   10.3253 H         1 UNK         0.0791 
    156 H156      -50.2164  -27.2122   11.3837 H         1 UNK         0.0791 
    157 H157      -48.6664  -26.9285    8.0629 H         1 UNK         0.3028 
@<TRIPOS>BOND
     1    1    2 1    
     2    1   82 1    
     3    1   83 1    
     4    1   84 1    
     5    2    3 2    
     6    2    4 am   BACKBONE|DICT|INTERRES
     7    4    5 1    
     8    4   85 1    
     9    5    6 1    
    10    5   80 1    
    11    5   86 1    
    12    6    7 1    
    13    6   87 1    
    14    6   88 1    
    15    7    8 1    
    16    8    9 1    
    17    8   89 1    
    18    8   90 1    
    19    9   10 ar   
    20    9   14 ar   
    21   10   11 ar   
    22   10   91 1    
    23   11   12 ar   
    24   11   58 1    
    25   12   13 ar   
    26   12   92 1    
    27   13   14 ar   
    28   13   15 1    
    29   14   93 1    
    30   15   16 1    
    31   15   94 1    
    32   15   95 1    
    33   16   17 1    
    34   17   18 1    
    35   17   96 1    
    36   17   97 1    
    37   18   19 1    
    38   18   22 1    
    39   18   98 1    
    40   19   20 am   BACKBONE|DICT|INTERRES
    41   19   21 2    
    42   20   99 1    
    43   20  100 1    
    44   22   23 am   BACKBONE|DICT|INTERRES
    45   22  101 1    
    46   23   24 2    
    47   23   25 1    
    48   25   26 1    
    49   25   27 1    
    50   25  102 1    
    51   26  103 1    
    52   26  104 1    
    53   26  105 1    
    54   27   28 am   BACKBONE|DICT|INTERRES
    55   27  106 1    
    56   28   29 2    
    57   28   30 1    
    58   30   31 1    
    59   30   32 1    
    60   30  107 1    
    61   31  108 1    
    62   31  109 1    
    63   31  110 1    
    64   32   33 am   BACKBONE|DICT|INTERRES
    65   32  111 1    
    66   33   34 2    
    67   33   35 1    
    68   35   36 1    
    69   35   37 1    
    70   35  112 1    
    71   36  113 1    
    72   36  114 1    
    73   36  115 1    
    74   37   38 am   BACKBONE|DICT|INTERRES
    75   37  116 1    
    76   38   39 2    
    77   38   40 1    
    78   40   41 1    
    79   40   42 1    
    80   40  117 1    
    81   41  118 1    
    82   41  119 1    
    83   41  120 1    
    84   42   43 am   BACKBONE|DICT|INTERRES
    85   42  121 1    
    86   43   44 2    
    87   43   45 1    
    88   45   46 1    
    89   45   47 1    
    90   45  122 1    
    91   46  123 1    
    92   46  124 1    
    93   46  125 1    
    94   47   48 am   BACKBONE|DICT|INTERRES
    95   47  126 1    
    96   48   49 2    
    97   48   50 1    
    98   50   51 1    
    99   50   52 1    
   100   50  127 1    
   101   51  128 1    
   102   51  129 1    
   103   51  130 1    
   104   52   53 am   BACKBONE|DICT|INTERRES
   105   52  131 1    
   106   53   54 2    
   107   53   55 1    
   108   55   56 1    
   109   55   59 1    
   110   55  132 1    
   111   56   57 1    
   112   56  133 1    
   113   56  134 1    
   114   57   58 1    
   115   58  135 1    
   116   58  136 1    
   117   59   60 am   BACKBONE|DICT|INTERRES
   118   59  137 1    
   119   60   61 2    
   120   60   62 1    
   121   62   63 1    
   122   62   64 1    
   123   62  138 1    
   124   63  139 1    
   125   63  140 1    
   126   63  141 1    
   127   64   65 am   BACKBONE|DICT|INTERRES
   128   64  142 1    
   129   65   66 2    
   130   65   67 1    
   131   67   68 1    
   132   67   69 1    
   133   67  143 1    
   134   68  144 1    
   135   68  145 1    
   136   68  146 1    
   137   69   70 am   BACKBONE|DICT|INTERRES
   138   69  147 1    
   139   70   71 2    
   140   70   72 1    
   141   72   73 1    
   142   72   74 1    
   143   72  148 1    
   144   73  149 1    
   145   73  150 1    
   146   73  151 1    
   147   74   75 am   BACKBONE|DICT|INTERRES
   148   74  152 1    
   149   75   76 2    
   150   75   77 1    
   151   77   78 1    
   152   77   79 1    
   153   77  153 1    
   154   78  154 1    
   155   78  155 1    
   156   78  156 1    
   157   79   80 am   BACKBONE|DICT|INTERRES
   158   79  157 1    
   159   80   81 2    
@<TRIPOS>SUBSTRUCTURE
     1 UNK         1 GROUP             0       ****    0 ROOT    
