@<TRIPOS>MOLECULE
3R207
157   159    1
SMALL
USER_CHARGES


@<TRIPOS>ATOM
      1 CA        -50.7890  -31.5551    9.3219 C.3       0 UNK        -0.1975 
      2 C         -49.5449  -30.9071    8.7339 C.2       0 UNK         0.4852 
      3 O         -48.4824  -31.5302    8.6987 O.2       0 UNK        -0.5216 
      4 N         -49.6630  -29.6533    8.2791 N.am      1 UNK        -0.4461 
      5 CA        -48.5828  -28.8382    7.7170 C.3       1 UNK         0.0864 
      6 C6        -49.1357  -27.7480    6.7575 C.3       14 UNK        -0.0898 
      7 S7        -50.3235  -26.5876    7.5212 S.3       14 UNK        -0.2598 
      8 C8        -51.9120  -27.1838    6.8688 C.3       14 UNK         0.0286 
      9 C9        -53.0434  -26.4909    7.6046 C.ar      14 UNK        -0.0844 
     10 C10       -53.4515  -25.2160    7.2105 C.ar      14 UNK        -0.0881 
     11 C11       -54.3982  -24.5126    7.9595 C.ar      14 UNK        -0.0643 
     12 C12       -54.9851  -25.1242    9.0727 C.ar      14 UNK        -0.0930 
     13 C13       -54.6148  -26.4185    9.4559 C.ar      14 UNK        -0.0827 
     14 C14       -53.6332  -27.0909    8.7197 C.ar      14 UNK        -0.1249 
     15 C15       -55.2354  -27.0464   10.7010 C.3       14 UNK         0.0141 
     16 S16       -55.9094  -28.7162   10.4273 S.3       14 UNK        -0.2313 
     17 C17       -54.4873  -29.7762   10.8677 C.3       14 UNK        -0.0915 
     18 CA        -54.7478  -30.6251   12.1417 C.3       13 UNK         0.0968 
     19 C         -53.6903  -31.7548   12.3209 C.2       13 UNK         0.5732 
     20 N         -53.1660  -32.0103   13.5141 N.am      13 UNK        -0.7310 
     21 O         -53.3476  -32.4357   11.3578 O.2       13 UNK        -0.5035 
     22 N         -54.8953  -29.7807   13.3392 N.am      13 UNK        -0.4233 
     23 C         -55.8450  -29.9379   14.2699 C.2       13 UNK         0.4989 
     24 O         -56.7673  -30.7505   14.1753 O.2       13 UNK        -0.4996 
     25 CA        -55.7375  -29.0467   15.5267 C.3       12 UNK         0.0216 
     26 CB        -56.6447  -29.5252   16.6801 C.3       12 UNK        -0.1964 
     27 N         -54.3613  -28.8652   16.0077 N.am      12 UNK        -0.4276 
     28 C         -53.4725  -29.8211   16.3276 C.2       12 UNK         0.5020 
     29 O         -53.7200  -31.0258   16.2627 O.2       12 UNK        -0.5489 
     30 CA        -52.0561  -29.3792   16.7468 C.3       11 UNK         0.0294 
     31 CB        -50.9865  -30.1177   15.9208 C.3       11 UNK        -0.2019 
     32 N         -51.8582  -27.9400   16.5752 N.am      11 UNK        -0.4493 
     33 C         -51.9176  -27.0193   17.5469 C.2       11 UNK         0.4932 
     34 O         -52.0674  -27.2876   18.7387 O.2       11 UNK        -0.5029 
     35 CA        -51.8218  -25.5428   17.1127 C.3       10 UNK         0.0280 
     36 CB        -50.3922  -25.0165   17.3131 C.3       10 UNK        -0.1976 
     37 N         -52.2334  -25.3237   15.7207 N.am      10 UNK        -0.4242 
     38 C         -53.4892  -25.4890   15.2717 C.2       10 UNK         0.5072 
     39 O         -54.4386  -25.7730   16.0017 O.2       10 UNK        -0.5224 
     40 CA        -53.7199  -25.4252   13.7517 C.3       9 UNK         0.0343 
     41 CB        -54.1596  -24.0185   13.3221 C.3       9 UNK        -0.2003 
     42 N         -52.5439  -25.8443   12.9809 N.am      9 UNK        -0.4272 
     43 C         -52.0291  -27.0848   13.0167 C.2       9 UNK         0.4988 
     44 O         -52.5982  -28.0233   13.5746 O.2       9 UNK        -0.5108 
     45 CA        -50.6447  -27.3394   12.3885 C.3       8 UNK         0.0248 
     46 CB        -50.7447  -28.3133   11.2093 C.3       8 UNK        -0.2001 
     47 N         -49.9256  -26.1361   11.9649 N.am      8 UNK        -0.4140 
     48 C         -49.4972  -25.1667   12.7858 C.2       8 UNK         0.5028 
     49 O         -49.6339  -25.1982   14.0096 O.2       8 UNK        -0.5428 
     50 CA        -48.8827  -23.9218   12.1227 C.3       7 UNK         0.0264 
     51 CB        -47.3655  -24.1045   11.9738 C.3       7 UNK        -0.1988 
     52 N         -49.4805  -23.5778   10.8212 N.am      7 UNK        -0.4454 
     53 C         -50.7892  -23.3273   10.6295 C.2       7 UNK         0.5027 
     54 O         -51.6064  -23.3555   11.5501 O.2       7 UNK        -0.5083 
     55 CA        -51.2973  -23.0626    9.1930 C.3       6 UNK         0.0844 
     56 C56       -52.5707  -22.1638    9.1671 C.3       14 UNK        -0.0967 
     57 S57       -53.2915  -21.9898    7.4958 S.3       14 UNK        -0.2604 
     58 C58       -54.7562  -23.0788    7.5879 C.3       14 UNK         0.0134 
     59 N         -50.2398  -22.6400    8.2681 N.am      6 UNK        -0.4116 
     60 C         -49.5883  -21.4687    8.2706 C.2       5 UNK         0.5034 
     61 O         -49.8106  -20.5579    9.0704 O.2       5 UNK        -0.5045 
     62 CA        -48.4850  -21.3088    7.2004 C.3       5 UNK         0.0224 
     63 CB        -47.5126  -20.1521    7.5175 C.3       5 UNK        -0.1978 
     64 N         -47.7335  -22.5488    6.9363 N.am      5 UNK        -0.4737 
     65 C         -47.0689  -23.2856    7.8395 C.2       4 UNK         0.5027 
     66 O         -47.0490  -23.0207    9.0418 O.2       4 UNK        -0.5211 
     67 CA        -46.3811  -24.5604    7.3190 C.3       4 UNK         0.0297 
     68 CB        -45.5579  -24.3313    6.0319 C.3       4 UNK        -0.1993 
     69 N         -45.5987  -25.2293    8.3669 N.am      4 UNK        -0.4486 
     70 C         -44.4239  -24.8542    8.8991 C.2       3 UNK         0.4961 
     71 O         -43.7523  -23.9096    8.4814 O.2       3 UNK        -0.5105 
     72 CA        -43.8894  -25.6530   10.1095 C.3       3 UNK         0.0299 
     73 CB        -43.6143  -24.7228   11.3045 C.3       3 UNK        -0.1972 
     74 N         -44.7791  -26.7324   10.5492 N.am      3 UNK        -0.4305 
     75 C         -44.8314  -27.9583   10.0123 C.2       2 UNK         0.5006 
     76 O         -44.0866  -28.3427    9.1094 O.2       2 UNK        -0.5106 
     77 CA        -45.9238  -28.9145   10.5359 C.3       2 UNK         0.0296 
     78 CB        -46.6234  -28.4403   11.8335 C.3       2 UNK        -0.2002 
     79 N         -46.9158  -29.1950    9.4911 N.am      2 UNK        -0.4032 
     80 C         -47.6537  -28.2923    8.8285 C.2       1 UNK         0.5000 
     81 O         -47.6274  -27.0875    9.0884 O.2       1 UNK        -0.5238 
     82 H82       -51.0236  -32.4747    8.7866 H         1 UNK         0.0889 
     83 H83       -51.6588  -30.9008    9.2655 H         1 UNK         0.0889 
     84 H84       -50.6230  -31.8052   10.3695 H         1 UNK         0.0889 
     85 H85       -50.5483  -29.1769    8.3605 H         1 UNK         0.3028 
     86 H86       -47.9590  -29.4924    7.1035 H         1 UNK         0.0864 
     87 H87       -48.3136  -27.1688    6.3357 H         1 UNK         0.0720 
     88 H88       -49.6129  -28.2273    5.9014 H         1 UNK         0.0720 
     89 H89       -51.9883  -28.2656    6.9850 H         1 UNK         0.0814 
     90 H90       -51.9706  -26.9787    5.7987 H         1 UNK         0.0814 
     91 H91       -52.9836  -24.7423    6.3582 H         1 UNK         0.1469 
     92 H92       -55.7182  -24.5821    9.6542 H         1 UNK         0.1381 
     93 H93       -53.3119  -28.0761    9.0207 H         1 UNK         0.1206 
     94 H94       -54.4865  -27.0884   11.4859 H         1 UNK         0.0813 
     95 H95       -56.0415  -26.4181   11.0826 H         1 UNK         0.0813 
     96 H96       -54.2992  -30.4162   10.0040 H         1 UNK         0.0638 
     97 H97       -53.5896  -29.1737   10.9998 H         1 UNK         0.0638 
     98 H98       -55.6817  -31.1621   11.9681 H         1 UNK         0.0568 
     99 H99       -53.4736  -31.5212   14.3473 H         1 UNK         0.3450 
    100 H100      -52.4933  -32.7547   13.5958 H         1 UNK         0.3450 
    101 H101      -54.1369  -29.1247   13.5087 H         1 UNK         0.2987 
    102 H102      -56.0853  -28.0584   15.2224 H         1 UNK         0.0766 
    103 H103      -57.6910  -29.5512   16.3732 H         1 UNK         0.0798 
    104 H104      -56.5781  -28.8577   17.5392 H         1 UNK         0.0798 
    105 H105      -56.3770  -30.5286   17.0133 H         1 UNK         0.0798 
    106 H106      -54.0654  -27.9000   16.0905 H         1 UNK         0.3198 
    107 H107      -51.9291  -29.6543   17.7959 H         1 UNK         0.0843 
    108 H108      -51.1027  -29.9357   14.8516 H         1 UNK         0.0831 
    109 H109      -51.0474  -31.1959   16.0742 H         1 UNK         0.0831 
    110 H110      -49.9809  -29.8094   16.2067 H         1 UNK         0.0831 
    111 H111      -51.7626  -27.6267   15.6180 H         1 UNK         0.3133 
    112 H112      -52.4903  -24.9657   17.7550 H         1 UNK         0.0566 
    113 H113      -50.3145  -23.9625   17.0460 H         1 UNK         0.0814 
    114 H114      -49.6703  -25.5690   16.7103 H         1 UNK         0.0814 
    115 H115      -50.0846  -25.1102   18.3555 H         1 UNK         0.0814 
    116 H116      -51.4922  -25.1233   15.0560 H         1 UNK         0.3091 
    117 H117      -54.5360  -26.1142   13.5289 H         1 UNK         0.0702 
    118 H118      -54.3571  -23.9745   12.2507 H         1 UNK         0.0785 
    119 H119      -53.4008  -23.2703   13.5546 H         1 UNK         0.0785 
    120 H120      -55.0762  -23.7231   13.8344 H         1 UNK         0.0785 
    121 H121      -52.0442  -25.1088   12.4905 H         1 UNK         0.2998 
    122 H122      -50.0425  -27.8189   13.1630 H         1 UNK         0.0697 
    123 H123      -51.2823  -27.8752   10.3687 H         1 UNK         0.0825 
    124 H124      -51.2585  -29.2311   11.4978 H         1 UNK         0.0825 
    125 H125      -49.7515  -28.6004   10.8687 H         1 UNK         0.0825 
    126 H126      -49.7685  -26.0230   10.9729 H         1 UNK         0.3029 
    127 H127      -49.0610  -23.0807   12.7959 H         1 UNK         0.0897 
    128 H128      -47.1245  -24.8507   11.2158 H         1 UNK         0.0792 
    129 H129      -46.9111  -24.4254   12.9123 H         1 UNK         0.0792 
    130 H130      -46.8839  -23.1691   11.6891 H         1 UNK         0.0792 
    131 H131      -48.8369  -23.4913   10.0409 H         1 UNK         0.3086 
    132 H132      -51.5964  -24.0484    8.8399 H         1 UNK         0.0583 
    133 H133      -53.3380  -22.5636    9.8328 H         1 UNK         0.1020 
    134 H134      -52.3438  -21.1677    9.5496 H         1 UNK         0.1020 
    135 H135      -55.4633  -22.6558    8.3032 H         1 UNK         0.0694 
    136 H136      -55.2584  -23.0788    6.6197 H         1 UNK         0.0694 
    137 H137      -49.9741  -23.3242    7.5746 H         1 UNK         0.2989 
    138 H138      -49.0050  -21.0561    6.2747 H         1 UNK         0.1055 
    139 H139      -46.9917  -20.3108    8.4625 H         1 UNK         0.0806 
    140 H140      -48.0431  -19.2021    7.5938 H         1 UNK         0.0806 
    141 H141      -46.7614  -20.0392    6.7358 H         1 UNK         0.0806 
    142 H142      -47.7237  -22.8562    5.9731 H         1 UNK         0.3061 
    143 H143      -47.1859  -25.2535    7.0754 H         1 UNK         0.0734 
    144 H144      -44.8490  -23.5100    6.1421 H         1 UNK         0.0832 
    145 H145      -44.9957  -25.2238    5.7575 H         1 UNK         0.0832 
    146 H146      -46.2019  -24.0903    5.1860 H         1 UNK         0.0832 
    147 H147      -46.1053  -25.9848    8.8219 H         1 UNK         0.3156 
    148 H148      -42.9362  -26.0899    9.8043 H         1 UNK         0.0589 
    149 H149      -44.5167  -24.2076   11.6328 H         1 UNK         0.0808 
    150 H150      -43.2115  -25.2739   12.1545 H         1 UNK         0.0808 
    151 H151      -42.8825  -23.9570   11.0439 H         1 UNK         0.0808 
    152 H152      -45.4476  -26.5025   11.2693 H         1 UNK         0.3098 
    153 H153      -45.4247  -29.8595   10.7555 H         1 UNK         0.0720 
    154 H154      -47.3239  -29.1947   12.1922 H         1 UNK         0.0791 
    155 H155      -47.1882  -27.5180   11.6949 H         1 UNK         0.0791 
    156 H156      -45.9012  -28.2739   12.6338 H         1 UNK         0.0791 
    157 H157      -47.0387  -30.1700    9.2357 H         1 UNK         0.3028 
@<TRIPOS>BOND
     1    1    2 1    
     2    1   82 1    
     3    1   83 1    
     4    1   84 1    
     5    2    3 2    
     6    2    4 am   BACKBONE|DICT|INTERRES
     7    4    5 1    
     8    4   85 1    
     9    5    6 1    
    10    5   80 1    
    11    5   86 1    
    12    6    7 1    
    13    6   87 1    
    14    6   88 1    
    15    7    8 1    
    16    8    9 1    
    17    8   89 1    
    18    8   90 1    
    19    9   10 ar   
    20    9   14 ar   
    21   10   11 ar   
    22   10   91 1    
    23   11   12 ar   
    24   11   58 1    
    25   12   13 ar   
    26   12   92 1    
    27   13   14 ar   
    28   13   15 1    
    29   14   93 1    
    30   15   16 1    
    31   15   94 1    
    32   15   95 1    
    33   16   17 1    
    34   17   18 1    
    35   17   96 1    
    36   17   97 1    
    37   18   19 1    
    38   18   22 1    
    39   18   98 1    
    40   19   20 am   BACKBONE|DICT|INTERRES
    41   19   21 2    
    42   20   99 1    
    43   20  100 1    
    44   22   23 am   BACKBONE|DICT|INTERRES
    45   22  101 1    
    46   23   24 2    
    47   23   25 1    
    48   25   26 1    
    49   25   27 1    
    50   25  102 1    
    51   26  103 1    
    52   26  104 1    
    53   26  105 1    
    54   27   28 am   BACKBONE|DICT|INTERRES
    55   27  106 1    
    56   28   29 2    
    57   28   30 1    
    58   30   31 1    
    59   30   32 1    
    60   30  107 1    
    61   31  108 1    
    62   31  109 1    
    63   31  110 1    
    64   32   33 am   BACKBONE|DICT|INTERRES
    65   32  111 1    
    66   33   34 2    
    67   33   35 1    
    68   35   36 1    
    69   35   37 1    
    70   35  112 1    
    71   36  113 1    
    72   36  114 1    
    73   36  115 1    
    74   37   38 am   BACKBONE|DICT|INTERRES
    75   37  116 1    
    76   38   39 2    
    77   38   40 1    
    78   40   41 1    
    79   40   42 1    
    80   40  117 1    
    81   41  118 1    
    82   41  119 1    
    83   41  120 1    
    84   42   43 am   BACKBONE|DICT|INTERRES
    85   42  121 1    
    86   43   44 2    
    87   43   45 1    
    88   45   46 1    
    89   45   47 1    
    90   45  122 1    
    91   46  123 1    
    92   46  124 1    
    93   46  125 1    
    94   47   48 am   BACKBONE|DICT|INTERRES
    95   47  126 1    
    96   48   49 2    
    97   48   50 1    
    98   50   51 1    
    99   50   52 1    
   100   50  127 1    
   101   51  128 1    
   102   51  129 1    
   103   51  130 1    
   104   52   53 am   BACKBONE|DICT|INTERRES
   105   52  131 1    
   106   53   54 2    
   107   53   55 1    
   108   55   56 1    
   109   55   59 1    
   110   55  132 1    
   111   56   57 1    
   112   56  133 1    
   113   56  134 1    
   114   57   58 1    
   115   58  135 1    
   116   58  136 1    
   117   59   60 am   BACKBONE|DICT|INTERRES
   118   59  137 1    
   119   60   61 2    
   120   60   62 1    
   121   62   63 1    
   122   62   64 1    
   123   62  138 1    
   124   63  139 1    
   125   63  140 1    
   126   63  141 1    
   127   64   65 am   BACKBONE|DICT|INTERRES
   128   64  142 1    
   129   65   66 2    
   130   65   67 1    
   131   67   68 1    
   132   67   69 1    
   133   67  143 1    
   134   68  144 1    
   135   68  145 1    
   136   68  146 1    
   137   69   70 am   BACKBONE|DICT|INTERRES
   138   69  147 1    
   139   70   71 2    
   140   70   72 1    
   141   72   73 1    
   142   72   74 1    
   143   72  148 1    
   144   73  149 1    
   145   73  150 1    
   146   73  151 1    
   147   74   75 am   BACKBONE|DICT|INTERRES
   148   74  152 1    
   149   75   76 2    
   150   75   77 1    
   151   77   78 1    
   152   77   79 1    
   153   77  153 1    
   154   78  154 1    
   155   78  155 1    
   156   78  156 1    
   157   79   80 am   BACKBONE|DICT|INTERRES
   158   79  157 1    
   159   80   81 2    
@<TRIPOS>SUBSTRUCTURE
     1 UNK         1 GROUP             0       ****    0 ROOT    
