@<TRIPOS>MOLECULE
3R207
157   159    1
SMALL
USER_CHARGES


@<TRIPOS>ATOM
      1 CA        -51.6342  -31.1507    5.8998 C.3       0 UNK        -0.1975 
      2 C         -50.3727  -31.4753    5.1049 C.2       0 UNK         0.4852 
      3 O         -50.4294  -32.3104    4.2032 O.2       0 UNK        -0.5216 
      4 N         -49.2203  -30.8538    5.3847 N.am      1 UNK        -0.4461 
      5 CA        -48.9864  -29.7878    6.3634 C.3       1 UNK         0.0864 
      6 C6        -48.1519  -30.2730    7.5793 C.3       14 UNK        -0.0898 
      7 S7        -49.0374  -31.4505    8.6505 S.3       14 UNK        -0.2598 
      8 C8        -49.7612  -30.3541    9.9164 C.3       14 UNK         0.0286 
      9 C9        -51.1203  -29.8191    9.4888 C.ar      14 UNK        -0.0844 
     10 C10       -51.2657  -28.5196    8.9867 C.ar      14 UNK        -0.0881 
     11 C11       -52.5196  -28.0646    8.5615 C.ar      14 UNK        -0.0643 
     12 C12       -53.6271  -28.9116    8.6540 C.ar      14 UNK        -0.0930 
     13 C13       -53.4999  -30.1962    9.1866 C.ar      14 UNK        -0.0827 
     14 C14       -52.2441  -30.6429    9.6025 C.ar      14 UNK        -0.1249 
     15 C15       -54.7109  -31.1112    9.2945 C.3       14 UNK         0.0141 
     16 S16       -55.5919  -30.8888   10.8733 S.3       14 UNK        -0.2313 
     17 C17       -56.4888  -29.3242   10.5857 C.3       14 UNK        -0.0915 
     18 CA        -55.8652  -28.1145   11.3450 C.3       13 UNK         0.0968 
     19 C         -56.4867  -26.7471   10.9242 C.2       13 UNK         0.5732 
     20 N         -56.6193  -25.7691   11.8148 N.am      13 UNK        -0.7310 
     21 O         -56.8375  -26.5544    9.7623 O.2       13 UNK        -0.5035 
     22 N         -55.7845  -28.3143   12.8002 N.am      13 UNK        -0.4233 
     23 C         -56.8171  -28.4806   13.6405 C.2       13 UNK         0.4989 
     24 O         -57.9909  -28.5898   13.2843 O.2       13 UNK        -0.4996 
     25 CA        -56.5001  -28.4972   15.1489 C.3       12 UNK         0.0216 
     26 CB        -56.3962  -29.9442   15.6580 C.3       12 UNK        -0.1964 
     27 N         -55.2783  -27.7708   15.5083 N.am      12 UNK        -0.4276 
     28 C         -55.0540  -26.4673   15.2855 C.2       12 UNK         0.5020 
     29 O         -55.8934  -25.6984   14.8145 O.2       12 UNK        -0.5489 
     30 CA        -53.6396  -25.9444   15.5949 C.3       11 UNK         0.0294 
     31 CB        -53.5971  -25.3490   17.0108 C.3       11 UNK        -0.2019 
     32 N         -52.5699  -26.9433   15.4569 N.am      11 UNK        -0.4493 
     33 C         -52.2965  -27.6584   14.3538 C.2       11 UNK         0.4932 
     34 O         -52.9768  -27.6204   13.3281 O.2       11 UNK        -0.5029 
     35 CA        -51.0567  -28.5640   14.4238 C.3       10 UNK         0.0280 
     36 CB        -50.7203  -29.2030   13.0645 C.3       10 UNK        -0.1976 
     37 N         -49.9125  -27.7731   14.8658 N.am      10 UNK        -0.4242 
     38 C         -49.3234  -27.8241   16.0663 C.2       10 UNK         0.5072 
     39 O         -49.6407  -28.6082   16.9607 O.2       10 UNK        -0.5224 
     40 CA        -48.2242  -26.7787   16.3193 C.3       9 UNK         0.0343 
     41 CB        -46.9007  -27.2034   15.6617 C.3       9 UNK        -0.2003 
     42 N         -48.6297  -25.4636   15.8143 N.am      9 UNK        -0.4272 
     43 C         -49.4952  -24.6562   16.4426 C.2       9 UNK         0.4988 
     44 O         -49.9281  -24.8760   17.5744 O.2       9 UNK        -0.5108 
     45 CA        -49.9578  -23.4075   15.6757 C.3       8 UNK         0.0248 
     46 CB        -50.6505  -22.3638   16.5768 C.3       8 UNK        -0.2001 
     47 N         -48.8321  -22.7881   14.9734 N.am      8 UNK        -0.4140 
     48 C         -48.8456  -22.1084   13.8181 C.2       8 UNK         0.5028 
     49 O         -47.8142  -21.6215   13.3575 O.2       8 UNK        -0.5428 
     50 CA        -50.1544  -21.9549   13.0191 C.3       7 UNK         0.0264 
     51 CB        -50.2354  -20.5894   12.3117 C.3       7 UNK        -0.1988 
     52 N         -50.1726  -23.0067   12.0089 N.am      7 UNK        -0.4454 
     53 C         -51.0199  -24.0437   11.9807 C.2       7 UNK         0.5027 
     54 O         -51.9676  -24.1756   12.7549 O.2       7 UNK        -0.5083 
     55 CA        -50.7384  -25.1345   10.9242 C.3       6 UNK         0.0844 
     56 C56       -51.3349  -24.7469    9.5448 C.3       14 UNK        -0.0967 
     57 S57       -53.0041  -25.4237    9.2691 S.3       14 UNK        -0.2604 
     58 C58       -52.6959  -26.6716    7.9759 C.3       14 UNK         0.0134 
     59 N         -49.3134  -25.4660   10.8108 N.am      6 UNK        -0.4116 
     60 C         -48.5138  -25.8882   11.8007 C.2       5 UNK         0.5034 
     61 O         -48.8742  -26.0319   12.9679 O.2       5 UNK        -0.5045 
     62 CA        -47.0563  -26.1861   11.4269 C.3       5 UNK         0.0224 
     63 CB        -46.9372  -27.5492   10.7277 C.3       5 UNK        -0.1978 
     64 N         -46.5249  -25.1344   10.5606 N.am      5 UNK        -0.4737 
     65 C         -45.8889  -24.0448   11.0120 C.2       4 UNK         0.5027 
     66 O         -45.5525  -23.8904   12.1857 O.2       4 UNK        -0.5211 
     67 CA        -45.5645  -22.9387    9.9897 C.3       4 UNK         0.0297 
     68 CB        -44.1008  -23.0463    9.5318 C.3       4 UNK        -0.1993 
     69 N         -46.4368  -22.9393    8.8109 N.am      4 UNK        -0.4486 
     70 C         -47.7500  -22.6702    8.8243 C.2       3 UNK         0.4961 
     71 O         -48.3859  -22.3843    9.8376 O.2       3 UNK        -0.5105 
     72 CA        -48.4944  -22.8039    7.4841 C.3       3 UNK         0.0299 
     73 CB        -48.4114  -21.4906    6.6905 C.3       3 UNK        -0.1972 
     74 N         -48.0340  -23.9191    6.6451 N.am      3 UNK        -0.4305 
     75 C         -48.0062  -25.2028    7.0257 C.2       2 UNK         0.5006 
     76 O         -48.2904  -25.5899    8.1646 O.2       2 UNK        -0.5106 
     77 CA        -47.5652  -26.2321    5.9827 C.3       2 UNK         0.0296 
     78 CB        -46.0296  -26.3525    5.9582 C.3       2 UNK        -0.2002 
     79 N         -48.1746  -27.4952    6.3778 N.am      2 UNK        -0.4032 
     80 C         -48.2753  -28.6164    5.6590 C.2       1 UNK         0.5000 
     81 O         -47.8314  -28.7452    4.5138 O.2       1 UNK        -0.5238 
     82 H82       -51.9373  -30.1149    5.7501 H         1 UNK         0.0889 
     83 H83       -51.4750  -31.3211    6.9626 H         1 UNK         0.0889 
     84 H84       -52.4610  -31.7872    5.5859 H         1 UNK         0.0889 
     85 H85       -48.4225  -31.0351    4.7906 H         1 UNK         0.3028 
     86 H86       -49.9338  -29.3873    6.7214 H         1 UNK         0.0864 
     87 H87       -47.8201  -29.4405    8.2008 H         1 UNK         0.0720 
     88 H88       -47.2373  -30.7596    7.2350 H         1 UNK         0.0720 
     89 H89       -49.0792  -29.5401   10.1593 H         1 UNK         0.0814 
     90 H90       -49.8782  -30.9298   10.8353 H         1 UNK         0.0814 
     91 H91       -50.4076  -27.8664    8.9171 H         1 UNK         0.1469 
     92 H92       -54.5938  -28.5624    8.3192 H         1 UNK         0.1381 
     93 H93       -52.1363  -31.6422   10.0021 H         1 UNK         0.1206 
     94 H94       -54.3924  -32.1519    9.2189 H         1 UNK         0.0813 
     95 H95       -55.3921  -30.9464    8.4584 H         1 UNK         0.0813 
     96 H96       -56.5205  -29.1334    9.5128 H         1 UNK         0.0638 
     97 H97       -57.5284  -29.4697   10.8802 H         1 UNK         0.0638 
     98 H98       -54.8260  -28.0361   11.0258 H         1 UNK         0.0568 
     99 H99       -56.3333  -25.8928   12.7790 H         1 UNK         0.3450 
    100 H100      -57.0129  -24.8906   11.5193 H         1 UNK         0.3450 
    101 H101      -54.8524  -28.1918   13.1839 H         1 UNK         0.2987 
    102 H102      -57.3328  -28.0104   15.6609 H         1 UNK         0.0766 
    103 H103      -57.3057  -30.5029   15.4319 H         1 UNK         0.0798 
    104 H104      -56.2587  -29.9780   16.7389 H         1 UNK         0.0798 
    105 H105      -55.5646  -30.4764   15.1941 H         1 UNK         0.0798 
    106 H106      -54.5233  -28.3158   15.8982 H         1 UNK         0.3198 
    107 H107      -53.4278  -25.1473   14.8790 H         1 UNK         0.0843 
    108 H108      -53.7965  -26.1034   17.7729 H         1 UNK         0.0831 
    109 H109      -54.3454  -24.5635   17.1260 H         1 UNK         0.0831 
    110 H110      -52.6279  -24.9034   17.2285 H         1 UNK         0.0831 
    111 H111      -51.9563  -27.0559   16.2519 H         1 UNK         0.3133 
    112 H112      -51.2711  -29.3640   15.1349 H         1 UNK         0.0566 
    113 H113      -49.8346  -29.8343   13.1340 H         1 UNK         0.0814 
    114 H114      -51.5407  -29.8295   12.7113 H         1 UNK         0.0814 
    115 H115      -50.5359  -28.4478   12.2991 H         1 UNK         0.0814 
    116 H116      -49.5780  -27.0769   14.1993 H         1 UNK         0.3091 
    117 H117      -48.0604  -26.7104   17.3971 H         1 UNK         0.0702 
    118 H118      -46.1114  -26.4768   15.8551 H         1 UNK         0.0785 
    119 H119      -46.9978  -27.3131   14.5814 H         1 UNK         0.0785 
    120 H120      -46.5621  -28.1624   16.0563 H         1 UNK         0.0785 
    121 H121      -48.3845  -25.2556   14.8528 H         1 UNK         0.2998 
    122 H122      -50.6852  -23.7863   14.9598 H         1 UNK         0.0697 
    123 H123      -49.9776  -22.0005   17.3544 H         1 UNK         0.0825 
    124 H124      -51.5233  -22.7870   17.0744 H         1 UNK         0.0825 
    125 H125      -50.9964  -21.5005   16.0093 H         1 UNK         0.0825 
    126 H126      -47.9416  -22.8886   15.4412 H         1 UNK         0.3029 
    127 H127      -51.0194  -22.0199   13.6787 H         1 UNK         0.0897 
    128 H128      -51.1749  -20.4828   11.7693 H         1 UNK         0.0792 
    129 H129      -49.4232  -20.4494   11.5968 H         1 UNK         0.0792 
    130 H130      -50.1814  -19.7735   13.0334 H         1 UNK         0.0792 
    131 H131      -49.4228  -22.9587   11.3208 H         1 UNK         0.3086 
    132 H132      -51.2212  -26.0501   11.2744 H         1 UNK         0.0583 
    133 H133      -51.3723  -23.6641    9.4062 H         1 UNK         0.1020 
    134 H134      -50.6954  -25.0974    8.7381 H         1 UNK         0.1020 
    135 H135      -53.5485  -26.6672    7.2950 H         1 UNK         0.0694 
    136 H136      -51.8350  -26.4052    7.3618 H         1 UNK         0.0694 
    137 H137      -48.9158  -25.3991    9.8781 H         1 UNK         0.2989 
    138 H138      -46.4771  -26.2334   12.3519 H         1 UNK         0.1055 
    139 H139      -47.5080  -27.5842    9.8003 H         1 UNK         0.0806 
    140 H140      -47.3042  -28.3484   11.3730 H         1 UNK         0.0806 
    141 H141      -45.8990  -27.7798   10.4882 H         1 UNK         0.0806 
    142 H142      -46.7853  -25.1736    9.5828 H         1 UNK         0.3061 
    143 H143      -45.6962  -21.9816   10.4995 H         1 UNK         0.0734 
    144 H144      -43.8264  -22.2192    8.8768 H         1 UNK         0.0832 
    145 H145      -43.4226  -23.0182   10.3859 H         1 UNK         0.0832 
    146 H146      -43.9119  -23.9782    8.9974 H         1 UNK         0.0832 
    147 H147      -46.0087  -23.1733    7.9270 H         1 UNK         0.3156 
    148 H148      -49.5450  -22.9886    7.7156 H         1 UNK         0.0589 
    149 H149      -49.0293  -21.5284    5.7932 H         1 UNK         0.0808 
    150 H150      -48.7663  -20.6502    7.2892 H         1 UNK         0.0808 
    151 H151      -47.3888  -21.2645    6.3860 H         1 UNK         0.0808 
    152 H152      -47.7705  -23.6902    5.6968 H         1 UNK         0.3098 
    153 H153      -47.9415  -25.9408    5.0000 H         1 UNK         0.0720 
    154 H154      -45.6979  -27.0857    5.2230 H         1 UNK         0.0791 
    155 H155      -45.6339  -26.6527    6.9296 H         1 UNK         0.0791 
    156 H156      -45.5643  -25.4021    5.6940 H         1 UNK         0.0791 
    157 H157      -48.5693  -27.4513    7.3088 H         1 UNK         0.3028 
@<TRIPOS>BOND
     1    1    2 1    
     2    1   82 1    
     3    1   83 1    
     4    1   84 1    
     5    2    3 2    
     6    2    4 am   BACKBONE|DICT|INTERRES
     7    4    5 1    
     8    4   85 1    
     9    5    6 1    
    10    5   80 1    
    11    5   86 1    
    12    6    7 1    
    13    6   87 1    
    14    6   88 1    
    15    7    8 1    
    16    8    9 1    
    17    8   89 1    
    18    8   90 1    
    19    9   10 ar   
    20    9   14 ar   
    21   10   11 ar   
    22   10   91 1    
    23   11   12 ar   
    24   11   58 1    
    25   12   13 ar   
    26   12   92 1    
    27   13   14 ar   
    28   13   15 1    
    29   14   93 1    
    30   15   16 1    
    31   15   94 1    
    32   15   95 1    
    33   16   17 1    
    34   17   18 1    
    35   17   96 1    
    36   17   97 1    
    37   18   19 1    
    38   18   22 1    
    39   18   98 1    
    40   19   20 am   BACKBONE|DICT|INTERRES
    41   19   21 2    
    42   20   99 1    
    43   20  100 1    
    44   22   23 am   BACKBONE|DICT|INTERRES
    45   22  101 1    
    46   23   24 2    
    47   23   25 1    
    48   25   26 1    
    49   25   27 1    
    50   25  102 1    
    51   26  103 1    
    52   26  104 1    
    53   26  105 1    
    54   27   28 am   BACKBONE|DICT|INTERRES
    55   27  106 1    
    56   28   29 2    
    57   28   30 1    
    58   30   31 1    
    59   30   32 1    
    60   30  107 1    
    61   31  108 1    
    62   31  109 1    
    63   31  110 1    
    64   32   33 am   BACKBONE|DICT|INTERRES
    65   32  111 1    
    66   33   34 2    
    67   33   35 1    
    68   35   36 1    
    69   35   37 1    
    70   35  112 1    
    71   36  113 1    
    72   36  114 1    
    73   36  115 1    
    74   37   38 am   BACKBONE|DICT|INTERRES
    75   37  116 1    
    76   38   39 2    
    77   38   40 1    
    78   40   41 1    
    79   40   42 1    
    80   40  117 1    
    81   41  118 1    
    82   41  119 1    
    83   41  120 1    
    84   42   43 am   BACKBONE|DICT|INTERRES
    85   42  121 1    
    86   43   44 2    
    87   43   45 1    
    88   45   46 1    
    89   45   47 1    
    90   45  122 1    
    91   46  123 1    
    92   46  124 1    
    93   46  125 1    
    94   47   48 am   BACKBONE|DICT|INTERRES
    95   47  126 1    
    96   48   49 2    
    97   48   50 1    
    98   50   51 1    
    99   50   52 1    
   100   50  127 1    
   101   51  128 1    
   102   51  129 1    
   103   51  130 1    
   104   52   53 am   BACKBONE|DICT|INTERRES
   105   52  131 1    
   106   53   54 2    
   107   53   55 1    
   108   55   56 1    
   109   55   59 1    
   110   55  132 1    
   111   56   57 1    
   112   56  133 1    
   113   56  134 1    
   114   57   58 1    
   115   58  135 1    
   116   58  136 1    
   117   59   60 am   BACKBONE|DICT|INTERRES
   118   59  137 1    
   119   60   61 2    
   120   60   62 1    
   121   62   63 1    
   122   62   64 1    
   123   62  138 1    
   124   63  139 1    
   125   63  140 1    
   126   63  141 1    
   127   64   65 am   BACKBONE|DICT|INTERRES
   128   64  142 1    
   129   65   66 2    
   130   65   67 1    
   131   67   68 1    
   132   67   69 1    
   133   67  143 1    
   134   68  144 1    
   135   68  145 1    
   136   68  146 1    
   137   69   70 am   BACKBONE|DICT|INTERRES
   138   69  147 1    
   139   70   71 2    
   140   70   72 1    
   141   72   73 1    
   142   72   74 1    
   143   72  148 1    
   144   73  149 1    
   145   73  150 1    
   146   73  151 1    
   147   74   75 am   BACKBONE|DICT|INTERRES
   148   74  152 1    
   149   75   76 2    
   150   75   77 1    
   151   77   78 1    
   152   77   79 1    
   153   77  153 1    
   154   78  154 1    
   155   78  155 1    
   156   78  156 1    
   157   79   80 am   BACKBONE|DICT|INTERRES
   158   79  157 1    
   159   80   81 2    
@<TRIPOS>SUBSTRUCTURE
     1 UNK         1 GROUP             0       ****    0 ROOT    
