@<TRIPOS>MOLECULE
3R207
157   159    1
SMALL
USER_CHARGES


@<TRIPOS>ATOM
      1 CA        -53.4805  -28.9773    5.3972 C.3       0 UNK        -0.1975 
      2 C         -52.9633  -30.0411    4.4333 C.2       0 UNK         0.4852 
      3 O         -53.6465  -30.3557    3.4599 O.2       0 UNK        -0.5216 
      4 N         -51.7833  -30.6329    4.6608 N.am      1 UNK        -0.4461 
      5 CA        -50.8242  -30.3134    5.7252 C.3       1 UNK         0.0864 
      6 C6        -49.9152  -31.5271    6.0461 C.3       14 UNK        -0.0898 
      7 S7        -50.8700  -32.8878    6.8016 S.3       14 UNK        -0.2598 
      8 C8        -50.3419  -32.8194    8.5489 C.3       14 UNK         0.0286 
      9 C9        -50.4784  -31.4288    9.1588 C.ar      14 UNK        -0.0844 
     10 C10       -49.3519  -30.7712    9.6651 C.ar      14 UNK        -0.0881 
     11 C11       -49.4603  -29.4854   10.2028 C.ar      14 UNK        -0.0643 
     12 C12       -50.7046  -28.8530   10.2167 C.ar      14 UNK        -0.0930 
     13 C13       -51.8409  -29.5053    9.7308 C.ar      14 UNK        -0.0827 
     14 C14       -51.7254  -30.7981    9.2145 C.ar      14 UNK        -0.1249 
     15 C15       -53.1863  -28.8024    9.7659 C.3       14 UNK         0.0141 
     16 S16       -53.1869  -27.3944    8.6224 S.3       14 UNK        -0.2313 
     17 C17       -54.7994  -26.6284    8.9657 C.3       14 UNK        -0.0915 
     18 CA        -54.7380  -25.6206   10.1594 C.3       13 UNK         0.0968 
     19 C         -55.6387  -24.3607    9.9553 C.2       13 UNK         0.5732 
     20 N         -56.2380  -23.7953   10.9968 N.am      13 UNK        -0.7310 
     21 O         -55.7636  -23.8531    8.8435 O.2       13 UNK        -0.5035 
     22 N         -54.8938  -26.2756   11.4730 N.am      13 UNK        -0.4233 
     23 C         -55.9863  -26.9075   11.9211 C.2       13 UNK         0.4989 
     24 O         -56.9910  -27.1085   11.2366 O.2       13 UNK        -0.4996 
     25 CA        -55.9629  -27.3636   13.3943 C.3       12 UNK         0.0216 
     26 CB        -57.2943  -28.0021   13.8365 C.3       12 UNK        -0.1964 
     27 N         -54.8712  -28.2869   13.7193 N.am      12 UNK        -0.4276 
     28 C         -53.5905  -27.9419   13.8878 C.2       12 UNK         0.5020 
     29 O         -53.1358  -26.8244   13.6208 O.2       12 UNK        -0.5489 
     30 CA        -52.6631  -29.0059   14.4822 C.3       11 UNK         0.0294 
     31 CB        -51.9194  -29.7948   13.3959 C.3       11 UNK        -0.2019 
     32 N         -51.7150  -28.2855   15.3160 N.am      11 UNK        -0.4493 
     33 C         -51.1152  -28.7295   16.4241 C.2       11 UNK         0.4932 
     34 O         -51.1835  -29.8919   16.8243 O.2       11 UNK        -0.5029 
     35 CA        -50.3271  -27.6892   17.2439 C.3       10 UNK         0.0280 
     36 CB        -48.8113  -27.8628   17.0528 C.3       10 UNK        -0.1976 
     37 N         -50.7107  -26.3069   16.9269 N.am      10 UNK        -0.4242 
     38 C         -51.8534  -25.7340   17.3381 C.2       10 UNK         0.5072 
     39 O         -52.6716  -26.2945   18.0684 O.2       10 UNK        -0.5224 
     40 CA        -52.1519  -24.3127   16.8469 C.3       9 UNK         0.0343 
     41 CB        -51.3507  -23.2798   17.6573 C.3       9 UNK        -0.2003 
     42 N         -51.8461  -24.1515   15.4250 N.am      9 UNK        -0.4272 
     43 C         -52.6875  -23.6599   14.5020 C.2       9 UNK         0.4988 
     44 O         -53.8703  -23.3968   14.7289 O.2       9 UNK        -0.5108 
     45 CA        -52.1094  -23.3935   13.0899 C.3       8 UNK         0.0248 
     46 CB        -52.8549  -22.2688   12.3427 C.3       8 UNK        -0.2001 
     47 N         -50.6620  -23.1407   13.0798 N.am      8 UNK        -0.4140 
     48 C         -49.9762  -22.2392   13.8028 C.2       8 UNK         0.5028 
     49 O         -50.5067  -21.3346   14.4495 O.2       8 UNK        -0.5428 
     50 CA        -48.4411  -22.4113   13.8625 C.3       7 UNK         0.0264 
     51 CB        -47.8705  -22.0150   15.2403 C.3       7 UNK        -0.1988 
     52 N         -47.9622  -23.7524   13.4921 N.am      7 UNK        -0.4454 
     53 C         -48.3084  -24.9407   14.0221 C.2       7 UNK         0.5027 
     54 O         -49.0920  -25.0568   14.9685 O.2       7 UNK        -0.5083 
     55 CA        -47.7366  -26.2153   13.3589 C.3       6 UNK         0.0844 
     56 C56       -48.8493  -27.2562   13.0670 C.3       14 UNK        -0.0967 
     57 S57       -48.1500  -28.8705   12.5716 S.3       14 UNK        -0.2604 
     58 C58       -48.2327  -28.7778   10.7552 C.3       14 UNK         0.0134 
     59 N         -47.0176  -25.8763   12.1298 N.am      6 UNK        -0.4116 
     60 C         -45.6919  -25.9034   11.9531 C.2       5 UNK         0.5034 
     61 O         -44.8844  -26.2546   12.8135 O.2       5 UNK        -0.5045 
     62 CA        -45.1762  -25.4349   10.5800 C.3       5 UNK         0.0224 
     63 CB        -44.8263  -26.6422    9.6948 C.3       5 UNK        -0.1978 
     64 N         -46.1307  -24.5695    9.8741 N.am      5 UNK        -0.4737 
     65 C         -46.4126  -23.3105   10.2422 C.2       4 UNK         0.5027 
     66 O         -45.8834  -22.7536   11.2034 O.2       4 UNK        -0.5211 
     67 CA        -47.4977  -22.5562    9.4543 C.3       4 UNK         0.0297 
     68 CB        -46.8615  -21.7433    8.3161 C.3       4 UNK        -0.1993 
     69 N         -48.5549  -23.4101    8.9073 N.am      4 UNK        -0.4486 
     70 C         -49.3747  -24.1900    9.6248 C.2       3 UNK         0.4961 
     71 O         -49.3143  -24.3226   10.8474 O.2       3 UNK        -0.5105 
     72 CA        -50.4191  -24.9937    8.8365 C.3       3 UNK         0.0299 
     73 CB        -51.5888  -24.0739    8.4456 C.3       3 UNK        -0.1972 
     74 N         -49.9261  -25.6950    7.6402 N.am      3 UNK        -0.4305 
     75 C         -48.7738  -26.3703    7.5043 C.2       2 UNK         0.5006 
     76 O         -47.8777  -26.3982    8.3470 O.2       2 UNK        -0.5106 
     77 CA        -48.6259  -27.1964    6.2241 C.3       2 UNK         0.0296 
     78 CB        -47.1647  -27.6063    5.9450 C.3       2 UNK        -0.2002 
     79 N         -49.4637  -28.3848    6.3615 N.am      2 UNK        -0.4032 
     80 C         -49.9778  -29.0835    5.3434 C.2       1 UNK         0.5000 
     81 O         -49.7959  -28.8015    4.1554 O.2       1 UNK        -0.5238 
     82 H82       -53.6639  -29.4102    6.3802 H         1 UNK         0.0889 
     83 H83       -52.7740  -28.1546    5.4988 H         1 UNK         0.0889 
     84 H84       -54.4216  -28.5602    5.0395 H         1 UNK         0.0889 
     85 H85       -51.4622  -31.3234    3.9982 H         1 UNK         0.3028 
     86 H86       -51.3776  -30.0555    6.6282 H         1 UNK         0.0864 
     87 H87       -49.4358  -31.9008    5.1394 H         1 UNK         0.0720 
     88 H88       -49.1015  -31.2495    6.7188 H         1 UNK         0.0720 
     89 H89       -49.3117  -33.1728    8.6150 H         1 UNK         0.0814 
     90 H90       -50.9433  -33.5216    9.1276 H         1 UNK         0.0814 
     91 H91       -48.3869  -31.2590    9.6407 H         1 UNK         0.1469 
     92 H92       -50.7970  -27.8549   10.6191 H         1 UNK         0.1381 
     93 H93       -52.5990  -31.3070    8.8302 H         1 UNK         0.1206 
     94 H94       -53.3799  -28.4567   10.7809 H         1 UNK         0.0813 
     95 H95       -53.9962  -29.4847    9.5038 H         1 UNK         0.0813 
     96 H96       -55.5495  -27.4047    9.1153 H         1 UNK         0.0638 
     97 H97       -55.0835  -26.1345    8.0356 H         1 UNK         0.0638 
     98 H98       -53.7346  -25.1959   10.1832 H         1 UNK         0.0568 
     99 H99       -56.8041  -22.9749   10.8499 H         1 UNK         0.3450 
    100 H100      -56.1344  -24.1780   11.9219 H         1 UNK         0.3450 
    101 H101      -54.1122  -26.1956   12.1188 H         1 UNK         0.2987 
    102 H102      -55.8253  -26.4599   13.9928 H         1 UNK         0.0766 
    103 H103      -58.1312  -27.3234   13.6650 H         1 UNK         0.0798 
    104 H104      -57.5032  -28.9222   13.2890 H         1 UNK         0.0798 
    105 H105      -57.2886  -28.2377   14.9010 H         1 UNK         0.0798 
    106 H106      -55.1427  -29.2395   13.9179 H         1 UNK         0.3198 
    107 H107      -53.2499  -29.6884   15.1010 H         1 UNK         0.0843 
    108 H108      -52.6126  -30.2744   12.7039 H         1 UNK         0.0831 
    109 H109      -51.2969  -30.5771   13.8301 H         1 UNK         0.0831 
    110 H110      -51.2691  -29.1427   12.8165 H         1 UNK         0.0831 
    111 H111      -51.6575  -27.3004   15.0871 H         1 UNK         0.3133 
    112 H112      -50.5501  -27.8728   18.2971 H         1 UNK         0.0566 
    113 H113      -48.2517  -27.1724   17.6840 H         1 UNK         0.0814 
    114 H114      -48.4988  -28.8725   17.3226 H         1 UNK         0.0814 
    115 H115      -48.5040  -27.6948   16.0221 H         1 UNK         0.0814 
    116 H116      -50.0765  -25.7864   16.3243 H         1 UNK         0.3091 
    117 H117      -53.2137  -24.1311   17.0258 H         1 UNK         0.0702 
    118 H118      -51.6057  -22.2626   17.3587 H         1 UNK         0.0785 
    119 H119      -50.2756  -23.4051   17.5226 H         1 UNK         0.0785 
    120 H120      -51.5616  -23.3689   18.7239 H         1 UNK         0.0785 
    121 H121      -50.8930  -24.3569   15.1421 H         1 UNK         0.2998 
    122 H122      -52.2559  -24.3174   12.5285 H         1 UNK         0.0697 
    123 H123      -52.7921  -21.3216   12.8793 H         1 UNK         0.0825 
    124 H124      -53.9124  -22.5068   12.2258 H         1 UNK         0.0825 
    125 H125      -52.4460  -22.1159   11.3444 H         1 UNK         0.0825 
    126 H126      -50.1165  -23.7703   12.4964 H         1 UNK         0.3029 
    127 H127      -48.0323  -21.7249   13.1192 H         1 UNK         0.0897 
    128 H128      -46.7856  -22.1169   15.2640 H         1 UNK         0.0792 
    129 H129      -48.1003  -20.9758   15.4791 H         1 UNK         0.0792 
    130 H130      -48.2830  -22.6313   16.0398 H         1 UNK         0.0792 
    131 H131      -47.3156  -23.7648   12.7136 H         1 UNK         0.3086 
    132 H132      -47.0481  -26.6472   14.0878 H         1 UNK         0.0583 
    133 H133      -49.4606  -27.4352   13.9502 H         1 UNK         0.1020 
    134 H134      -49.5377  -26.8874   12.3054 H         1 UNK         0.1020 
    135 H135      -48.2341  -27.7363   10.4406 H         1 UNK         0.0694 
    136 H136      -47.3244  -29.2170   10.3403 H         1 UNK         0.0694 
    137 H137      -47.5943  -25.5474   11.3644 H         1 UNK         0.2989 
    138 H138      -44.2619  -24.8627   10.7541 H         1 UNK         0.1055 
    139 H139      -44.0573  -27.2580   10.1633 H         1 UNK         0.0806 
    140 H140      -44.4427  -26.3271    8.7243 H         1 UNK         0.0806 
    141 H141      -45.6914  -27.2826    9.5212 H         1 UNK         0.0806 
    142 H142      -46.6656  -24.9998    9.1242 H         1 UNK         0.3061 
    143 H143      -47.9728  -21.8586   10.1474 H         1 UNK         0.0734 
    144 H144      -46.0863  -21.0774    8.6984 H         1 UNK         0.0832 
    145 H145      -46.3966  -22.3887    7.5697 H         1 UNK         0.0832 
    146 H146      -47.5994  -21.1199    7.8109 H         1 UNK         0.0832 
    147 H147      -48.6723  -23.4007    7.9046 H         1 UNK         0.3156 
    148 H148      -50.8029  -25.7593    9.5115 H         1 UNK         0.0589 
    149 H149      -51.2769  -23.2980    7.7455 H         1 UNK         0.0808 
    150 H150      -52.4027  -24.6284    7.9798 H         1 UNK         0.0808 
    151 H151      -52.0023  -23.5726    9.3216 H         1 UNK         0.0808 
    152 H152      -50.5855  -25.7553    6.8777 H         1 UNK         0.3098 
    153 H153      -48.9822  -26.5861    5.3912 H         1 UNK         0.0720 
    154 H154      -47.0734  -28.1323    4.9947 H         1 UNK         0.0791 
    155 H155      -46.7721  -28.2581    6.7268 H         1 UNK         0.0791 
    156 H156      -46.5166  -26.7304    5.8938 H         1 UNK         0.0791 
    157 H157      -49.6657  -28.6671    7.3126 H         1 UNK         0.3028 
@<TRIPOS>BOND
     1    1    2 1    
     2    1   82 1    
     3    1   83 1    
     4    1   84 1    
     5    2    3 2    
     6    2    4 am   BACKBONE|DICT|INTERRES
     7    4    5 1    
     8    4   85 1    
     9    5    6 1    
    10    5   80 1    
    11    5   86 1    
    12    6    7 1    
    13    6   87 1    
    14    6   88 1    
    15    7    8 1    
    16    8    9 1    
    17    8   89 1    
    18    8   90 1    
    19    9   10 ar   
    20    9   14 ar   
    21   10   11 ar   
    22   10   91 1    
    23   11   12 ar   
    24   11   58 1    
    25   12   13 ar   
    26   12   92 1    
    27   13   14 ar   
    28   13   15 1    
    29   14   93 1    
    30   15   16 1    
    31   15   94 1    
    32   15   95 1    
    33   16   17 1    
    34   17   18 1    
    35   17   96 1    
    36   17   97 1    
    37   18   19 1    
    38   18   22 1    
    39   18   98 1    
    40   19   20 am   BACKBONE|DICT|INTERRES
    41   19   21 2    
    42   20   99 1    
    43   20  100 1    
    44   22   23 am   BACKBONE|DICT|INTERRES
    45   22  101 1    
    46   23   24 2    
    47   23   25 1    
    48   25   26 1    
    49   25   27 1    
    50   25  102 1    
    51   26  103 1    
    52   26  104 1    
    53   26  105 1    
    54   27   28 am   BACKBONE|DICT|INTERRES
    55   27  106 1    
    56   28   29 2    
    57   28   30 1    
    58   30   31 1    
    59   30   32 1    
    60   30  107 1    
    61   31  108 1    
    62   31  109 1    
    63   31  110 1    
    64   32   33 am   BACKBONE|DICT|INTERRES
    65   32  111 1    
    66   33   34 2    
    67   33   35 1    
    68   35   36 1    
    69   35   37 1    
    70   35  112 1    
    71   36  113 1    
    72   36  114 1    
    73   36  115 1    
    74   37   38 am   BACKBONE|DICT|INTERRES
    75   37  116 1    
    76   38   39 2    
    77   38   40 1    
    78   40   41 1    
    79   40   42 1    
    80   40  117 1    
    81   41  118 1    
    82   41  119 1    
    83   41  120 1    
    84   42   43 am   BACKBONE|DICT|INTERRES
    85   42  121 1    
    86   43   44 2    
    87   43   45 1    
    88   45   46 1    
    89   45   47 1    
    90   45  122 1    
    91   46  123 1    
    92   46  124 1    
    93   46  125 1    
    94   47   48 am   BACKBONE|DICT|INTERRES
    95   47  126 1    
    96   48   49 2    
    97   48   50 1    
    98   50   51 1    
    99   50   52 1    
   100   50  127 1    
   101   51  128 1    
   102   51  129 1    
   103   51  130 1    
   104   52   53 am   BACKBONE|DICT|INTERRES
   105   52  131 1    
   106   53   54 2    
   107   53   55 1    
   108   55   56 1    
   109   55   59 1    
   110   55  132 1    
   111   56   57 1    
   112   56  133 1    
   113   56  134 1    
   114   57   58 1    
   115   58  135 1    
   116   58  136 1    
   117   59   60 am   BACKBONE|DICT|INTERRES
   118   59  137 1    
   119   60   61 2    
   120   60   62 1    
   121   62   63 1    
   122   62   64 1    
   123   62  138 1    
   124   63  139 1    
   125   63  140 1    
   126   63  141 1    
   127   64   65 am   BACKBONE|DICT|INTERRES
   128   64  142 1    
   129   65   66 2    
   130   65   67 1    
   131   67   68 1    
   132   67   69 1    
   133   67  143 1    
   134   68  144 1    
   135   68  145 1    
   136   68  146 1    
   137   69   70 am   BACKBONE|DICT|INTERRES
   138   69  147 1    
   139   70   71 2    
   140   70   72 1    
   141   72   73 1    
   142   72   74 1    
   143   72  148 1    
   144   73  149 1    
   145   73  150 1    
   146   73  151 1    
   147   74   75 am   BACKBONE|DICT|INTERRES
   148   74  152 1    
   149   75   76 2    
   150   75   77 1    
   151   77   78 1    
   152   77   79 1    
   153   77  153 1    
   154   78  154 1    
   155   78  155 1    
   156   78  156 1    
   157   79   80 am   BACKBONE|DICT|INTERRES
   158   79  157 1    
   159   80   81 2    
@<TRIPOS>SUBSTRUCTURE
     1 UNK         1 GROUP             0       ****    0 ROOT    
