@<TRIPOS>MOLECULE
3R207
157   159    1
SMALL
USER_CHARGES


@<TRIPOS>ATOM
      1 CA        -47.3962  -32.8823    3.9439 C.3       0 UNK        -0.1975 
      2 C         -47.7389  -31.4127    3.7484 C.2       0 UNK         0.4852 
      3 O         -46.9034  -30.6524    3.2584 O.2       0 UNK        -0.5216 
      4 N         -48.9631  -31.0138    4.1219 N.am      1 UNK        -0.4461 
      5 CA        -49.4678  -29.6370    4.0504 C.3       1 UNK         0.0864 
      6 C6        -51.0014  -29.6083    4.2569 C.3       14 UNK        -0.0898 
      7 S7        -51.7900  -28.0842    3.6462 S.3       14 UNK        -0.2598 
      8 C8        -53.3147  -28.0627    4.6427 C.3       14 UNK         0.0286 
      9 C9        -53.0749  -27.4711    6.0241 C.ar      14 UNK        -0.0844 
     10 C10       -53.1375  -26.0875    6.2066 C.ar      14 UNK        -0.0881 
     11 C11       -52.9216  -25.5172    7.4639 C.ar      14 UNK        -0.0643 
     12 C12       -52.6305  -26.3616    8.5441 C.ar      14 UNK        -0.0930 
     13 C13       -52.5597  -27.7499    8.3813 C.ar      14 UNK        -0.0827 
     14 C14       -52.7951  -28.2962    7.1170 C.ar      14 UNK        -0.1249 
     15 C15       -52.1806  -28.6797    9.5348 C.3       14 UNK         0.0141 
     16 S16       -52.6380  -28.0781   11.1964 S.3       14 UNK        -0.2313 
     17 C17       -54.4584  -28.1370   11.0877 C.3       14 UNK        -0.0915 
     18 CA        -55.1396  -28.1043   12.4857 C.3       13 UNK         0.0968 
     19 C         -56.6935  -28.0049   12.4097 C.2       13 UNK         0.5732 
     20 N         -57.4394  -28.5699   13.3532 N.am      13 UNK        -0.7310 
     21 O         -57.2372  -27.3787   11.5028 O.2       13 UNK        -0.5035 
     22 N         -54.6422  -29.1459   13.3983 N.am      13 UNK        -0.4233 
     23 C         -54.7628  -30.4726   13.2402 C.2       13 UNK         0.4989 
     24 O         -55.3023  -31.0060   12.2701 O.2       13 UNK        -0.4996 
     25 CA        -54.1908  -31.3726   14.3541 C.3       12 UNK         0.0216 
     26 CB        -52.8458  -31.9731   13.9117 C.3       12 UNK        -0.1964 
     27 N         -54.0057  -30.6863   15.6358 N.am      12 UNK        -0.4276 
     28 C         -54.9864  -30.1762   16.3944 C.2       12 UNK         0.5020 
     29 O         -56.1853  -30.3094   16.1456 O.2       12 UNK        -0.5489 
     30 CA        -54.5517  -29.3265   17.6035 C.3       11 UNK         0.0294 
     31 CB        -54.5309  -30.1811   18.8810 C.3       11 UNK        -0.2019 
     32 N         -53.2471  -28.6694   17.4334 N.am      11 UNK        -0.4493 
     33 C         -52.9567  -27.7696   16.4827 C.2       11 UNK         0.4932 
     34 O         -53.7503  -27.4139   15.6086 O.2       11 UNK        -0.5029 
     35 CA        -51.5130  -27.2423   16.4626 C.3       10 UNK         0.0280 
     36 CB        -50.6508  -28.1194   15.5411 C.3       10 UNK        -0.1976 
     37 N         -51.4352  -25.8556   16.0014 N.am      10 UNK        -0.4242 
     38 C         -51.9572  -24.7999   16.6417 C.2       10 UNK         0.5072 
     39 O         -52.5428  -24.8728   17.7250 O.2       10 UNK        -0.5224 
     40 CA        -51.7561  -23.4335   15.9586 C.3       9 UNK         0.0343 
     41 CB        -52.2835  -22.2463   16.7922 C.3       9 UNK        -0.2003 
     42 N         -50.3610  -23.2170   15.5615 N.am      9 UNK        -0.4272 
     43 C         -49.2768  -23.1913   16.3537 C.2       9 UNK         0.4988 
     44 O         -49.3182  -23.2796   17.5815 O.2       9 UNK        -0.5108 
     45 CA        -47.8990  -23.0705   15.6733 C.3       8 UNK         0.0248 
     46 CB        -47.1506  -24.4109   15.7607 C.3       8 UNK        -0.2001 
     47 N         -47.9614  -22.6494   14.2706 N.am      8 UNK        -0.4140 
     48 C         -48.2811  -21.4155   13.8561 C.2       8 UNK         0.5028 
     49 O         -48.4870  -20.4686   14.6162 O.2       8 UNK        -0.5428 
     50 CA        -48.4332  -21.2103   12.3391 C.3       7 UNK         0.0264 
     51 CB        -47.0675  -20.9455   11.6858 C.3       7 UNK        -0.1988 
     52 N         -49.0900  -22.3318   11.6602 N.am      7 UNK        -0.4454 
     53 C         -50.3427  -22.7545   11.8930 C.2       7 UNK         0.5027 
     54 O         -51.0946  -22.2497   12.7267 O.2       7 UNK        -0.5083 
     55 CA        -50.8134  -23.9785   11.0817 C.3       6 UNK         0.0844 
     56 C56       -51.0665  -23.6024    9.5956 C.3       14 UNK        -0.0967 
     57 S57       -52.8295  -23.2866    9.2599 S.3       14 UNK        -0.2604 
     58 C58       -53.0021  -23.9915    7.5821 C.3       14 UNK         0.0134 
     59 N         -49.8772  -25.0961   11.2213 N.am      6 UNK        -0.4116 
     60 C         -49.5643  -25.7082   12.3732 C.2       5 UNK         0.5034 
     61 O         -50.1216  -25.4906   13.4500 O.2       5 UNK        -0.5045 
     62 CA        -48.3771  -26.6837   12.3253 C.3       5 UNK         0.0224 
     63 CB        -48.8431  -28.1109   11.9996 C.3       5 UNK        -0.1978 
     64 N         -47.3581  -26.2571   11.3596 N.am      5 UNK        -0.4737 
     65 C         -46.5641  -25.1895   11.5321 C.2       4 UNK         0.5027 
     66 O         -46.5731  -24.4943   12.5462 O.2       4 UNK        -0.5211 
     67 CA        -45.6429  -24.8004   10.3631 C.3       4 UNK         0.0297 
     68 CB        -44.3442  -25.6203   10.4050 C.3       4 UNK        -0.1993 
     69 N         -46.2833  -24.9582    9.0551 N.am      4 UNK        -0.4486 
     70 C         -47.3504  -24.2614    8.6366 C.2       3 UNK         0.4961 
     71 O         -47.8684  -23.3542    9.2865 O.2       3 UNK        -0.5105 
     72 CA        -47.9790  -24.6819    7.2936 C.3       3 UNK         0.0299 
     73 CB        -47.3787  -23.8642    6.1404 C.3       3 UNK        -0.1972 
     74 N         -47.8382  -26.1137    7.0050 N.am      3 UNK        -0.4305 
     75 C         -48.3000  -27.1072    7.7754 C.2       2 UNK         0.5006 
     76 O         -48.9705  -26.9204    8.7924 O.2       2 UNK        -0.5106 
     77 CA        -47.8657  -28.5330    7.3824 C.3       2 UNK         0.0296 
     78 CB        -47.8701  -29.4893    8.5895 C.3       2 UNK        -0.2002 
     79 N         -48.6618  -29.1278    6.3080 N.am      2 UNK        -0.4032 
     80 C         -48.7122  -28.7138    5.0326 C.2       1 UNK         0.5000 
     81 O         -48.1347  -27.7094    4.6102 O.2       1 UNK        -0.5238 
     82 H82       -47.1425  -33.3387    2.9875 H         1 UNK         0.0889 
     83 H83       -48.2254  -33.4417    4.3767 H         1 UNK         0.0889 
     84 H84       -46.5375  -32.9818    4.6074 H         1 UNK         0.0889 
     85 H85       -49.6024  -31.6970    4.5029 H         1 UNK         0.3028 
     86 H86       -49.2571  -29.2768    3.0406 H         1 UNK         0.0864 
     87 H87       -51.2532  -29.7741    5.3037 H         1 UNK         0.0720 
     88 H88       -51.4636  -30.4311    3.7086 H         1 UNK         0.0720 
     89 H89       -53.7242  -29.0713    4.7199 H         1 UNK         0.0814 
     90 H90       -54.0677  -27.4725    4.1180 H         1 UNK         0.0814 
     91 H91       -53.3524  -25.4489    5.3603 H         1 UNK         0.1469 
     92 H92       -52.4458  -25.9460    9.5213 H         1 UNK         0.1381 
     93 H93       -52.7482  -29.3678    6.9826 H         1 UNK         0.1206 
     94 H94       -51.1007  -28.8221    9.5080 H         1 UNK         0.0813 
     95 H95       -52.6257  -29.6651    9.3892 H         1 UNK         0.0813 
     96 H96       -54.7780  -27.2843   10.4862 H         1 UNK         0.0638 
     97 H97       -54.7572  -29.0292   10.5358 H         1 UNK         0.0638 
     98 H98       -54.8415  -27.1653   12.9533 H         1 UNK         0.0568 
     99 H99       -58.4424  -28.4903   13.3018 H         1 UNK         0.3450 
    100 H100      -57.0101  -29.0781   14.1127 H         1 UNK         0.3450 
    101 H101      -54.2147  -28.7853   14.2441 H         1 UNK         0.2987 
    102 H102      -54.9001  -32.1880   14.5108 H         1 UNK         0.0766 
    103 H103      -52.0931  -31.2005   13.7477 H         1 UNK         0.0798 
    104 H104      -52.9537  -32.5243   12.9763 H         1 UNK         0.0798 
    105 H105      -52.4575  -32.6717   14.6531 H         1 UNK         0.0798 
    106 H106      -53.0539  -30.5285   15.9324 H         1 UNK         0.3198 
    107 H107      -55.2997  -28.5406   17.7293 H         1 UNK         0.0843 
    108 H108      -54.3217  -29.5746   19.7624 H         1 UNK         0.0831 
    109 H109      -53.7802  -30.9707   18.8285 H         1 UNK         0.0831 
    110 H110      -55.4969  -30.6614   19.0440 H         1 UNK         0.0831 
    111 H111      -52.5309  -28.9102   18.1046 H         1 UNK         0.3133 
    112 H112      -51.1036  -27.2812   17.4741 H         1 UNK         0.0566 
    113 H113      -50.6165  -29.1506   15.8943 H         1 UNK         0.0814 
    114 H114      -51.0487  -28.1340   14.5253 H         1 UNK         0.0814 
    115 H115      -49.6230  -27.7588   15.4934 H         1 UNK         0.0814 
    116 H116      -50.9859  -25.7005   15.1008 H         1 UNK         0.3091 
    117 H117      -52.3334  -23.4679   15.0334 H         1 UNK         0.0702 
    118 H118      -52.1485  -21.3025   16.2637 H         1 UNK         0.0785 
    119 H119      -51.7775  -22.1676   17.7548 H         1 UNK         0.0785 
    120 H120      -53.3497  -22.3557   16.9939 H         1 UNK         0.0785 
    121 H121      -50.2145  -23.1387   14.5625 H         1 UNK         0.2998 
    122 H122      -47.3265  -22.3229   16.2262 H         1 UNK         0.0697 
    123 H123      -46.1505  -24.3375   15.3331 H         1 UNK         0.0825 
    124 H124      -47.0365  -24.7301   16.7976 H         1 UNK         0.0825 
    125 H125      -47.6845  -25.2019   15.2334 H         1 UNK         0.0825 
    126 H126      -47.7124  -23.3484   13.5743 H         1 UNK         0.3029 
    127 H127      -49.0595  -20.3281   12.1899 H         1 UNK         0.0897 
    128 H128      -47.1715  -20.7294   10.6222 H         1 UNK         0.0792 
    129 H129      -46.5746  -20.0876   12.1451 H         1 UNK         0.0792 
    130 H130      -46.3984  -21.8003   11.7887 H         1 UNK         0.0792 
    131 H131      -48.5595  -22.7860   10.9184 H         1 UNK         0.3086 
    132 H132      -51.7486  -24.3244   11.5282 H         1 UNK         0.0583 
    133 H133      -50.4915  -22.7317    9.2729 H         1 UNK         0.1020 
    134 H134      -50.7314  -24.4090    8.9438 H         1 UNK         0.1020 
    135 H135      -53.9660  -23.6668    7.1873 H         1 UNK         0.0694 
    136 H136      -52.2416  -23.5461    6.9388 H         1 UNK         0.0694 
    137 H137      -49.3845  -25.3889   10.3871 H         1 UNK         0.2989 
    138 H138      -47.9212  -26.6960   13.3175 H         1 UNK         0.1055 
    139 H139      -49.3411  -28.1645   11.0328 H         1 UNK         0.0806 
    140 H140      -49.5538  -28.4698   12.7433 H         1 UNK         0.0806 
    141 H141      -48.0075  -28.8105   11.9882 H         1 UNK         0.0806 
    142 H142      -47.3450  -26.7385   10.4712 H         1 UNK         0.3061 
    143 H143      -45.3849  -23.7460   10.4826 H         1 UNK         0.0734 
    144 H144      -43.6451  -25.2973    9.6333 H         1 UNK         0.0832 
    145 H145      -43.8404  -25.5008   11.3654 H         1 UNK         0.0832 
    146 H146      -44.5308  -26.6860   10.2664 H         1 UNK         0.0832 
    147 H147      -45.9145  -25.6743    8.4469 H         1 UNK         0.3156 
    148 H148      -49.0464  -24.4626    7.3423 H         1 UNK         0.0589 
    149 H149      -46.3127  -24.0595    6.0169 H         1 UNK         0.0808 
    150 H150      -47.8735  -24.0895    5.1953 H         1 UNK         0.0808 
    151 H151      -47.4962  -22.7943    6.3189 H         1 UNK         0.0808 
    152 H152      -47.3923  -26.3688    6.1312 H         1 UNK         0.3098 
    153 H153      -46.8349  -28.4692    7.0276 H         1 UNK         0.0720 
    154 H154      -47.2747  -29.0877    9.4104 H         1 UNK         0.0791 
    155 H155      -48.8778  -29.6584    8.9696 H         1 UNK         0.0791 
    156 H156      -47.4437  -30.4584    8.3297 H         1 UNK         0.0791 
    157 H157      -49.1713  -29.9641    6.5500 H         1 UNK         0.3028 
@<TRIPOS>BOND
     1    1    2 1    
     2    1   82 1    
     3    1   83 1    
     4    1   84 1    
     5    2    3 2    
     6    2    4 am   BACKBONE|DICT|INTERRES
     7    4    5 1    
     8    4   85 1    
     9    5    6 1    
    10    5   80 1    
    11    5   86 1    
    12    6    7 1    
    13    6   87 1    
    14    6   88 1    
    15    7    8 1    
    16    8    9 1    
    17    8   89 1    
    18    8   90 1    
    19    9   10 ar   
    20    9   14 ar   
    21   10   11 ar   
    22   10   91 1    
    23   11   12 ar   
    24   11   58 1    
    25   12   13 ar   
    26   12   92 1    
    27   13   14 ar   
    28   13   15 1    
    29   14   93 1    
    30   15   16 1    
    31   15   94 1    
    32   15   95 1    
    33   16   17 1    
    34   17   18 1    
    35   17   96 1    
    36   17   97 1    
    37   18   19 1    
    38   18   22 1    
    39   18   98 1    
    40   19   20 am   BACKBONE|DICT|INTERRES
    41   19   21 2    
    42   20   99 1    
    43   20  100 1    
    44   22   23 am   BACKBONE|DICT|INTERRES
    45   22  101 1    
    46   23   24 2    
    47   23   25 1    
    48   25   26 1    
    49   25   27 1    
    50   25  102 1    
    51   26  103 1    
    52   26  104 1    
    53   26  105 1    
    54   27   28 am   BACKBONE|DICT|INTERRES
    55   27  106 1    
    56   28   29 2    
    57   28   30 1    
    58   30   31 1    
    59   30   32 1    
    60   30  107 1    
    61   31  108 1    
    62   31  109 1    
    63   31  110 1    
    64   32   33 am   BACKBONE|DICT|INTERRES
    65   32  111 1    
    66   33   34 2    
    67   33   35 1    
    68   35   36 1    
    69   35   37 1    
    70   35  112 1    
    71   36  113 1    
    72   36  114 1    
    73   36  115 1    
    74   37   38 am   BACKBONE|DICT|INTERRES
    75   37  116 1    
    76   38   39 2    
    77   38   40 1    
    78   40   41 1    
    79   40   42 1    
    80   40  117 1    
    81   41  118 1    
    82   41  119 1    
    83   41  120 1    
    84   42   43 am   BACKBONE|DICT|INTERRES
    85   42  121 1    
    86   43   44 2    
    87   43   45 1    
    88   45   46 1    
    89   45   47 1    
    90   45  122 1    
    91   46  123 1    
    92   46  124 1    
    93   46  125 1    
    94   47   48 am   BACKBONE|DICT|INTERRES
    95   47  126 1    
    96   48   49 2    
    97   48   50 1    
    98   50   51 1    
    99   50   52 1    
   100   50  127 1    
   101   51  128 1    
   102   51  129 1    
   103   51  130 1    
   104   52   53 am   BACKBONE|DICT|INTERRES
   105   52  131 1    
   106   53   54 2    
   107   53   55 1    
   108   55   56 1    
   109   55   59 1    
   110   55  132 1    
   111   56   57 1    
   112   56  133 1    
   113   56  134 1    
   114   57   58 1    
   115   58  135 1    
   116   58  136 1    
   117   59   60 am   BACKBONE|DICT|INTERRES
   118   59  137 1    
   119   60   61 2    
   120   60   62 1    
   121   62   63 1    
   122   62   64 1    
   123   62  138 1    
   124   63  139 1    
   125   63  140 1    
   126   63  141 1    
   127   64   65 am   BACKBONE|DICT|INTERRES
   128   64  142 1    
   129   65   66 2    
   130   65   67 1    
   131   67   68 1    
   132   67   69 1    
   133   67  143 1    
   134   68  144 1    
   135   68  145 1    
   136   68  146 1    
   137   69   70 am   BACKBONE|DICT|INTERRES
   138   69  147 1    
   139   70   71 2    
   140   70   72 1    
   141   72   73 1    
   142   72   74 1    
   143   72  148 1    
   144   73  149 1    
   145   73  150 1    
   146   73  151 1    
   147   74   75 am   BACKBONE|DICT|INTERRES
   148   74  152 1    
   149   75   76 2    
   150   75   77 1    
   151   77   78 1    
   152   77   79 1    
   153   77  153 1    
   154   78  154 1    
   155   78  155 1    
   156   78  156 1    
   157   79   80 am   BACKBONE|DICT|INTERRES
   158   79  157 1    
   159   80   81 2    
@<TRIPOS>SUBSTRUCTURE
     1 UNK         1 GROUP             0       ****    0 ROOT    
