@<TRIPOS>MOLECULE
3R207
157   159    1
SMALL
USER_CHARGES


@<TRIPOS>ATOM
      1 CA        -49.7660  -28.7264    2.4935 C.3       0 UNK        -0.1975 
      2 C         -49.5814  -27.9062    3.7613 C.2       0 UNK         0.4852 
      3 O         -49.8461  -26.7038    3.7584 O.2       0 UNK        -0.5216 
      4 N         -49.1147  -28.5412    4.8449 N.am      1 UNK        -0.4461 
      5 CA        -48.9324  -27.9267    6.1681 C.3       1 UNK         0.0864 
      6 C6        -49.0119  -28.9695    7.3185 C.3       14 UNK        -0.0898 
      7 S7        -50.5024  -30.0282    7.2599 S.3       14 UNK        -0.2598 
      8 C8        -51.1874  -29.8595    8.9515 C.3       14 UNK         0.0286 
      9 C9        -52.0260  -28.6071    9.2258 C.ar      14 UNK        -0.0844 
     10 C10       -52.1100  -27.5376    8.3261 C.ar      14 UNK        -0.0881 
     11 C11       -52.8505  -26.3956    8.6350 C.ar      14 UNK        -0.0643 
     12 C12       -53.5670  -26.3427    9.8317 C.ar      14 UNK        -0.0930 
     13 C13       -53.5135  -27.4058   10.7358 C.ar      14 UNK        -0.0827 
     14 C14       -52.7293  -28.5251   10.4339 C.ar      14 UNK        -0.1249 
     15 C15       -54.2891  -27.3243   12.0429 C.3       14 UNK         0.0141 
     16 S16       -55.8242  -28.3009   11.9746 S.3       14 UNK        -0.2313 
     17 C17       -55.2224  -29.9474   12.4870 C.3       14 UNK        -0.0915 
     18 CA        -56.2779  -30.7601   13.2824 C.3       13 UNK         0.0968 
     19 C         -55.7461  -32.1867   13.6059 C.2       13 UNK         0.5732 
     20 N         -55.5449  -32.5547   14.8660 N.am      13 UNK        -0.7310 
     21 O         -55.5197  -32.9785   12.6938 O.2       13 UNK        -0.5035 
     22 N         -56.7872  -30.0154   14.4467 N.am      13 UNK        -0.4233 
     23 C         -57.9557  -30.2676   15.0561 C.2       13 UNK         0.4989 
     24 O         -58.7139  -31.1803   14.7251 O.2       13 UNK        -0.4996 
     25 CA        -58.3676  -29.3561   16.2304 C.3       12 UNK         0.0216 
     26 CB        -58.0829  -30.0496   17.5731 C.3       12 UNK        -0.1964 
     27 N         -57.7047  -28.0510   16.2182 N.am      12 UNK        -0.4276 
     28 C         -57.8864  -27.0988   15.2934 C.2       12 UNK         0.5020 
     29 O         -58.7620  -27.1504   14.4287 O.2       12 UNK        -0.5489 
     30 CA        -56.9253  -25.8919   15.3180 C.3       11 UNK         0.0294 
     31 CB        -57.6810  -24.6099   15.7073 C.3       11 UNK        -0.2019 
     32 N         -55.7471  -26.0307   16.1880 N.am      11 UNK        -0.4493 
     33 C         -54.7844  -26.9556   16.0730 C.2       11 UNK         0.4932 
     34 O         -54.8223  -27.8971   15.2785 O.2       11 UNK        -0.5029 
     35 CA        -53.6211  -26.8527   17.0697 C.3       10 UNK         0.0280 
     36 CB        -53.9054  -27.7169   18.3092 C.3       10 UNK        -0.1976 
     37 N         -52.3679  -27.2905   16.4560 N.am      10 UNK        -0.4242 
     38 C         -51.6804  -26.5857   15.5485 C.2       10 UNK         0.5072 
     39 O         -51.9905  -25.4512   15.1773 O.2       10 UNK        -0.5224 
     40 CA        -50.4624  -27.2969   14.9344 C.3       9 UNK         0.0343 
     41 CB        -50.8731  -28.0631   13.6663 C.3       9 UNK        -0.2003 
     42 N         -49.3656  -26.3805   14.6123 N.am      9 UNK        -0.4272 
     43 C         -48.6411  -25.7086   15.5181 C.2       9 UNK         0.4988 
     44 O         -48.8253  -25.7848   16.7343 O.2       9 UNK        -0.5108 
     45 CA        -47.4837  -24.8387   14.9969 C.3       8 UNK         0.0248 
     46 CB        -46.2262  -25.6969   14.7853 C.3       8 UNK        -0.2001 
     47 N         -47.7939  -24.1084   13.7651 N.am      8 UNK        -0.4140 
     48 C         -48.6108  -23.0470   13.7008 C.2       8 UNK         0.5028 
     49 O         -49.1974  -22.5744   14.6756 O.2       8 UNK        -0.5428 
     50 CA        -48.7891  -22.3771   12.3253 C.3       7 UNK         0.0264 
     51 CB        -47.6420  -21.3931   12.0438 C.3       7 UNK        -0.1988 
     52 N         -48.8935  -23.3345   11.2227 N.am      7 UNK        -0.4454 
     53 C         -49.9290  -24.1692   11.0467 C.2       7 UNK         0.5027 
     54 O         -50.9246  -24.1797   11.7712 O.2       7 UNK        -0.5083 
     55 CA        -49.8170  -25.1912    9.8926 C.3       6 UNK         0.0844 
     56 C56       -50.1708  -24.5829    8.5065 C.3       14 UNK        -0.0967 
     57 S57       -51.8375  -23.8373    8.3835 S.3       14 UNK        -0.2604 
     58 C58       -52.8350  -25.1994    7.6974 C.3       14 UNK         0.0134 
     59 N         -48.5007  -25.8385    9.8665 N.am      6 UNK        -0.4116 
     60 C         -47.9515  -26.5386   10.8693 C.2       5 UNK         0.5034 
     61 O         -48.5284  -26.8050   11.9204 O.2       5 UNK        -0.5045 
     62 CA        -46.4766  -26.9413   10.7131 C.3       5 UNK         0.0224 
     63 CB        -46.3106  -28.3040   10.0216 C.3       5 UNK        -0.1978 
     64 N         -45.6918  -25.9062   10.0317 N.am      5 UNK        -0.4737 
     65 C         -45.3709  -24.7397   10.6110 C.2       4 UNK         0.5027 
     66 O         -45.6933  -24.4431   11.7607 O.2       4 UNK        -0.5211 
     67 CA        -44.5850  -23.7229    9.7708 C.3       4 UNK         0.0297 
     68 CB        -43.0986  -24.1068    9.7054 C.3       4 UNK        -0.1993 
     69 N         -45.1081  -23.5588    8.4151 N.am      4 UNK        -0.4486 
     70 C         -46.3171  -23.0839    8.0935 C.2       3 UNK         0.4961 
     71 O         -47.1644  -22.7606    8.9255 O.2       3 UNK        -0.5105 
     72 CA        -46.6441  -22.9591    6.5913 C.3       3 UNK         0.0299 
     73 CB        -45.8749  -21.7933    5.9398 C.3       3 UNK        -0.1972 
     74 N         -46.4740  -24.2157    5.8477 N.am      3 UNK        -0.4305 
     75 C         -45.3568  -24.9321    5.6502 C.2       2 UNK         0.5006 
     76 O         -44.2294  -24.5170    5.9273 O.2       2 UNK        -0.5106 
     77 CA        -45.5129  -26.3706    5.1039 C.3       2 UNK         0.0296 
     78 CB        -44.4944  -27.3280    5.7594 C.3       2 UNK        -0.2002 
     79 N         -46.8589  -26.9638    5.1974 N.am      2 UNK        -0.4032 
     80 C         -47.6412  -27.0833    6.2837 C.2       1 UNK         0.5000 
     81 O         -47.3820  -26.5461    7.3610 O.2       1 UNK        -0.5238 
     82 H82       -50.8089  -28.6986    2.1788 H         1 UNK         0.0889 
     83 H83       -49.4835  -29.7691    2.6376 H         1 UNK         0.0889 
     84 H84       -49.1561  -28.3172    1.6885 H         1 UNK         0.0889 
     85 H85       -48.9203  -29.5320    4.7964 H         1 UNK         0.3028 
     86 H86       -49.7445  -27.2146    6.3079 H         1 UNK         0.0864 
     87 H87       -48.1396  -29.6255    7.2993 H         1 UNK         0.0720 
     88 H88       -48.9877  -28.4617    8.2846 H         1 UNK         0.0720 
     89 H89       -50.3727  -29.9096    9.6754 H         1 UNK         0.0814 
     90 H90       -51.8121  -30.7344    9.1376 H         1 UNK         0.0814 
     91 H91       -51.5868  -27.5707    7.3861 H         1 UNK         0.1469 
     92 H92       -54.1444  -25.4594   10.0683 H         1 UNK         0.1381 
     93 H93       -52.6725  -29.3403   11.1418 H         1 UNK         0.1206 
     94 H94       -54.5510  -26.2881   12.2620 H         1 UNK         0.0813 
     95 H95       -53.6650  -27.6487   12.8745 H         1 UNK         0.0813 
     96 H96       -54.3195  -29.8320   13.0891 H         1 UNK         0.0638 
     97 H97       -54.9244  -30.4836   11.5842 H         1 UNK         0.0638 
     98 H98       -57.1254  -30.9138   12.6116 H         1 UNK         0.0568 
     99 H99       -55.7268  -31.9126   15.6197 H         1 UNK         0.3450 
    100 H100      -55.2053  -33.4831   15.0612 H         1 UNK         0.3450 
    101 H101      -56.2055  -29.2472   14.7667 H         1 UNK         0.2987 
    102 H102      -59.4436  -29.1877   16.1505 H         1 UNK         0.0766 
    103 H103      -58.5831  -31.0178   17.6264 H         1 UNK         0.0798 
    104 H104      -58.4451  -29.4548   18.4119 H         1 UNK         0.0798 
    105 H105      -57.0165  -30.2252   17.7206 H         1 UNK         0.0798 
    106 H106      -56.9627  -27.9111   16.8875 H         1 UNK         0.3198 
    107 H107      -56.5564  -25.7734   14.2968 H         1 UNK         0.0843 
    108 H108      -58.0534  -24.6567   16.7314 H         1 UNK         0.0831 
    109 H109      -58.5413  -24.4486   15.0559 H         1 UNK         0.0831 
    110 H110      -57.0446  -23.7292   15.6188 H         1 UNK         0.0831 
    111 H111      -55.6376  -25.3193   16.8973 H         1 UNK         0.3133 
    112 H112      -53.5089  -25.8130   17.3850 H         1 UNK         0.0566 
    113 H113      -54.0351  -28.7686   18.0490 H         1 UNK         0.0814 
    114 H114      -54.8159  -27.3916   18.8142 H         1 UNK         0.0814 
    115 H115      -53.0946  -27.6487   19.0348 H         1 UNK         0.0814 
    116 H116      -52.0715  -28.2326   16.6650 H         1 UNK         0.3091 
    117 H117      -50.0823  -28.0183   15.6609 H         1 UNK         0.0702 
    118 H118      -50.0476  -28.6607   13.2794 H         1 UNK         0.0785 
    119 H119      -51.1891  -27.3815   12.8748 H         1 UNK         0.0785 
    120 H120      -51.6999  -28.7460   13.8655 H         1 UNK         0.0785 
    121 H121      -49.1262  -26.2958   13.6274 H         1 UNK         0.2998 
    122 H122      -47.2552  -24.1019   15.7700 H         1 UNK         0.0697 
    123 H123      -45.3738  -25.0868   14.4857 H         1 UNK         0.0825 
    124 H124      -46.3822  -26.4556   14.0185 H         1 UNK         0.0825 
    125 H125      -45.9474  -26.2145   15.7042 H         1 UNK         0.0825 
    126 H126      -47.2827  -24.3799   12.9300 H         1 UNK         0.3029 
    127 H127      -49.7204  -21.8072   12.3582 H         1 UNK         0.0897 
    128 H128      -46.6803  -21.9020   11.9719 H         1 UNK         0.0792 
    129 H129      -47.5605  -20.6505   12.8387 H         1 UNK         0.0792 
    130 H130      -47.8033  -20.8535   11.1103 H         1 UNK         0.0792 
    131 H131      -48.1378  -23.3370   10.5428 H         1 UNK         0.3086 
    132 H132      -50.5349  -25.9826   10.1106 H         1 UNK         0.0583 
    133 H133      -49.4500  -23.8095    8.2413 H         1 UNK         0.1020 
    134 H134      -50.0749  -25.3447    7.7337 H         1 UNK         0.1020 
    135 H135      -53.8558  -24.8487    7.5395 H         1 UNK         0.0694 
    136 H136      -52.4476  -25.4734    6.7147 H         1 UNK         0.0694 
    137 H137      -47.9595  -25.7470    9.0122 H         1 UNK         0.2989 
    138 H138      -46.0752  -27.0508   11.7228 H         1 UNK         0.1055 
    139 H139      -45.2768  -28.6455   10.0744 H         1 UNK         0.0806 
    140 H140      -46.5941  -28.2796    8.9727 H         1 UNK         0.0806 
    141 H141      -46.9255  -29.0634   10.5066 H         1 UNK         0.0806 
    142 H142      -45.4524  -26.0630    9.0625 H         1 UNK         0.3061 
    143 H143      -44.6640  -22.7553   10.2711 H         1 UNK         0.0734 
    144 H144      -42.9454  -25.0464    9.1729 H         1 UNK         0.0832 
    145 H145      -42.5125  -23.3375    9.2022 H         1 UNK         0.0832 
    146 H146      -42.6821  -24.2266   10.7066 H         1 UNK         0.0832 
    147 H147      -44.5076  -23.8385    7.6423 H         1 UNK         0.3156 
    148 H148      -47.7070  -22.7219    6.5232 H         1 UNK         0.0589 
    149 H149      -46.1618  -21.6653    4.8961 H         1 UNK         0.0808 
    150 H150      -44.7950  -21.9383    5.9739 H         1 UNK         0.0808 
    151 H151      -46.0897  -20.8546    6.4522 H         1 UNK         0.0808 
    152 H152      -47.3385  -24.6773    5.6034 H         1 UNK         0.3098 
    153 H153      -45.2789  -26.3112    4.0401 H         1 UNK         0.0720 
    154 H154      -43.4693  -26.9939    5.5938 H         1 UNK         0.0791 
    155 H155      -44.5717  -28.3335    5.3457 H         1 UNK         0.0791 
    156 H156      -44.6451  -27.3980    6.8374 H         1 UNK         0.0791 
    157 H157      -47.1966  -27.3998    4.3509 H         1 UNK         0.3028 
@<TRIPOS>BOND
     1    1    2 1    
     2    1   82 1    
     3    1   83 1    
     4    1   84 1    
     5    2    3 2    
     6    2    4 am   BACKBONE|DICT|INTERRES
     7    4    5 1    
     8    4   85 1    
     9    5    6 1    
    10    5   80 1    
    11    5   86 1    
    12    6    7 1    
    13    6   87 1    
    14    6   88 1    
    15    7    8 1    
    16    8    9 1    
    17    8   89 1    
    18    8   90 1    
    19    9   10 ar   
    20    9   14 ar   
    21   10   11 ar   
    22   10   91 1    
    23   11   12 ar   
    24   11   58 1    
    25   12   13 ar   
    26   12   92 1    
    27   13   14 ar   
    28   13   15 1    
    29   14   93 1    
    30   15   16 1    
    31   15   94 1    
    32   15   95 1    
    33   16   17 1    
    34   17   18 1    
    35   17   96 1    
    36   17   97 1    
    37   18   19 1    
    38   18   22 1    
    39   18   98 1    
    40   19   20 am   BACKBONE|DICT|INTERRES
    41   19   21 2    
    42   20   99 1    
    43   20  100 1    
    44   22   23 am   BACKBONE|DICT|INTERRES
    45   22  101 1    
    46   23   24 2    
    47   23   25 1    
    48   25   26 1    
    49   25   27 1    
    50   25  102 1    
    51   26  103 1    
    52   26  104 1    
    53   26  105 1    
    54   27   28 am   BACKBONE|DICT|INTERRES
    55   27  106 1    
    56   28   29 2    
    57   28   30 1    
    58   30   31 1    
    59   30   32 1    
    60   30  107 1    
    61   31  108 1    
    62   31  109 1    
    63   31  110 1    
    64   32   33 am   BACKBONE|DICT|INTERRES
    65   32  111 1    
    66   33   34 2    
    67   33   35 1    
    68   35   36 1    
    69   35   37 1    
    70   35  112 1    
    71   36  113 1    
    72   36  114 1    
    73   36  115 1    
    74   37   38 am   BACKBONE|DICT|INTERRES
    75   37  116 1    
    76   38   39 2    
    77   38   40 1    
    78   40   41 1    
    79   40   42 1    
    80   40  117 1    
    81   41  118 1    
    82   41  119 1    
    83   41  120 1    
    84   42   43 am   BACKBONE|DICT|INTERRES
    85   42  121 1    
    86   43   44 2    
    87   43   45 1    
    88   45   46 1    
    89   45   47 1    
    90   45  122 1    
    91   46  123 1    
    92   46  124 1    
    93   46  125 1    
    94   47   48 am   BACKBONE|DICT|INTERRES
    95   47  126 1    
    96   48   49 2    
    97   48   50 1    
    98   50   51 1    
    99   50   52 1    
   100   50  127 1    
   101   51  128 1    
   102   51  129 1    
   103   51  130 1    
   104   52   53 am   BACKBONE|DICT|INTERRES
   105   52  131 1    
   106   53   54 2    
   107   53   55 1    
   108   55   56 1    
   109   55   59 1    
   110   55  132 1    
   111   56   57 1    
   112   56  133 1    
   113   56  134 1    
   114   57   58 1    
   115   58  135 1    
   116   58  136 1    
   117   59   60 am   BACKBONE|DICT|INTERRES
   118   59  137 1    
   119   60   61 2    
   120   60   62 1    
   121   62   63 1    
   122   62   64 1    
   123   62  138 1    
   124   63  139 1    
   125   63  140 1    
   126   63  141 1    
   127   64   65 am   BACKBONE|DICT|INTERRES
   128   64  142 1    
   129   65   66 2    
   130   65   67 1    
   131   67   68 1    
   132   67   69 1    
   133   67  143 1    
   134   68  144 1    
   135   68  145 1    
   136   68  146 1    
   137   69   70 am   BACKBONE|DICT|INTERRES
   138   69  147 1    
   139   70   71 2    
   140   70   72 1    
   141   72   73 1    
   142   72   74 1    
   143   72  148 1    
   144   73  149 1    
   145   73  150 1    
   146   73  151 1    
   147   74   75 am   BACKBONE|DICT|INTERRES
   148   74  152 1    
   149   75   76 2    
   150   75   77 1    
   151   77   78 1    
   152   77   79 1    
   153   77  153 1    
   154   78  154 1    
   155   78  155 1    
   156   78  156 1    
   157   79   80 am   BACKBONE|DICT|INTERRES
   158   79  157 1    
   159   80   81 2    
@<TRIPOS>SUBSTRUCTURE
     1 UNK         1 GROUP             0       ****    0 ROOT    
