@<TRIPOS>MOLECULE
3R207
157   159    1
SMALL
USER_CHARGES


@<TRIPOS>ATOM
      1 CA        -45.2677  -29.6483    8.1344 C.3       0 UNK        -0.1975 
      2 C         -45.7788  -29.3566    6.7314 C.2       0 UNK         0.4852 
      3 O         -45.0239  -29.4795    5.7660 O.2       0 UNK        -0.5216 
      4 N         -47.0506  -28.9520    6.6084 N.am      1 UNK        -0.4461 
      5 CA        -47.7611  -28.6536    5.3541 C.3       1 UNK         0.0864 
      6 C6        -49.2998  -28.6876    5.5539 C.3       14 UNK        -0.0898 
      7 S7        -49.9097  -30.2405    6.2898 S.3       14 UNK        -0.2598 
      8 C8        -51.7068  -29.9418    6.2865 C.3       14 UNK         0.0286 
      9 C9        -52.1175  -28.8911    7.3097 C.ar      14 UNK        -0.0844 
     10 C10       -52.2785  -27.5555    6.9287 C.ar      14 UNK        -0.0881 
     11 C11       -52.6608  -26.5877    7.8631 C.ar      14 UNK        -0.0643 
     12 C12       -52.9035  -26.9698    9.1865 C.ar      14 UNK        -0.0930 
     13 C13       -52.7468  -28.3023    9.5794 C.ar      14 UNK        -0.0827 
     14 C14       -52.3533  -29.2578    8.6373 C.ar      14 UNK        -0.1249 
     15 C15       -53.0070  -28.7174   11.0184 C.3       14 UNK         0.0141 
     16 S16       -54.7274  -29.2662   11.2199 S.3       14 UNK        -0.2313 
     17 C17       -54.6425  -30.1155   12.8288 C.3       14 UNK        -0.0915 
     18 CA        -55.9665  -29.9745   13.6203 C.3       13 UNK         0.0968 
     19 C         -55.9956  -30.9431   14.8333 C.2       13 UNK         0.5732 
     20 N         -56.4472  -32.1729   14.6326 N.am      13 UNK        -0.7310 
     21 O         -55.5793  -30.6053   15.9413 O.2       13 UNK        -0.5035 
     22 N         -56.1781  -28.5933   14.0612 N.am      13 UNK        -0.4233 
     23 C         -57.3718  -28.0506   14.3189 C.2       13 UNK         0.4989 
     24 O         -58.4497  -28.5522   13.9925 O.2       13 UNK        -0.4996 
     25 CA        -57.3251  -26.7568   15.1503 C.3       12 UNK         0.0216 
     26 CB        -58.6992  -26.0718   15.3153 C.3       12 UNK        -0.1964 
     27 N         -56.6861  -27.0296   16.4452 N.am      12 UNK        -0.4276 
     28 C         -57.1195  -27.8570   17.4116 C.2       12 UNK         0.5020 
     29 O         -58.2410  -28.3671   17.4362 O.2       12 UNK        -0.5489 
     30 CA        -56.1019  -28.2023   18.5130 C.3       11 UNK         0.0294 
     31 CB        -56.5289  -29.4188   19.3564 C.3       11 UNK        -0.2019 
     32 N         -54.7995  -28.4851   17.9056 N.am      11 UNK        -0.4493 
     33 C         -53.7130  -27.7136   18.0293 C.2       11 UNK         0.4932 
     34 O         -53.6788  -26.6938   18.7193 O.2       11 UNK        -0.5029 
     35 CA        -52.4500  -28.1067   17.2392 C.3       10 UNK         0.0280 
     36 CB        -52.5018  -29.4960   16.5672 C.3       10 UNK        -0.1976 
     37 N         -52.1065  -27.0672   16.2657 N.am      10 UNK        -0.4242 
     38 C         -52.8558  -26.6200   15.2490 C.2       10 UNK         0.5072 
     39 O         -53.9539  -27.0947   14.9524 O.2       10 UNK        -0.5224 
     40 CA        -52.3188  -25.4387   14.4176 C.3       9 UNK         0.0343 
     41 CB        -52.9479  -24.1156   14.8931 C.3       9 UNK        -0.2003 
     42 N         -50.8553  -25.3199   14.3198 N.am      9 UNK        -0.4272 
     43 C         -49.9523  -25.0730   15.2815 C.2       9 UNK         0.4988 
     44 O         -50.2255  -24.9826   16.4787 O.2       9 UNK        -0.5108 
     45 CA        -48.4899  -24.9153   14.8342 C.3       8 UNK         0.0248 
     46 CB        -47.8560  -26.2887   14.5602 C.3       8 UNK        -0.2001 
     47 N         -48.3494  -24.0545   13.6570 N.am      8 UNK        -0.4140 
     48 C         -48.6167  -22.7392   13.6423 C.2       8 UNK         0.5028 
     49 O         -48.9368  -22.0912   14.6399 O.2       8 UNK        -0.5428 
     50 CA        -48.5272  -22.0225   12.2843 C.3       7 UNK         0.0264 
     51 CB        -47.0708  -21.6662   11.9448 C.3       7 UNK        -0.1988 
     52 N         -49.1045  -22.8095   11.1946 N.am      7 UNK        -0.4454 
     53 C         -50.4038  -23.1199   11.0717 C.2       7 UNK         0.5027 
     54 O         -51.2854  -22.7057   11.8245 O.2       7 UNK        -0.5083 
     55 CA        -50.7744  -24.0785    9.9243 C.3       6 UNK         0.0844 
     56 C56       -50.9961  -23.2990    8.6032 C.3       14 UNK        -0.0967 
     57 S57       -51.2093  -24.3493    7.1238 S.3       14 UNK        -0.2604 
     58 C58       -52.8237  -25.1387    7.4248 C.3       14 UNK         0.0134 
     59 N         -49.7891  -25.1532    9.7985 N.am      6 UNK        -0.4116 
     60 C         -49.6187  -26.1447   10.6823 C.2       5 UNK         0.5034 
     61 O         -50.2899  -26.2803   11.7046 O.2       5 UNK        -0.5045 
     62 CA        -48.4770  -27.1319   10.3951 C.3       5 UNK         0.0224 
     63 CB        -48.9755  -28.2813    9.5081 C.3       5 UNK        -0.1978 
     64 N         -47.3102  -26.4828    9.7848 N.am      5 UNK        -0.4737 
     65 C         -46.5220  -25.6187   10.4406 C.2       4 UNK         0.5027 
     66 O         -46.6859  -25.3076   11.6195 O.2       4 UNK        -0.5211 
     67 CA        -45.3924  -24.9550    9.6364 C.3       4 UNK         0.0297 
     68 CB        -44.1802  -25.8938    9.5340 C.3       4 UNK        -0.1993 
     69 N         -45.7850  -24.5190    8.2925 N.am      4 UNK        -0.4486 
     70 C         -46.7919  -23.6884    7.9940 C.2       3 UNK         0.4961 
     71 O         -47.5648  -23.2337    8.8360 O.2       3 UNK        -0.5105 
     72 CA        -46.9989  -23.2977    6.5182 C.3       3 UNK         0.0299 
     73 CB        -46.3342  -21.9410    6.2187 C.3       3 UNK        -0.1972 
     74 N         -46.6093  -24.3133    5.5271 N.am      3 UNK        -0.4305 
     75 C         -45.3970  -24.8031    5.2317 C.2       2 UNK         0.5006 
     76 O         -44.3664  -24.4854    5.8273 O.2       2 UNK        -0.5106 
     77 CA        -45.3516  -25.8791    4.1287 C.3       2 UNK         0.0296 
     78 CB        -43.9150  -26.1992    3.6757 C.3       2 UNK        -0.2002 
     79 N         -45.9934  -27.1179    4.5731 N.am      2 UNK        -0.4032 
     80 C         -47.3094  -27.3126    4.7232 C.2       1 UNK         0.5000 
     81 O         -48.1450  -26.4575    4.4169 O.2       1 UNK        -0.5238 
     82 H82       -45.2898  -30.7208    8.3251 H         1 UNK         0.0889 
     83 H83       -45.8628  -29.1499    8.8983 H         1 UNK         0.0889 
     84 H84       -44.2381  -29.3067    8.2389 H         1 UNK         0.0889 
     85 H85       -47.6309  -28.9153    7.4324 H         1 UNK         0.3028 
     86 H86       -47.5059  -29.4338    4.6335 H         1 UNK         0.0864 
     87 H87       -49.8086  -28.5498    4.5977 H         1 UNK         0.0720 
     88 H88       -49.6129  -27.8584    6.1898 H         1 UNK         0.0720 
     89 H89       -52.0277  -29.6491    5.2855 H         1 UNK         0.0814 
     90 H90       -52.2182  -30.8808    6.5036 H         1 UNK         0.0814 
     91 H91       -52.0968  -27.2627    5.9036 H         1 UNK         0.1469 
     92 H92       -53.2185  -26.2354    9.9138 H         1 UNK         0.1381 
     93 H93       -52.2338  -30.2900    8.9374 H         1 UNK         0.1206 
     94 H94       -52.3278  -29.5246   11.2973 H         1 UNK         0.0813 
     95 H95       -52.8029  -27.8906   11.7014 H         1 UNK         0.0813 
     96 H96       -53.8051  -29.7235   13.4086 H         1 UNK         0.0638 
     97 H97       -54.4171  -31.1649   12.6295 H         1 UNK         0.0638 
     98 H98       -56.7876  -30.2561   12.9577 H         1 UNK         0.0568 
     99 H99       -56.7795  -32.4677   13.7277 H         1 UNK         0.3450 
    100 H100      -56.4594  -32.8186   15.4062 H         1 UNK         0.3450 
    101 H101      -55.3458  -28.1041   14.3859 H         1 UNK         0.2987 
    102 H102      -56.6724  -26.0620   14.6187 H         1 UNK         0.0766 
    103 H103      -59.1068  -25.7879   14.3445 H         1 UNK         0.0798 
    104 H104      -58.6195  -25.1638   15.9127 H         1 UNK         0.0798 
    105 H105      -59.4316  -26.7235   15.7922 H         1 UNK         0.0798 
    106 H106      -55.7260  -26.7173   16.5146 H         1 UNK         0.3198 
    107 H107      -56.0475  -27.3361   19.1757 H         1 UNK         0.0843 
    108 H108      -57.4792  -29.2344   19.8591 H         1 UNK         0.0831 
    109 H109      -55.7933  -29.6429   20.1289 H         1 UNK         0.0831 
    110 H110      -56.6509  -30.3108   18.7402 H         1 UNK         0.0831 
    111 H111      -54.7830  -29.2704   17.2595 H         1 UNK         0.3133 
    112 H112      -51.6368  -28.1279   17.9660 H         1 UNK         0.0566 
    113 H113      -51.5308  -29.7594   16.1480 H         1 UNK         0.0814 
    114 H114      -52.7619  -30.2767   17.2832 H         1 UNK         0.0814 
    115 H115      -53.2246  -29.5339   15.7543 H         1 UNK         0.0814 
    116 H116      -51.2800  -26.5150   16.4809 H         1 UNK         0.3091 
    117 H117      -52.6575  -25.6122   13.3948 H         1 UNK         0.0702 
    118 H118      -52.6633  -23.8750   15.9179 H         1 UNK         0.0785 
    119 H119      -54.0370  -24.1681   14.8620 H         1 UNK         0.0785 
    120 H120      -52.6449  -23.2839   14.2567 H         1 UNK         0.0785 
    121 H121      -50.4999  -25.4761   13.3788 H         1 UNK         0.2998 
    122 H122      -47.9406  -24.4480   15.6542 H         1 UNK         0.0697 
    123 H123      -48.3450  -26.8033   13.7329 H         1 UNK         0.0825 
    124 H124      -47.9292  -26.9348   15.4360 H         1 UNK         0.0825 
    125 H125      -46.7979  -26.1943   14.3150 H         1 UNK         0.0825 
    126 H126      -48.0000  -24.4921   12.8086 H         1 UNK         0.3029 
    127 H127      -49.0967  -21.0938   12.3617 H         1 UNK         0.0897 
    128 H128      -47.0074  -21.1055   11.0119 H         1 UNK         0.0792 
    129 H129      -46.6282  -21.0479   12.7269 H         1 UNK         0.0792 
    130 H130      -46.4497  -22.5563   11.8411 H         1 UNK         0.0792 
    131 H131      -48.4634  -23.1321   10.4722 H         1 UNK         0.3086 
    132 H132      -51.7234  -24.5393   10.1987 H         1 UNK         0.0583 
    133 H133      -51.8645  -22.6435    8.6937 H         1 UNK         0.1020 
    134 H134      -50.1500  -22.6391    8.4017 H         1 UNK         0.1020 
    135 H135      -53.3945  -24.5687    8.1593 H         1 UNK         0.0694 
    136 H136      -53.4040  -25.1091    6.5015 H         1 UNK         0.0694 
    137 H137      -49.1727  -25.0960    9.0022 H         1 UNK         0.2989 
    138 H138      -48.1652  -27.5563   11.3521 H         1 UNK         0.1055 
    139 H139      -49.8194  -28.7869    9.9788 H         1 UNK         0.0806 
    140 H140      -48.2068  -29.0366    9.3549 H         1 UNK         0.0806 
    141 H141      -49.3197  -27.9249    8.5375 H         1 UNK         0.0806 
    142 H142      -47.1242  -26.6560    8.8089 H         1 UNK         0.3061 
    143 H143      -45.0859  -24.0628   10.1861 H         1 UNK         0.0734 
    144 H144      -43.8628  -26.2324   10.5214 H         1 UNK         0.0832 
    145 H145      -44.4030  -26.7803    8.9399 H         1 UNK         0.0832 
    146 H146      -43.3277  -25.3911    9.0766 H         1 UNK         0.0832 
    147 H147      -45.1613  -24.7606    7.5271 H         1 UNK         0.3156 
    148 H148      -48.0749  -23.1691    6.3890 H         1 UNK         0.0589 
    149 H149      -45.2510  -21.9818    6.3372 H         1 UNK         0.0808 
    150 H150      -46.5488  -21.6098    5.2027 H         1 UNK         0.0808 
    151 H151      -46.7041  -21.1694    6.8954 H         1 UNK         0.0808 
    152 H152      -47.3862  -24.7483    5.0347 H         1 UNK         0.3098 
    153 H153      -45.8958  -25.4902    3.2654 H         1 UNK         0.0720 
    154 H154      -43.9098  -26.9085    2.8478 H         1 UNK         0.0791 
    155 H155      -43.3207  -26.6259    4.4850 H         1 UNK         0.0791 
    156 H156      -43.4032  -25.2988    3.3333 H         1 UNK         0.0791 
    157 H157      -45.3827  -27.8717    4.8806 H         1 UNK         0.3028 
@<TRIPOS>BOND
     1    1    2 1    
     2    1   82 1    
     3    1   83 1    
     4    1   84 1    
     5    2    3 2    
     6    2    4 am   BACKBONE|DICT|INTERRES
     7    4    5 1    
     8    4   85 1    
     9    5    6 1    
    10    5   80 1    
    11    5   86 1    
    12    6    7 1    
    13    6   87 1    
    14    6   88 1    
    15    7    8 1    
    16    8    9 1    
    17    8   89 1    
    18    8   90 1    
    19    9   10 ar   
    20    9   14 ar   
    21   10   11 ar   
    22   10   91 1    
    23   11   12 ar   
    24   11   58 1    
    25   12   13 ar   
    26   12   92 1    
    27   13   14 ar   
    28   13   15 1    
    29   14   93 1    
    30   15   16 1    
    31   15   94 1    
    32   15   95 1    
    33   16   17 1    
    34   17   18 1    
    35   17   96 1    
    36   17   97 1    
    37   18   19 1    
    38   18   22 1    
    39   18   98 1    
    40   19   20 am   BACKBONE|DICT|INTERRES
    41   19   21 2    
    42   20   99 1    
    43   20  100 1    
    44   22   23 am   BACKBONE|DICT|INTERRES
    45   22  101 1    
    46   23   24 2    
    47   23   25 1    
    48   25   26 1    
    49   25   27 1    
    50   25  102 1    
    51   26  103 1    
    52   26  104 1    
    53   26  105 1    
    54   27   28 am   BACKBONE|DICT|INTERRES
    55   27  106 1    
    56   28   29 2    
    57   28   30 1    
    58   30   31 1    
    59   30   32 1    
    60   30  107 1    
    61   31  108 1    
    62   31  109 1    
    63   31  110 1    
    64   32   33 am   BACKBONE|DICT|INTERRES
    65   32  111 1    
    66   33   34 2    
    67   33   35 1    
    68   35   36 1    
    69   35   37 1    
    70   35  112 1    
    71   36  113 1    
    72   36  114 1    
    73   36  115 1    
    74   37   38 am   BACKBONE|DICT|INTERRES
    75   37  116 1    
    76   38   39 2    
    77   38   40 1    
    78   40   41 1    
    79   40   42 1    
    80   40  117 1    
    81   41  118 1    
    82   41  119 1    
    83   41  120 1    
    84   42   43 am   BACKBONE|DICT|INTERRES
    85   42  121 1    
    86   43   44 2    
    87   43   45 1    
    88   45   46 1    
    89   45   47 1    
    90   45  122 1    
    91   46  123 1    
    92   46  124 1    
    93   46  125 1    
    94   47   48 am   BACKBONE|DICT|INTERRES
    95   47  126 1    
    96   48   49 2    
    97   48   50 1    
    98   50   51 1    
    99   50   52 1    
   100   50  127 1    
   101   51  128 1    
   102   51  129 1    
   103   51  130 1    
   104   52   53 am   BACKBONE|DICT|INTERRES
   105   52  131 1    
   106   53   54 2    
   107   53   55 1    
   108   55   56 1    
   109   55   59 1    
   110   55  132 1    
   111   56   57 1    
   112   56  133 1    
   113   56  134 1    
   114   57   58 1    
   115   58  135 1    
   116   58  136 1    
   117   59   60 am   BACKBONE|DICT|INTERRES
   118   59  137 1    
   119   60   61 2    
   120   60   62 1    
   121   62   63 1    
   122   62   64 1    
   123   62  138 1    
   124   63  139 1    
   125   63  140 1    
   126   63  141 1    
   127   64   65 am   BACKBONE|DICT|INTERRES
   128   64  142 1    
   129   65   66 2    
   130   65   67 1    
   131   67   68 1    
   132   67   69 1    
   133   67  143 1    
   134   68  144 1    
   135   68  145 1    
   136   68  146 1    
   137   69   70 am   BACKBONE|DICT|INTERRES
   138   69  147 1    
   139   70   71 2    
   140   70   72 1    
   141   72   73 1    
   142   72   74 1    
   143   72  148 1    
   144   73  149 1    
   145   73  150 1    
   146   73  151 1    
   147   74   75 am   BACKBONE|DICT|INTERRES
   148   74  152 1    
   149   75   76 2    
   150   75   77 1    
   151   77   78 1    
   152   77   79 1    
   153   77  153 1    
   154   78  154 1    
   155   78  155 1    
   156   78  156 1    
   157   79   80 am   BACKBONE|DICT|INTERRES
   158   79  157 1    
   159   80   81 2    
@<TRIPOS>SUBSTRUCTURE
     1 UNK         1 GROUP             0       ****    0 ROOT    
