@<TRIPOS>MOLECULE
3R207
157   159    1
SMALL
USER_CHARGES


@<TRIPOS>ATOM
      1 CA        -46.1649  -32.2737    7.4540 C.3       0 UNK        -0.1975 
      2 C         -46.7660  -30.8764    7.4436 C.2       0 UNK         0.4852 
      3 O         -46.4556  -30.0749    8.3255 O.2       0 UNK        -0.5216 
      4 N         -47.6077  -30.5778    6.4431 N.am      1 UNK        -0.4461 
      5 CA        -48.3541  -29.3274    6.2139 C.3       1 UNK         0.0864 
      6 C6        -49.3228  -28.9404    7.3653 C.3       14 UNK        -0.0898 
      7 S7        -50.6026  -30.2101    7.6276 S.3       14 UNK        -0.2598 
      8 C8        -51.9828  -29.5222    6.6619 C.3       14 UNK         0.0286 
      9 C9        -52.8733  -28.6244    7.5082 C.ar      14 UNK        -0.0844 
     10 C10       -52.6863  -27.2378    7.5295 C.ar      14 UNK        -0.0881 
     11 C11       -53.5383  -26.4141    8.2800 C.ar      14 UNK        -0.0643 
     12 C12       -54.5808  -27.0024    9.0076 C.ar      14 UNK        -0.0930 
     13 C13       -54.7810  -28.3855    8.9885 C.ar      14 UNK        -0.0827 
     14 C14       -53.9170  -29.1903    8.2437 C.ar      14 UNK        -0.1249 
     15 C15       -55.9496  -29.0158    9.7339 C.3       14 UNK         0.0141 
     16 S16       -55.5983  -29.2074   11.5084 S.3       14 UNK        -0.2313 
     17 C17       -56.3839  -27.7169   12.2235 C.3       14 UNK        -0.0915 
     18 CA        -57.1219  -27.9800   13.5682 C.3       13 UNK         0.0968 
     19 C         -58.4411  -28.7785   13.3538 C.2       13 UNK         0.5732 
     20 N         -59.5054  -28.1069   12.9343 N.am      13 UNK        -0.7310 
     21 O         -58.5043  -29.9946   13.5289 O.2       13 UNK        -0.5035 
     22 N         -56.2127  -28.5692   14.5620 N.am      13 UNK        -0.4233 
     23 C         -56.4978  -28.8552   15.8369 C.2       13 UNK         0.4989 
     24 O         -57.5537  -28.5490   16.3926 O.2       13 UNK        -0.4996 
     25 CA        -55.4284  -29.6209   16.6287 C.3       12 UNK         0.0216 
     26 CB        -55.2990  -31.0701   16.1202 C.3       12 UNK        -0.1964 
     27 N         -54.1186  -28.9585   16.6124 N.am      12 UNK        -0.4276 
     28 C         -53.2060  -29.0899   17.5902 C.2       12 UNK         0.5020 
     29 O         -53.4136  -29.7408   18.6172 O.2       12 UNK        -0.5489 
     30 CA        -51.8382  -28.3864   17.4176 C.3       11 UNK         0.0294 
     31 CB        -50.7180  -29.0351   18.2588 C.3       11 UNK        -0.2019 
     32 N         -51.4157  -28.2400   16.0221 N.am      11 UNK        -0.4493 
     33 C         -51.2294  -29.2102   15.1102 C.2       11 UNK         0.4932 
     34 O         -51.2278  -30.4116   15.3820 O.2       11 UNK        -0.5029 
     35 CA        -51.0502  -28.7655   13.6373 C.3       10 UNK         0.0280 
     36 CB        -51.6831  -29.7661   12.6477 C.3       10 UNK        -0.1976 
     37 N         -51.5376  -27.4082   13.3498 N.am      10 UNK        -0.4242 
     38 C         -52.7563  -26.9132   13.6145 C.2       10 UNK         0.5072 
     39 O         -53.6555  -27.5862   14.1158 O.2       10 UNK        -0.5224 
     40 CA        -52.9761  -25.4067   13.3761 C.3       9 UNK         0.0343 
     41 CB        -54.1618  -24.8439   14.1896 C.3       9 UNK        -0.2003 
     42 N         -51.7733  -24.6006   13.6213 N.am      9 UNK        -0.4272 
     43 C         -51.0363  -24.5429   14.7438 C.2       9 UNK         0.4988 
     44 O         -51.3023  -25.1877   15.7604 O.2       9 UNK        -0.5108 
     45 CA        -49.7643  -23.6674   14.7354 C.3       8 UNK         0.0248 
     46 CB        -48.5280  -24.5114   15.0919 C.3       8 UNK        -0.2001 
     47 N         -49.5185  -22.9916   13.4575 N.am      8 UNK        -0.4140 
     48 C         -50.1358  -21.8779   13.0402 C.2       8 UNK         0.5028 
     49 O         -50.9202  -21.2295   13.7334 O.2       8 UNK        -0.5428 
     50 CA        -49.8787  -21.4447   11.5836 C.3       7 UNK         0.0264 
     51 CB        -48.6302  -20.5535   11.4944 C.3       7 UNK        -0.1988 
     52 N         -49.7603  -22.5739   10.6487 N.am      7 UNK        -0.4454 
     53 C         -50.7390  -23.4638   10.4147 C.2       7 UNK         0.5027 
     54 O         -51.8448  -23.3851   10.9474 O.2       7 UNK        -0.5083 
     55 CA        -50.4186  -24.6849    9.5204 C.3       6 UNK         0.0844 
     56 C56       -50.5021  -24.3614    8.0075 C.3       14 UNK        -0.0967 
     57 S57       -52.1521  -24.1139    7.2431 S.3       14 UNK        -0.2604 
     58 C58       -53.4128  -24.8888    8.3264 C.3       14 UNK         0.0134 
     59 N         -49.1158  -25.2611    9.8597 N.am      6 UNK        -0.4116 
     60 C         -48.8044  -25.8301   11.0316 C.2       5 UNK         0.5034 
     61 O         -49.6051  -25.9996   11.9484 O.2       5 UNK        -0.5045 
     62 CA        -47.3364  -26.2271   11.2399 C.3       5 UNK         0.0224 
     63 CB        -47.0283  -27.5798   10.5807 C.3       5 UNK        -0.1978 
     64 N         -46.4162  -25.2020   10.7419 N.am      5 UNK        -0.4737 
     65 C         -46.2646  -23.9938   11.3021 C.2       4 UNK         0.5027 
     66 O         -46.8595  -23.6346   12.3169 O.2       4 UNK        -0.5211 
     67 CA        -45.3160  -23.0117   10.5940 C.3       4 UNK         0.0297 
     68 CB        -43.8629  -23.2588   11.0286 C.3       4 UNK        -0.1993 
     69 N         -45.4112  -23.0791    9.1334 N.am      4 UNK        -0.4486 
     70 C         -46.4929  -22.7211    8.4267 C.2       3 UNK         0.4961 
     71 O         -47.5222  -22.2699    8.9261 O.2       3 UNK        -0.5105 
     72 CA        -46.4403  -22.9695    6.9095 C.3       3 UNK         0.0299 
     73 CB        -45.6829  -21.8369    6.1987 C.3       3 UNK        -0.1972 
     74 N         -45.8513  -24.2655    6.5518 N.am      3 UNK        -0.4305 
     75 C         -46.3176  -25.4493    6.9717 C.2       2 UNK         0.5006 
     76 O         -47.2786  -25.5719    7.7355 O.2       2 UNK        -0.5106 
     77 CA        -45.5489  -26.6976    6.5079 C.3       2 UNK         0.0296 
     78 CB        -44.3074  -26.9173    7.3882 C.3       2 UNK        -0.2002 
     79 N         -46.3895  -27.8921    6.5801 N.am      2 UNK        -0.4032 
     80 C         -47.4665  -28.1284    5.8225 C.2       1 UNK         0.5000 
     81 O         -47.7790  -27.4408    4.8480 O.2       1 UNK        -0.5238 
     82 H82       -45.0784  -32.2146    7.3959 H         1 UNK         0.0889 
     83 H83       -46.5178  -32.8772    6.6180 H         1 UNK         0.0889 
     84 H84       -46.4295  -32.7868    8.3781 H         1 UNK         0.0889 
     85 H85       -47.7827  -31.2902    5.7480 H         1 UNK         0.3028 
     86 H86       -48.9688  -29.5275    5.3344 H         1 UNK         0.0864 
     87 H87       -48.7834  -28.8038    8.3027 H         1 UNK         0.0720 
     88 H88       -49.8065  -27.9831    7.1643 H         1 UNK         0.0720 
     89 H89       -52.5733  -30.3496    6.2653 H         1 UNK         0.0814 
     90 H90       -51.6054  -28.9837    5.7912 H         1 UNK         0.0814 
     91 H91       -51.8854  -26.8097    6.9459 H         1 UNK         0.1469 
     92 H92       -55.2522  -26.3787    9.5821 H         1 UNK         0.1381 
     93 H93       -54.0659  -30.2615    8.2220 H         1 UNK         0.1206 
     94 H94       -56.1624  -30.0039    9.3230 H         1 UNK         0.0813 
     95 H95       -56.8571  -28.4322    9.5751 H         1 UNK         0.0813 
     96 H96       -57.0687  -27.2686   11.5026 H         1 UNK         0.0638 
     97 H97       -55.6001  -26.9749   12.3672 H         1 UNK         0.0638 
     98 H98       -57.4102  -27.0094   13.9755 H         1 UNK         0.0568 
     99 H99       -60.3666  -28.6062   12.7770 H         1 UNK         0.3450 
    100 H100      -59.4682  -27.1119   12.7774 H         1 UNK         0.3450 
    101 H101      -55.2864  -28.7750   14.2083 H         1 UNK         0.2987 
    102 H102      -55.7865  -29.6588   17.6601 H         1 UNK         0.0766 
    103 H103      -54.6643  -31.6654   16.7767 H         1 UNK         0.0798 
    104 H104      -54.8697  -31.1090   15.1182 H         1 UNK         0.0798 
    105 H105      -56.2726  -31.5607   16.0796 H         1 UNK         0.0798 
    106 H106      -53.8987  -28.3925   15.7931 H         1 UNK         0.3198 
    107 H107      -51.9808  -27.3709   17.7902 H         1 UNK         0.0843 
    108 H108      -49.7714  -28.5102   18.1315 H         1 UNK         0.0831 
    109 H109      -50.5627  -30.0798   17.9878 H         1 UNK         0.0831 
    110 H110      -50.9602  -29.0083   19.3219 H         1 UNK         0.0831 
    111 H111      -51.3878  -27.2791   15.6939 H         1 UNK         0.3133 
    112 H112      -49.9754  -28.7453   13.4525 H         1 UNK         0.0566 
    113 H113      -51.5427  -29.4466   11.6147 H         1 UNK         0.0814 
    114 H114      -51.2333  -30.7548   12.7437 H         1 UNK         0.0814 
    115 H115      -52.7544  -29.8771   12.8194 H         1 UNK         0.0814 
    116 H116      -50.8511  -26.7822   12.9264 H         1 UNK         0.3091 
    117 H117      -53.2142  -25.3006   12.3171 H         1 UNK         0.0702 
    118 H118      -55.0936  -25.3519   13.9432 H         1 UNK         0.0785 
    119 H119      -54.3108  -23.7834   13.9868 H         1 UNK         0.0785 
    120 H120      -54.0059  -24.9612   15.2625 H         1 UNK         0.0785 
    121 H121      -51.4703  -24.0527   12.8237 H         1 UNK         0.2998 
    122 H122      -49.8919  -22.9096   15.5108 H         1 UNK         0.0697 
    123 H123      -48.3646  -25.3099   14.3676 H         1 UNK         0.0825 
    124 H124      -48.6363  -24.9769   16.0724 H         1 UNK         0.0825 
    125 H125      -47.6258  -23.9000   15.1232 H         1 UNK         0.0825 
    126 H126      -48.8252  -23.4165   12.8491 H         1 UNK         0.3029 
    127 H127      -50.7388  -20.8511   11.2665 H         1 UNK         0.0897 
    128 H128      -48.4879  -20.1693   10.4842 H         1 UNK         0.0792 
    129 H129      -48.7168  -19.6927   12.1587 H         1 UNK         0.0792 
    130 H130      -47.7273  -21.0941   11.7778 H         1 UNK         0.0792 
    131 H131      -48.8842  -22.6489   10.1345 H         1 UNK         0.3086 
    132 H132      -51.1497  -25.4625    9.7469 H         1 UNK         0.0583 
    133 H133      -49.8885  -23.4886    7.7752 H         1 UNK         0.1020 
    134 H134      -50.0417  -25.1780    7.4483 H         1 UNK         0.1020 
    135 H135      -53.2903  -24.5690    9.3571 H         1 UNK         0.0694 
    136 H136      -54.3741  -24.4775    8.0152 H         1 UNK         0.0694 
    137 H137      -48.3937  -25.2127    9.1433 H         1 UNK         0.2989 
    138 H138      -47.1763  -26.3319   12.3154 H         1 UNK         0.1055 
    139 H139      -47.7096  -28.3538   10.9370 H         1 UNK         0.0806 
    140 H140      -46.0156  -27.9122   10.8088 H         1 UNK         0.0806 
    141 H141      -47.1268  -27.5369    9.4968 H         1 UNK         0.0806 
    142 H142      -45.9347  -25.3983    9.8771 H         1 UNK         0.3061 
    143 H143      -45.5953  -22.0019   10.9016 H         1 UNK         0.0734 
    144 H144      -43.1885  -22.5168   10.6007 H         1 UNK         0.0832 
    145 H145      -43.7657  -23.1940   12.1134 H         1 UNK         0.0832 
    146 H146      -43.5109  -24.2468   10.7292 H         1 UNK         0.0832 
    147 H147      -44.6117  -23.4426    8.6356 H         1 UNK         0.3156 
    148 H148      -47.4694  -22.9693    6.5439 H         1 UNK         0.0589 
    149 H149      -44.6316  -21.8060    6.4877 H         1 UNK         0.0808 
    150 H150      -45.7306  -21.9463    5.1151 H         1 UNK         0.0808 
    151 H151      -46.1163  -20.8658    6.4427 H         1 UNK         0.0808 
    152 H152      -45.0527  -24.2474    5.9332 H         1 UNK         0.3098 
    153 H153      -45.2370  -26.5558    5.4712 H         1 UNK         0.0720 
    154 H154      -43.7398  -27.7880    7.0590 H         1 UNK         0.0791 
    155 H155      -44.5758  -27.0724    8.4342 H         1 UNK         0.0791 
    156 H156      -43.6338  -26.0604    7.3458 H         1 UNK         0.0791 
    157 H157      -46.2371  -28.5255    7.3622 H         1 UNK         0.3028 
@<TRIPOS>BOND
     1    1    2 1    
     2    1   82 1    
     3    1   83 1    
     4    1   84 1    
     5    2    3 2    
     6    2    4 am   BACKBONE|DICT|INTERRES
     7    4    5 1    
     8    4   85 1    
     9    5    6 1    
    10    5   80 1    
    11    5   86 1    
    12    6    7 1    
    13    6   87 1    
    14    6   88 1    
    15    7    8 1    
    16    8    9 1    
    17    8   89 1    
    18    8   90 1    
    19    9   10 ar   
    20    9   14 ar   
    21   10   11 ar   
    22   10   91 1    
    23   11   12 ar   
    24   11   58 1    
    25   12   13 ar   
    26   12   92 1    
    27   13   14 ar   
    28   13   15 1    
    29   14   93 1    
    30   15   16 1    
    31   15   94 1    
    32   15   95 1    
    33   16   17 1    
    34   17   18 1    
    35   17   96 1    
    36   17   97 1    
    37   18   19 1    
    38   18   22 1    
    39   18   98 1    
    40   19   20 am   BACKBONE|DICT|INTERRES
    41   19   21 2    
    42   20   99 1    
    43   20  100 1    
    44   22   23 am   BACKBONE|DICT|INTERRES
    45   22  101 1    
    46   23   24 2    
    47   23   25 1    
    48   25   26 1    
    49   25   27 1    
    50   25  102 1    
    51   26  103 1    
    52   26  104 1    
    53   26  105 1    
    54   27   28 am   BACKBONE|DICT|INTERRES
    55   27  106 1    
    56   28   29 2    
    57   28   30 1    
    58   30   31 1    
    59   30   32 1    
    60   30  107 1    
    61   31  108 1    
    62   31  109 1    
    63   31  110 1    
    64   32   33 am   BACKBONE|DICT|INTERRES
    65   32  111 1    
    66   33   34 2    
    67   33   35 1    
    68   35   36 1    
    69   35   37 1    
    70   35  112 1    
    71   36  113 1    
    72   36  114 1    
    73   36  115 1    
    74   37   38 am   BACKBONE|DICT|INTERRES
    75   37  116 1    
    76   38   39 2    
    77   38   40 1    
    78   40   41 1    
    79   40   42 1    
    80   40  117 1    
    81   41  118 1    
    82   41  119 1    
    83   41  120 1    
    84   42   43 am   BACKBONE|DICT|INTERRES
    85   42  121 1    
    86   43   44 2    
    87   43   45 1    
    88   45   46 1    
    89   45   47 1    
    90   45  122 1    
    91   46  123 1    
    92   46  124 1    
    93   46  125 1    
    94   47   48 am   BACKBONE|DICT|INTERRES
    95   47  126 1    
    96   48   49 2    
    97   48   50 1    
    98   50   51 1    
    99   50   52 1    
   100   50  127 1    
   101   51  128 1    
   102   51  129 1    
   103   51  130 1    
   104   52   53 am   BACKBONE|DICT|INTERRES
   105   52  131 1    
   106   53   54 2    
   107   53   55 1    
   108   55   56 1    
   109   55   59 1    
   110   55  132 1    
   111   56   57 1    
   112   56  133 1    
   113   56  134 1    
   114   57   58 1    
   115   58  135 1    
   116   58  136 1    
   117   59   60 am   BACKBONE|DICT|INTERRES
   118   59  137 1    
   119   60   61 2    
   120   60   62 1    
   121   62   63 1    
   122   62   64 1    
   123   62  138 1    
   124   63  139 1    
   125   63  140 1    
   126   63  141 1    
   127   64   65 am   BACKBONE|DICT|INTERRES
   128   64  142 1    
   129   65   66 2    
   130   65   67 1    
   131   67   68 1    
   132   67   69 1    
   133   67  143 1    
   134   68  144 1    
   135   68  145 1    
   136   68  146 1    
   137   69   70 am   BACKBONE|DICT|INTERRES
   138   69  147 1    
   139   70   71 2    
   140   70   72 1    
   141   72   73 1    
   142   72   74 1    
   143   72  148 1    
   144   73  149 1    
   145   73  150 1    
   146   73  151 1    
   147   74   75 am   BACKBONE|DICT|INTERRES
   148   74  152 1    
   149   75   76 2    
   150   75   77 1    
   151   77   78 1    
   152   77   79 1    
   153   77  153 1    
   154   78  154 1    
   155   78  155 1    
   156   78  156 1    
   157   79   80 am   BACKBONE|DICT|INTERRES
   158   79  157 1    
   159   80   81 2    
@<TRIPOS>SUBSTRUCTURE
     1 UNK         1 GROUP             0       ****    0 ROOT    
