@<TRIPOS>MOLECULE
3R207
157   159    1
SMALL
USER_CHARGES


@<TRIPOS>ATOM
      1 CA        -54.7735  -28.4318    6.2673 C.3       0 UNK        -0.1975 
      2 C         -54.5280  -29.3156    5.0484 C.2       0 UNK         0.4852 
      3 O         -55.4889  -29.8350    4.4831 O.2       0 UNK        -0.5216 
      4 N         -53.2800  -29.5346    4.6098 N.am      1 UNK        -0.4461 
      5 CA        -52.0222  -28.9559    5.1064 C.3       1 UNK         0.0864 
      6 C6        -50.8021  -29.6531    4.4496 C.3       14 UNK        -0.0898 
      7 S7        -50.7766  -31.4549    4.7362 S.3       14 UNK        -0.2598 
      8 C8        -49.5362  -31.6209    6.0677 C.3       14 UNK         0.0286 
      9 C9        -49.9987  -31.1941    7.4630 C.ar      14 UNK        -0.0844 
     10 C10       -49.0329  -30.8216    8.4037 C.ar      14 UNK        -0.0881 
     11 C11       -49.3949  -30.4857    9.7119 C.ar      14 UNK        -0.0643 
     12 C12       -50.7415  -30.5132   10.0806 C.ar      14 UNK        -0.0930 
     13 C13       -51.7210  -30.8820    9.1550 C.ar      14 UNK        -0.0827 
     14 C14       -51.3444  -31.2280    7.8534 C.ar      14 UNK        -0.1249 
     15 C15       -53.1827  -30.9367    9.5705 C.3       14 UNK         0.0141 
     16 S16       -53.8579  -29.2717    9.8353 S.3       14 UNK        -0.2313 
     17 C17       -55.6393  -29.6506    9.8795 C.3       14 UNK        -0.0915 
     18 CA        -56.4995  -28.3821   10.1018 C.3       13 UNK         0.0968 
     19 C         -58.0112  -28.7101    9.9734 C.2       13 UNK         0.5732 
     20 N         -58.5833  -28.5522    8.7875 N.am      13 UNK        -0.7310 
     21 O         -58.6583  -29.1437   10.9254 O.2       13 UNK        -0.5035 
     22 N         -56.1764  -27.7524   11.3857 N.am      13 UNK        -0.4233 
     23 C         -56.5543  -26.5353   11.7809 C.2       13 UNK         0.4989 
     24 O         -57.1946  -25.7563   11.0734 O.2       13 UNK        -0.4996 
     25 CA        -56.1341  -26.0841   13.1935 C.3       12 UNK         0.0216 
     26 CB        -57.2436  -26.3923   14.2179 C.3       12 UNK        -0.1964 
     27 N         -54.8277  -26.5797   13.6620 N.am      12 UNK        -0.4276 
     28 C         -54.4408  -27.8334   13.9487 C.2       12 UNK         0.5020 
     29 O         -55.1469  -28.8277   13.7776 O.2       12 UNK        -0.5489 
     30 CA        -53.0153  -28.0167   14.5047 C.3       11 UNK         0.0294 
     31 CB        -52.0616  -28.4424   13.3765 C.3       11 UNK        -0.2019 
     32 N         -52.4823  -26.8245   15.1775 N.am      11 UNK        -0.4493 
     33 C         -52.9818  -26.3056   16.3109 C.2       11 UNK         0.4932 
     34 O         -53.9148  -26.8107   16.9379 O.2       11 UNK        -0.5029 
     35 CA        -52.3464  -24.9925   16.8029 C.3       10 UNK         0.0280 
     36 CB        -52.8751  -24.5325   18.1787 C.3       10 UNK        -0.1976 
     37 N         -50.8824  -25.0300   16.7845 N.am      10 UNK        -0.4242 
     38 C         -50.0730  -25.8305   17.4961 C.2       10 UNK         0.5072 
     39 O         -50.4753  -26.6620   18.3115 O.2       10 UNK        -0.5224 
     40 CA        -48.5524  -25.7001   17.2691 C.3       9 UNK         0.0343 
     41 CB        -47.9872  -26.9991   16.6698 C.3       9 UNK        -0.2003 
     42 N         -48.1701  -24.5741   16.4113 N.am      9 UNK        -0.4272 
     43 C         -48.1950  -23.2833   16.7721 C.2       9 UNK         0.4988 
     44 O         -48.4659  -22.8956   17.9089 O.2       9 UNK        -0.5108 
     45 CA        -47.9144  -22.2465   15.6686 C.3       8 UNK         0.0248 
     46 CB        -46.4035  -22.0058   15.5237 C.3       8 UNK        -0.2001 
     47 N         -48.4876  -22.6105   14.3665 N.am      8 UNK        -0.4140 
     48 C         -49.7985  -22.7686   14.1251 C.2       8 UNK         0.5028 
     49 O         -50.6745  -22.5931   14.9714 O.2       8 UNK        -0.5428 
     50 CA        -50.2026  -23.2713   12.7284 C.3       7 UNK         0.0264 
     51 CB        -50.1365  -22.1444   11.6858 C.3       7 UNK        -0.1988 
     52 N         -49.3890  -24.4065   12.2912 N.am      7 UNK        -0.4454 
     53 C         -49.3614  -25.6010   12.9019 C.2       7 UNK         0.5027 
     54 O         -50.0888  -25.9017   13.8495 O.2       7 UNK        -0.5083 
     55 CA        -48.3163  -26.6104   12.3903 C.3       6 UNK         0.0844 
     56 C56       -48.8588  -27.3825   11.1622 C.3       14 UNK        -0.0967 
     57 S57       -47.6133  -28.4919   10.4211 S.3       14 UNK        -0.2604 
     58 C58       -48.3222  -30.1350   10.7316 C.3       14 UNK         0.0134 
     59 N         -47.0414  -25.9402   12.1169 N.am      6 UNK        -0.4116 
     60 C         -46.2254  -25.4198   13.0427 C.2       5 UNK         0.5034 
     61 O         -46.4432  -25.4645   14.2516 O.2       5 UNK        -0.5045 
     62 CA        -44.9729  -24.6893   12.5289 C.3       5 UNK         0.0224 
     63 CB        -43.8321  -25.6878   12.2773 C.3       5 UNK        -0.1978 
     64 N         -45.2283  -23.9195   11.3085 N.am      5 UNK        -0.4737 
     65 C         -46.0471  -22.8599   11.2388 C.2       4 UNK         0.5027 
     66 O         -46.6140  -22.3718   12.2149 O.2       4 UNK        -0.5211 
     67 CA        -46.3297  -22.2917    9.8363 C.3       4 UNK         0.0297 
     68 CB        -45.2909  -21.2206    9.4701 C.3       4 UNK        -0.1993 
     69 N         -46.3691  -23.3225    8.7910 N.am      4 UNK        -0.4486 
     70 C         -47.2269  -24.3520    8.7725 C.2       3 UNK         0.4961 
     71 O         -48.0980  -24.5263    9.6278 O.2       3 UNK        -0.5105 
     72 CA        -47.0138  -25.3903    7.6579 C.3       3 UNK         0.0299 
     73 CB        -45.7632  -26.2395    7.9461 C.3       3 UNK        -0.1972 
     74 N         -48.1678  -26.2807    7.5014 N.am      3 UNK        -0.4305 
     75 C         -49.3035  -25.9309    6.8864 C.2       2 UNK         0.5006 
     76 O         -49.4955  -24.8216    6.3778 O.2       2 UNK        -0.5106 
     77 CA        -50.4074  -26.9966    6.8066 C.3       2 UNK         0.0296 
     78 CB        -51.2396  -27.0405    8.1005 C.3       2 UNK        -0.2002 
     79 N         -51.2614  -26.6393    5.6744 N.am      2 UNK        -0.4032 
     80 C         -51.9646  -27.4293    4.8533 C.2       1 UNK         0.5000 
     81 O         -52.5582  -26.9631    3.8789 O.2       1 UNK        -0.5238 
     82 H82       -55.7564  -28.6349    6.6908 H         1 UNK         0.0889 
     83 H83       -54.7374  -27.3783    5.9923 H         1 UNK         0.0889 
     84 H84       -54.0404  -28.6187    7.0468 H         1 UNK         0.0889 
     85 H85       -53.1661  -30.1327    3.8047 H         1 UNK         0.3028 
     86 H86       -51.9822  -29.1343    6.1797 H         1 UNK         0.0864 
     87 H87       -50.8141  -29.4933    3.3694 H         1 UNK         0.0720 
     88 H88       -49.8601  -29.2277    4.7963 H         1 UNK         0.0720 
     89 H89       -48.6395  -31.0689    5.7815 H         1 UNK         0.0814 
     90 H90       -49.2410  -32.6695    6.1218 H         1 UNK         0.0814 
     91 H91       -47.9874  -30.8109    8.1264 H         1 UNK         0.1469 
     92 H92       -51.0301  -30.2594   11.0907 H         1 UNK         0.1381 
     93 H93       -52.1051  -31.5365    7.1502 H         1 UNK         0.1206 
     94 H94       -53.2840  -31.5177   10.4883 H         1 UNK         0.0813 
     95 H95       -53.7741  -31.4506    8.8111 H         1 UNK         0.0813 
     96 H96       -55.8236  -30.3849   10.6663 H         1 UNK         0.0638 
     97 H97       -55.9043  -30.1303    8.9353 H         1 UNK         0.0638 
     98 H98       -56.2477  -27.6626    9.3199 H         1 UNK         0.0568 
     99 H99       -59.5608  -28.7755    8.6844 H         1 UNK         0.3450 
    100 H100      -58.0653  -28.2010    7.9980 H         1 UNK         0.3450 
    101 H101      -55.7127  -28.3398   12.0733 H         1 UNK         0.2987 
    102 H102      -56.0301  -24.9989   13.1460 H         1 UNK         0.0766 
    103 H103      -56.9886  -26.0089   15.2061 H         1 UNK         0.0798 
    104 H104      -57.4258  -27.4635   14.3108 H         1 UNK         0.0798 
    105 H105      -58.1860  -25.9290   13.9227 H         1 UNK         0.0798 
    106 H106      -54.1307  -25.8619   13.8020 H         1 UNK         0.3198 
    107 H107      -53.0555  -28.8223   15.2409 H         1 UNK         0.0843 
    108 H108      -51.9869  -27.6774   12.6027 H         1 UNK         0.0831 
    109 H109      -52.4144  -29.3561   12.8962 H         1 UNK         0.0831 
    110 H110      -51.0587  -28.6405   13.7553 H         1 UNK         0.0831 
    111 H111      -51.6704  -26.3830   14.7480 H         1 UNK         0.3133 
    112 H112      -52.6343  -24.2313   16.0767 H         1 UNK         0.0566 
    113 H113      -52.4218  -23.5885   18.4813 H         1 UNK         0.0814 
    114 H114      -53.9544  -24.3783   18.1497 H         1 UNK         0.0814 
    115 H115      -52.6743  -25.2670   18.9592 H         1 UNK         0.0814 
    116 H116      -50.4526  -24.3839   16.1324 H         1 UNK         0.3091 
    117 H117      -48.0935  -25.5512   18.2486 H         1 UNK         0.0702 
    118 H118      -46.9035  -26.9487   16.5633 H         1 UNK         0.0785 
    119 H119      -48.4122  -27.2052   15.6871 H         1 UNK         0.0785 
    120 H120      -48.2088  -27.8561   17.3072 H         1 UNK         0.0785 
    121 H121      -47.8469  -24.8113   15.4780 H         1 UNK         0.2998 
    122 H122      -48.3786  -21.3072   15.9760 H         1 UNK         0.0697 
    123 H123      -45.8805  -22.9068   15.2030 H         1 UNK         0.0825 
    124 H124      -45.9649  -21.6940   16.4725 H         1 UNK         0.0825 
    125 H125      -46.1945  -21.2211   14.7964 H         1 UNK         0.0825 
    126 H126      -47.8327  -22.7148   13.5936 H         1 UNK         0.3029 
    127 H127      -51.2380  -23.6141   12.7882 H         1 UNK         0.0897 
    128 H128      -50.4532  -22.4944   10.7029 H         1 UNK         0.0792 
    129 H129      -50.7934  -21.3194   11.9644 H         1 UNK         0.0792 
    130 H130      -49.1303  -21.7382   11.5870 H         1 UNK         0.0792 
    131 H131      -48.7983  -24.2684   11.4756 H         1 UNK         0.3086 
    132 H132      -48.1410  -27.3344   13.1887 H         1 UNK         0.0583 
    133 H133      -49.7452  -27.9566   11.4360 H         1 UNK         0.1020 
    134 H134      -49.1838  -26.6882   10.3881 H         1 UNK         0.1020 
    135 H135      -47.5231  -30.8756   10.6756 H         1 UNK         0.0694 
    136 H136      -48.7105  -30.1844   11.7502 H         1 UNK         0.0694 
    137 H137      -46.8106  -25.8187   11.1423 H         1 UNK         0.2989 
    138 H138      -44.6552  -23.9924   13.3076 H         1 UNK         0.1055 
    139 H139      -43.6108  -26.2607   13.1791 H         1 UNK         0.0806 
    140 H140      -42.9138  -25.1766   11.9878 H         1 UNK         0.0806 
    141 H141      -44.0822  -26.4019   11.4914 H         1 UNK         0.0806 
    142 H142      -44.7933  -24.2450   10.4577 H         1 UNK         0.3061 
    143 H143      -47.3127  -21.8173    9.8674 H         1 UNK         0.0734 
    144 H144      -45.5295  -20.7435    8.5194 H         1 UNK         0.0832 
    145 H145      -45.2609  -20.4340   10.2256 H         1 UNK         0.0832 
    146 H146      -44.2859  -21.6379    9.3954 H         1 UNK         0.0832 
    147 H147      -45.6811  -23.2493    8.0547 H         1 UNK         0.3156 
    148 H148      -46.8582  -24.8561    6.7179 H         1 UNK         0.0589 
    149 H149      -45.8210  -26.7378    8.9135 H         1 UNK         0.0808 
    150 H150      -45.6193  -27.0057    7.1841 H         1 UNK         0.0808 
    151 H151      -44.8615  -25.6260    7.9530 H         1 UNK         0.0808 
    152 H152      -48.1024  -27.1864    7.9440 H         1 UNK         0.3098 
    153 H153      -49.9381  -27.9666    6.6429 H         1 UNK         0.0720 
    154 H154      -52.1609  -27.6046    7.9753 H         1 UNK         0.0791 
    155 H155      -51.5108  -26.0417    8.4456 H         1 UNK         0.0791 
    156 H156      -50.6849  -27.5305    8.8989 H         1 UNK         0.0791 
    157 H157      -51.1946  -25.6536    5.4495 H         1 UNK         0.3028 
@<TRIPOS>BOND
     1    1    2 1    
     2    1   82 1    
     3    1   83 1    
     4    1   84 1    
     5    2    3 2    
     6    2    4 am   BACKBONE|DICT|INTERRES
     7    4    5 1    
     8    4   85 1    
     9    5    6 1    
    10    5   80 1    
    11    5   86 1    
    12    6    7 1    
    13    6   87 1    
    14    6   88 1    
    15    7    8 1    
    16    8    9 1    
    17    8   89 1    
    18    8   90 1    
    19    9   10 ar   
    20    9   14 ar   
    21   10   11 ar   
    22   10   91 1    
    23   11   12 ar   
    24   11   58 1    
    25   12   13 ar   
    26   12   92 1    
    27   13   14 ar   
    28   13   15 1    
    29   14   93 1    
    30   15   16 1    
    31   15   94 1    
    32   15   95 1    
    33   16   17 1    
    34   17   18 1    
    35   17   96 1    
    36   17   97 1    
    37   18   19 1    
    38   18   22 1    
    39   18   98 1    
    40   19   20 am   BACKBONE|DICT|INTERRES
    41   19   21 2    
    42   20   99 1    
    43   20  100 1    
    44   22   23 am   BACKBONE|DICT|INTERRES
    45   22  101 1    
    46   23   24 2    
    47   23   25 1    
    48   25   26 1    
    49   25   27 1    
    50   25  102 1    
    51   26  103 1    
    52   26  104 1    
    53   26  105 1    
    54   27   28 am   BACKBONE|DICT|INTERRES
    55   27  106 1    
    56   28   29 2    
    57   28   30 1    
    58   30   31 1    
    59   30   32 1    
    60   30  107 1    
    61   31  108 1    
    62   31  109 1    
    63   31  110 1    
    64   32   33 am   BACKBONE|DICT|INTERRES
    65   32  111 1    
    66   33   34 2    
    67   33   35 1    
    68   35   36 1    
    69   35   37 1    
    70   35  112 1    
    71   36  113 1    
    72   36  114 1    
    73   36  115 1    
    74   37   38 am   BACKBONE|DICT|INTERRES
    75   37  116 1    
    76   38   39 2    
    77   38   40 1    
    78   40   41 1    
    79   40   42 1    
    80   40  117 1    
    81   41  118 1    
    82   41  119 1    
    83   41  120 1    
    84   42   43 am   BACKBONE|DICT|INTERRES
    85   42  121 1    
    86   43   44 2    
    87   43   45 1    
    88   45   46 1    
    89   45   47 1    
    90   45  122 1    
    91   46  123 1    
    92   46  124 1    
    93   46  125 1    
    94   47   48 am   BACKBONE|DICT|INTERRES
    95   47  126 1    
    96   48   49 2    
    97   48   50 1    
    98   50   51 1    
    99   50   52 1    
   100   50  127 1    
   101   51  128 1    
   102   51  129 1    
   103   51  130 1    
   104   52   53 am   BACKBONE|DICT|INTERRES
   105   52  131 1    
   106   53   54 2    
   107   53   55 1    
   108   55   56 1    
   109   55   59 1    
   110   55  132 1    
   111   56   57 1    
   112   56  133 1    
   113   56  134 1    
   114   57   58 1    
   115   58  135 1    
   116   58  136 1    
   117   59   60 am   BACKBONE|DICT|INTERRES
   118   59  137 1    
   119   60   61 2    
   120   60   62 1    
   121   62   63 1    
   122   62   64 1    
   123   62  138 1    
   124   63  139 1    
   125   63  140 1    
   126   63  141 1    
   127   64   65 am   BACKBONE|DICT|INTERRES
   128   64  142 1    
   129   65   66 2    
   130   65   67 1    
   131   67   68 1    
   132   67   69 1    
   133   67  143 1    
   134   68  144 1    
   135   68  145 1    
   136   68  146 1    
   137   69   70 am   BACKBONE|DICT|INTERRES
   138   69  147 1    
   139   70   71 2    
   140   70   72 1    
   141   72   73 1    
   142   72   74 1    
   143   72  148 1    
   144   73  149 1    
   145   73  150 1    
   146   73  151 1    
   147   74   75 am   BACKBONE|DICT|INTERRES
   148   74  152 1    
   149   75   76 2    
   150   75   77 1    
   151   77   78 1    
   152   77   79 1    
   153   77  153 1    
   154   78  154 1    
   155   78  155 1    
   156   78  156 1    
   157   79   80 am   BACKBONE|DICT|INTERRES
   158   79  157 1    
   159   80   81 2    
@<TRIPOS>SUBSTRUCTURE
     1 UNK         1 GROUP             0       ****    0 ROOT    
