@<TRIPOS>MOLECULE
3R207
157   159    1
SMALL
USER_CHARGES


@<TRIPOS>ATOM
      1 CA        -48.0006  -32.1998    5.2137 C.3       0 UNK        -0.1975 
      2 C         -48.3319  -30.8508    4.5930 C.2       0 UNK         0.4852 
      3 O         -47.6998  -30.4569    3.6122 O.2       0 UNK        -0.5216 
      4 N         -49.3169  -30.1395    5.1581 N.am      1 UNK        -0.4461 
      5 CA        -49.7832  -28.8268    4.6890 C.3       1 UNK         0.0864 
      6 C6        -51.1676  -28.4662    5.2780 C.3       14 UNK        -0.0898 
      7 S7        -52.4721  -29.6442    4.7858 S.3       14 UNK        -0.2598 
      8 C8        -53.9640  -28.6045    4.9147 C.3       14 UNK         0.0286 
      9 C9        -54.3240  -28.3205    6.3660 C.ar      14 UNK        -0.0844 
     10 C10       -53.7351  -27.2474    7.0400 C.ar      14 UNK        -0.0881 
     11 C11       -54.0202  -27.0090    8.3865 C.ar      14 UNK        -0.0643 
     12 C12       -54.9385  -27.8286    9.0508 C.ar      14 UNK        -0.0930 
     13 C13       -55.5585  -28.8882    8.3791 C.ar      14 UNK        -0.0827 
     14 C14       -55.2417  -29.1328    7.0390 C.ar      14 UNK        -0.1249 
     15 C15       -56.5875  -29.7587    9.0879 C.3       14 UNK         0.0141 
     16 S16       -55.9063  -31.3734    9.5837 S.3       14 UNK        -0.2313 
     17 C17       -54.9093  -30.9176   11.0394 C.3       14 UNK        -0.0915 
     18 CA        -55.6898  -31.0892   12.3708 C.3       13 UNK         0.0968 
     19 C         -55.6345  -32.5546   12.8868 C.2       13 UNK         0.5732 
     20 N         -56.6212  -33.3729   12.5474 N.am      13 UNK        -0.7310 
     21 O         -54.6890  -32.9621   13.5599 O.2       13 UNK        -0.5035 
     22 N         -55.2178  -30.1135   13.3584 N.am      13 UNK        -0.4233 
     23 C         -55.7276  -29.8905   14.5729 C.2       13 UNK         0.4989 
     24 O         -56.7307  -30.4541   15.0122 O.2       13 UNK        -0.4996 
     25 CA        -55.0074  -28.8463   15.4482 C.3       12 UNK         0.0216 
     26 CB        -53.7104  -29.4271   16.0429 C.3       12 UNK        -0.1964 
     27 N         -54.7622  -27.5489   14.7977 N.am      12 UNK        -0.4276 
     28 C         -54.0197  -27.2587   13.7200 C.2       12 UNK         0.5020 
     29 O         -53.3740  -28.0874   13.0778 O.2       12 UNK        -0.5489 
     30 CA        -53.9891  -25.7883   13.2785 C.3       11 UNK         0.0294 
     31 CB        -55.3726  -25.2852   12.8214 C.3       11 UNK        -0.2019 
     32 N         -53.3777  -24.9102   14.2784 N.am      11 UNK        -0.4493 
     33 C         -53.8011  -24.5854   15.5070 C.2       11 UNK         0.4932 
     34 O         -54.8931  -24.9136   15.9759 O.2       11 UNK        -0.5029 
     35 CA        -52.7733  -23.8098   16.3537 C.3       10 UNK         0.0280 
     36 CB        -53.2800  -23.4491   17.7664 C.3       10 UNK        -0.1976 
     37 N         -51.4960  -24.5372   16.3939 N.am      10 UNK        -0.4242 
     38 C         -51.2751  -25.7517   16.9230 C.2       10 UNK         0.5072 
     39 O         -52.0828  -26.3525   17.6321 O.2       10 UNK        -0.5224 
     40 CA        -49.9509  -26.4533   16.5726 C.3       9 UNK         0.0343 
     41 CB        -50.2167  -27.6074   15.5911 C.3       9 UNK        -0.2003 
     42 N         -48.9314  -25.5710   15.9982 N.am      9 UNK        -0.4272 
     43 C         -48.1592  -24.7406   16.7122 C.2       9 UNK         0.4988 
     44 O         -48.2597  -24.5903   17.9304 O.2       9 UNK        -0.5108 
     45 CA        -47.0854  -23.9521   15.9423 C.3       8 UNK         0.0248 
     46 CB        -45.8712  -24.8452   15.6393 C.3       8 UNK        -0.2001 
     47 N         -47.5835  -23.3600   14.6986 N.am      8 UNK        -0.4140 
     48 C         -48.4865  -22.3705   14.6408 C.2       8 UNK         0.5028 
     49 O         -48.9780  -21.8301   15.6322 O.2       8 UNK        -0.5428 
     50 CA        -48.9444  -21.9241   13.2414 C.3       7 UNK         0.0264 
     51 CB        -47.9167  -20.9743   12.6057 C.3       7 UNK        -0.1988 
     52 N         -49.2117  -23.0466   12.3378 N.am      7 UNK        -0.4454 
     53 C         -50.1480  -23.9815   12.5544 C.2       7 UNK         0.5027 
     54 O         -50.9040  -23.9714   13.5251 O.2       7 UNK        -0.5083 
     55 CA        -50.2426  -25.1486   11.5521 C.3       6 UNK         0.0844 
     56 C56       -51.0446  -24.7314   10.2970 C.3       14 UNK        -0.0967 
     57 S57       -51.5492  -26.1779    9.3106 S.3       14 UNK        -0.2604 
     58 C58       -53.3331  -25.8640    9.1141 C.3       14 UNK         0.0134 
     59 N         -48.9219  -25.6993   11.2284 N.am      6 UNK        -0.4116 
     60 C         -48.0782  -26.2255   12.1297 C.2       5 UNK         0.5034 
     61 O         -48.3427  -26.3670   13.3224 O.2       5 UNK        -0.5045 
     62 CA        -46.6718  -26.5872   11.6360 C.3       5 UNK         0.0224 
     63 CB        -46.6686  -27.9402   10.9078 C.3       5 UNK        -0.1978 
     64 N         -46.1208  -25.5378   10.7761 N.am      5 UNK        -0.4737 
     65 C         -45.7653  -24.3222   11.2187 C.2       4 UNK         0.5027 
     66 O         -45.8183  -23.9835   12.4007 O.2       4 UNK        -0.5211 
     67 CA        -45.3145  -23.2999   10.1621 C.3       4 UNK         0.0297 
     68 CB        -43.8179  -23.4659    9.8558 C.3       4 UNK        -0.1993 
     69 N         -46.0847  -23.3895    8.9192 N.am      4 UNK        -0.4486 
     70 C         -47.3959  -23.1281    8.8168 C.2       3 UNK         0.4961 
     71 O         -48.0923  -22.7384    9.7527 O.2       3 UNK        -0.5105 
     72 CA        -48.0525  -23.3921    7.4514 C.3       3 UNK         0.0299 
     73 CB        -47.9520  -22.1481    6.5551 C.3       3 UNK        -0.1972 
     74 N         -47.4938  -24.5534    6.7508 N.am      3 UNK        -0.4305 
     75 C         -47.5321  -25.8104    7.2131 C.2       2 UNK         0.5006 
     76 O         -48.0270  -26.1301    8.2962 O.2       2 UNK        -0.5106 
     77 CA        -46.8731  -26.8859    6.3376 C.3       2 UNK         0.0296 
     78 CB        -45.7251  -27.5824    7.0875 C.3       2 UNK        -0.2002 
     79 N         -47.8586  -27.8816    5.9223 N.am      2 UNK        -0.4032 
     80 C         -48.7762  -27.6870    4.9638 C.2       1 UNK         0.5000 
     81 O         -48.8490  -26.6521    4.2973 O.2       1 UNK        -0.5238 
     82 H82       -48.6373  -32.4227    6.0698 H         1 UNK         0.0889 
     83 H83       -46.9639  -32.2143    5.5488 H         1 UNK         0.0889 
     84 H84       -48.1324  -32.9930    4.4783 H         1 UNK         0.0889 
     85 H85       -49.8228  -30.5252    5.9432 H         1 UNK         0.3028 
     86 H86       -49.8885  -28.8849    3.6032 H         1 UNK         0.0864 
     87 H87       -51.4660  -27.4716    4.9410 H         1 UNK         0.0720 
     88 H88       -51.1256  -28.4245    6.3685 H         1 UNK         0.0720 
     89 H89       -54.7909  -29.1165    4.4202 H         1 UNK         0.0814 
     90 H90       -53.8177  -27.6717    4.3678 H         1 UNK         0.0814 
     91 H91       -53.0289  -26.6089    6.5281 H         1 UNK         0.1469 
     92 H92       -55.1706  -27.6419   10.0902 H         1 UNK         0.1381 
     93 H93       -55.7078  -29.9607    6.5219 H         1 UNK         0.1206 
     94 H94       -56.9923  -29.2484    9.9635 H         1 UNK         0.0813 
     95 H95       -57.4336  -29.9277    8.4202 H         1 UNK         0.0813 
     96 H96       -54.5824  -29.8850   10.9155 H         1 UNK         0.0638 
     97 H97       -53.9903  -31.5070   11.0376 H         1 UNK         0.0638 
     98 H98       -56.7371  -30.8352   12.1960 H         1 UNK         0.0568 
     99 H99       -56.5951  -34.3301   12.8617 H         1 UNK         0.3450 
    100 H100      -57.3844  -33.0540   11.9712 H         1 UNK         0.3450 
    101 H101      -54.3974  -29.5670   13.1029 H         1 UNK         0.2987 
    102 H102      -55.6757  -28.6291   16.2831 H         1 UNK         0.0766 
    103 H103      -53.9080  -30.3584   16.5753 H         1 UNK         0.0798 
    104 H104      -53.2621  -28.7359   16.7565 H         1 UNK         0.0798 
    105 H105      -52.9687  -29.6449   15.2740 H         1 UNK         0.0798 
    106 H106      -55.1883  -26.7489   15.2587 H         1 UNK         0.3198 
    107 H107      -53.3266  -25.7420   12.4137 H         1 UNK         0.0843 
    108 H108      -55.3090  -24.2752   12.4167 H         1 UNK         0.0831 
    109 H109      -56.1009  -25.2727   13.6323 H         1 UNK         0.0831 
    110 H110      -55.7771  -25.9235   12.0349 H         1 UNK         0.0831 
    111 H111      -52.4458  -24.5759   14.0268 H         1 UNK         0.3133 
    112 H112      -52.5758  -22.8748   15.8272 H         1 UNK         0.0566 
    113 H113      -52.5207  -22.9114   18.3340 H         1 UNK         0.0814 
    114 H114      -53.5662  -24.3310   18.3398 H         1 UNK         0.0814 
    115 H115      -54.1589  -22.8063   17.7078 H         1 UNK         0.0814 
    116 H116      -50.7716  -24.1622   15.7937 H         1 UNK         0.3091 
    117 H117      -49.5552  -26.8811   17.4962 H         1 UNK         0.0702 
    118 H118      -49.2982  -28.1403   15.3449 H         1 UNK         0.0785 
    119 H119      -50.6577  -27.2505   14.6588 H         1 UNK         0.0785 
    120 H120      -50.9054  -28.3351   16.0202 H         1 UNK         0.0785 
    121 H121      -48.7507  -25.6791   15.0016 H         1 UNK         0.2998 
    122 H122      -46.7498  -23.1366   16.5864 H         1 UNK         0.0697 
    123 H123      -46.1289  -25.6637   14.9663 H         1 UNK         0.0825 
    124 H124      -45.4712  -25.2860   16.5534 H         1 UNK         0.0825 
    125 H125      -45.0665  -24.2745   15.1752 H         1 UNK         0.0825 
    126 H126      -47.1851  -23.7114   13.8321 H         1 UNK         0.3029 
    127 H127      -49.8805  -21.3749   13.3639 H         1 UNK         0.0897 
    128 H128      -46.9603  -21.4687   12.4354 H         1 UNK         0.0792 
    129 H129      -47.7297  -20.1141   13.2498 H         1 UNK         0.0792 
    130 H130      -48.2699  -20.5918   11.6479 H         1 UNK         0.0792 
    131 H131      -48.6703  -23.0796   11.4754 H         1 UNK         0.3086 
    132 H132      -50.7976  -25.9429   12.0568 H         1 UNK         0.0583 
    133 H133      -51.9375  -24.1704   10.5812 H         1 UNK         0.1020 
    134 H134      -50.4600  -24.0614    9.6652 H         1 UNK         0.1020 
    135 H135      -53.7866  -25.7095   10.0932 H         1 UNK         0.0694 
    136 H136      -53.4780  -24.9393    8.5534 H         1 UNK         0.0694 
    137 H137      -48.6353  -25.6615   10.2559 H         1 UNK         0.2989 
    138 H138      -46.0263  -26.6757   12.5131 H         1 UNK         0.1055 
    139 H139      -47.3434  -27.9468   10.0521 H         1 UNK         0.0806 
    140 H140      -45.6706  -28.2005   10.5551 H         1 UNK         0.0806 
    141 H141      -46.9928  -28.7378   11.5775 H         1 UNK         0.0806 
    142 H142      -46.1109  -25.7175    9.7825 H         1 UNK         0.3061 
    143 H143      -45.4688  -22.3027   10.5796 H         1 UNK         0.0734 
    144 H144      -43.5987  -24.4380    9.4123 H         1 UNK         0.0832 
    145 H145      -43.4645  -22.6952    9.1706 H         1 UNK         0.0832 
    146 H146      -43.2237  -23.3829   10.7671 H         1 UNK         0.0832 
    147 H147      -45.5924  -23.6976    8.0935 H         1 UNK         0.3156 
    148 H148      -49.1101  -23.5965    7.6300 H         1 UNK         0.0589 
    149 H149      -48.4955  -22.2872    5.6203 H         1 UNK         0.0808 
    150 H150      -48.3822  -21.2761    7.0502 H         1 UNK         0.0808 
    151 H151      -46.9170  -21.9060    6.3104 H         1 UNK         0.0808 
    152 H152      -47.0837  -24.3822    5.8434 H         1 UNK         0.3098 
    153 H153      -46.4533  -26.4160    5.4453 H         1 UNK         0.0720 
    154 H154      -44.9849  -26.8592    7.4324 H         1 UNK         0.0791 
    155 H155      -45.2066  -28.2918    6.4421 H         1 UNK         0.0791 
    156 H156      -46.0819  -28.1281    7.9609 H         1 UNK         0.0791 
    157 H157      -47.8876  -28.7436    6.4459 H         1 UNK         0.3028 
@<TRIPOS>BOND
     1    1    2 1    
     2    1   82 1    
     3    1   83 1    
     4    1   84 1    
     5    2    3 2    
     6    2    4 am   BACKBONE|DICT|INTERRES
     7    4    5 1    
     8    4   85 1    
     9    5    6 1    
    10    5   80 1    
    11    5   86 1    
    12    6    7 1    
    13    6   87 1    
    14    6   88 1    
    15    7    8 1    
    16    8    9 1    
    17    8   89 1    
    18    8   90 1    
    19    9   10 ar   
    20    9   14 ar   
    21   10   11 ar   
    22   10   91 1    
    23   11   12 ar   
    24   11   58 1    
    25   12   13 ar   
    26   12   92 1    
    27   13   14 ar   
    28   13   15 1    
    29   14   93 1    
    30   15   16 1    
    31   15   94 1    
    32   15   95 1    
    33   16   17 1    
    34   17   18 1    
    35   17   96 1    
    36   17   97 1    
    37   18   19 1    
    38   18   22 1    
    39   18   98 1    
    40   19   20 am   BACKBONE|DICT|INTERRES
    41   19   21 2    
    42   20   99 1    
    43   20  100 1    
    44   22   23 am   BACKBONE|DICT|INTERRES
    45   22  101 1    
    46   23   24 2    
    47   23   25 1    
    48   25   26 1    
    49   25   27 1    
    50   25  102 1    
    51   26  103 1    
    52   26  104 1    
    53   26  105 1    
    54   27   28 am   BACKBONE|DICT|INTERRES
    55   27  106 1    
    56   28   29 2    
    57   28   30 1    
    58   30   31 1    
    59   30   32 1    
    60   30  107 1    
    61   31  108 1    
    62   31  109 1    
    63   31  110 1    
    64   32   33 am   BACKBONE|DICT|INTERRES
    65   32  111 1    
    66   33   34 2    
    67   33   35 1    
    68   35   36 1    
    69   35   37 1    
    70   35  112 1    
    71   36  113 1    
    72   36  114 1    
    73   36  115 1    
    74   37   38 am   BACKBONE|DICT|INTERRES
    75   37  116 1    
    76   38   39 2    
    77   38   40 1    
    78   40   41 1    
    79   40   42 1    
    80   40  117 1    
    81   41  118 1    
    82   41  119 1    
    83   41  120 1    
    84   42   43 am   BACKBONE|DICT|INTERRES
    85   42  121 1    
    86   43   44 2    
    87   43   45 1    
    88   45   46 1    
    89   45   47 1    
    90   45  122 1    
    91   46  123 1    
    92   46  124 1    
    93   46  125 1    
    94   47   48 am   BACKBONE|DICT|INTERRES
    95   47  126 1    
    96   48   49 2    
    97   48   50 1    
    98   50   51 1    
    99   50   52 1    
   100   50  127 1    
   101   51  128 1    
   102   51  129 1    
   103   51  130 1    
   104   52   53 am   BACKBONE|DICT|INTERRES
   105   52  131 1    
   106   53   54 2    
   107   53   55 1    
   108   55   56 1    
   109   55   59 1    
   110   55  132 1    
   111   56   57 1    
   112   56  133 1    
   113   56  134 1    
   114   57   58 1    
   115   58  135 1    
   116   58  136 1    
   117   59   60 am   BACKBONE|DICT|INTERRES
   118   59  137 1    
   119   60   61 2    
   120   60   62 1    
   121   62   63 1    
   122   62   64 1    
   123   62  138 1    
   124   63  139 1    
   125   63  140 1    
   126   63  141 1    
   127   64   65 am   BACKBONE|DICT|INTERRES
   128   64  142 1    
   129   65   66 2    
   130   65   67 1    
   131   67   68 1    
   132   67   69 1    
   133   67  143 1    
   134   68  144 1    
   135   68  145 1    
   136   68  146 1    
   137   69   70 am   BACKBONE|DICT|INTERRES
   138   69  147 1    
   139   70   71 2    
   140   70   72 1    
   141   72   73 1    
   142   72   74 1    
   143   72  148 1    
   144   73  149 1    
   145   73  150 1    
   146   73  151 1    
   147   74   75 am   BACKBONE|DICT|INTERRES
   148   74  152 1    
   149   75   76 2    
   150   75   77 1    
   151   77   78 1    
   152   77   79 1    
   153   77  153 1    
   154   78  154 1    
   155   78  155 1    
   156   78  156 1    
   157   79   80 am   BACKBONE|DICT|INTERRES
   158   79  157 1    
   159   80   81 2    
@<TRIPOS>SUBSTRUCTURE
     1 UNK         1 GROUP             0       ****    0 ROOT    
