@<TRIPOS>MOLECULE
3R207
157   159    1
SMALL
USER_CHARGES


@<TRIPOS>ATOM
      1 CA        -51.1177  -31.3012   10.0030 C.3       0 UNK        -0.1975 
      2 C         -50.1073  -30.5144    9.1821 C.2       0 UNK         0.4852 
      3 O         -49.5787  -29.5173    9.6706 O.2       0 UNK        -0.5216 
      4 N         -49.8197  -30.9824    7.9564 N.am      1 UNK        -0.4461 
      5 CA        -48.9671  -30.3898    6.9056 C.3       1 UNK         0.0864 
      6 C6        -49.7019  -29.3164    6.0507 C.3       14 UNK        -0.0898 
      7 S7        -50.0501  -27.7286    6.8861 S.3       14 UNK        -0.2598 
      8 C8        -51.8514  -27.8422    7.1070 C.3       14 UNK         0.0286 
      9 C9        -52.4177  -26.5788    7.7359 C.ar      14 UNK        -0.0844 
     10 C10       -52.5861  -25.4284    6.9599 C.ar      14 UNK        -0.0881 
     11 C11       -53.1212  -24.2654    7.5200 C.ar      14 UNK        -0.0643 
     12 C12       -53.5144  -24.2670    8.8624 C.ar      14 UNK        -0.0930 
     13 C13       -53.3359  -25.4057    9.6536 C.ar      14 UNK        -0.0827 
     14 C14       -52.7824  -26.5582    9.0856 C.ar      14 UNK        -0.1249 
     15 C15       -53.7135  -25.3739   11.1284 C.3       14 UNK         0.0141 
     16 S16       -55.5150  -25.4441   11.3833 S.3       14 UNK        -0.2313 
     17 C17       -55.9081  -27.1421   10.8432 C.3       14 UNK        -0.0915 
     18 CA        -56.5838  -27.9950   11.9480 C.3       13 UNK         0.0968 
     19 C         -57.0126  -29.3768   11.3696 C.2       13 UNK         0.5732 
     20 N         -56.3628  -30.4823   11.7184 N.am      13 UNK        -0.7310 
     21 O         -57.9596  -29.4443   10.5895 O.2       13 UNK        -0.5035 
     22 N         -55.7538  -28.0779   13.1588 N.am      13 UNK        -0.4233 
     23 C         -56.1674  -28.5473   14.3430 C.2       13 UNK         0.4989 
     24 O         -57.3454  -28.8072   14.5956 O.2       13 UNK        -0.4996 
     25 CA        -55.0878  -28.7766   15.4241 C.3       12 UNK         0.0216 
     26 CB        -55.4274  -29.9703   16.3412 C.3       12 UNK        -0.1964 
     27 N         -53.7170  -28.9142   14.9063 N.am      12 UNK        -0.4276 
     28 C         -53.2701  -29.8049   14.0055 C.2       12 UNK         0.5020 
     29 O         -53.9881  -30.6301   13.4386 O.2       12 UNK        -0.5489 
     30 CA        -51.7790  -29.7421   13.6429 C.3       11 UNK         0.0294 
     31 CB        -51.5319  -28.6699   12.5712 C.3       11 UNK        -0.2019 
     32 N         -50.9076  -29.4885   14.7900 N.am      11 UNK        -0.4493 
     33 C         -50.6906  -30.3346   15.8041 C.2       11 UNK         0.4932 
     34 O         -51.2050  -31.4503   15.8826 O.2       11 UNK        -0.5029 
     35 CA        -49.7413  -29.8721   16.9279 C.3       10 UNK         0.0280 
     36 CB        -48.2732  -30.1810   16.5735 C.3       10 UNK        -0.1976 
     37 N         -49.9168  -28.4723   17.3469 N.am      10 UNK        -0.4242 
     38 C         -49.6837  -27.3517   16.6497 C.2       10 UNK         0.5072 
     39 O         -49.2242  -27.3269   15.5058 O.2       10 UNK        -0.5224 
     40 CA        -50.0609  -26.0316   17.3416 C.3       9 UNK         0.0343 
     41 CB        -48.7984  -25.2679   17.7727 C.3       9 UNK        -0.2003 
     42 N         -50.8744  -25.1706   16.4800 N.am      9 UNK        -0.4272 
     43 C         -52.0536  -25.5024   15.9317 C.2       9 UNK         0.4988 
     44 O         -52.6110  -26.5866   16.1061 O.2       9 UNK        -0.5108 
     45 CA        -52.7395  -24.4472   15.0456 C.3       8 UNK         0.0248 
     46 CB        -53.8131  -23.6908   15.8438 C.3       8 UNK        -0.2001 
     47 N         -51.7984  -23.4873   14.4581 N.am      8 UNK        -0.4140 
     48 C         -50.9804  -23.7849   13.4412 C.2       8 UNK         0.5028 
     49 O         -50.9606  -24.8815   12.8813 O.2       8 UNK        -0.5428 
     50 CA        -50.0053  -22.6892   12.9880 C.3       7 UNK         0.0264 
     51 CB        -48.6065  -22.9279   13.5807 C.3       7 UNK        -0.1988 
     52 N         -49.9187  -22.6906   11.5291 N.am      7 UNK        -0.4454 
     53 C         -50.7786  -22.0502   10.7258 C.2       7 UNK         0.5027 
     54 O         -51.6513  -21.2832   11.1389 O.2       7 UNK        -0.5083 
     55 CA        -50.6358  -22.3294    9.2161 C.3       6 UNK         0.0844 
     56 C56       -51.5679  -21.4530    8.3312 C.3       14 UNK        -0.0967 
     57 S57       -51.6842  -22.0720    6.6185 S.3       14 UNK        -0.2604 
     58 C58       -53.2509  -23.0049    6.6770 C.3       14 UNK         0.0134 
     59 N         -49.2285  -22.3357    8.8083 N.am      6 UNK        -0.4116 
     60 C         -48.3894  -21.2919    8.7389 C.2       5 UNK         0.5034 
     61 O         -48.7261  -20.1272    8.9552 O.2       5 UNK        -0.5045 
     62 CA        -46.9096  -21.5839    8.4037 C.3       5 UNK         0.0224 
     63 CB        -45.9982  -21.1535    9.5665 C.3       5 UNK        -0.1978 
     64 N         -46.6392  -22.9927    8.0992 N.am      5 UNK        -0.4737 
     65 C         -46.9613  -23.6136    6.9569 C.2       4 UNK         0.5027 
     66 O         -47.4046  -23.0287    5.9690 O.2       4 UNK        -0.5211 
     67 CA        -46.7896  -25.1453    6.9128 C.3       4 UNK         0.0297 
     68 CB        -45.5618  -25.5270    6.0708 C.3       4 UNK        -0.1993 
     69 N         -46.6936  -25.8111    8.2195 N.am      4 UNK        -0.4486 
     70 C         -47.6158  -25.7954    9.1925 C.2       3 UNK         0.4961 
     71 O         -48.6254  -25.0912    9.1609 O.2       3 UNK        -0.5105 
     72 CA        -47.3475  -26.7055   10.4055 C.3       3 UNK         0.0299 
     73 CB        -48.5181  -26.7088   11.4027 C.3       3 UNK        -0.1972 
     74 N         -47.0841  -28.0814    9.9818 N.am      3 UNK        -0.4305 
     75 C         -45.8878  -28.5589    9.6072 C.2       2 UNK         0.5006 
     76 O         -44.8614  -27.8780    9.5970 O.2       2 UNK        -0.5106 
     77 CA        -45.8212  -30.0204    9.1247 C.3       2 UNK         0.0296 
     78 CB        -45.4957  -30.9602   10.2966 C.3       2 UNK        -0.2002 
     79 N         -47.0596  -30.4596    8.4803 N.am      2 UNK        -0.4032 
     80 C         -47.5335  -29.9729    7.3244 C.2       1 UNK         0.5000 
     81 O         -46.8730  -29.2343    6.5902 O.2       1 UNK        -0.5238 
     82 H82       -52.0122  -30.7021   10.1691 H         1 UNK         0.0889 
     83 H83       -50.6931  -31.5579   10.9729 H         1 UNK         0.0889 
     84 H84       -51.4160  -32.2257    9.5090 H         1 UNK         0.0889 
     85 H85       -50.2776  -31.8366    7.6689 H         1 UNK         0.3028 
     86 H86       -48.7867  -31.2248    6.2267 H         1 UNK         0.0864 
     87 H87       -50.6358  -29.7349    5.6730 H         1 UNK         0.0720 
     88 H88       -49.1170  -29.0905    5.1573 H         1 UNK         0.0720 
     89 H89       -52.0855  -28.7129    7.7207 H         1 UNK         0.0814 
     90 H90       -52.3270  -28.0084    6.1393 H         1 UNK         0.0814 
     91 H91       -52.2829  -25.4337    5.9217 H         1 UNK         0.1469 
     92 H92       -53.9353  -23.3738    9.3028 H         1 UNK         0.1381 
     93 H93       -52.6336  -27.4402    9.6926 H         1 UNK         0.1206 
     94 H94       -53.3380  -24.4501   11.5700 H         1 UNK         0.0813 
     95 H95       -53.2315  -26.1867   11.6728 H         1 UNK         0.0813 
     96 H96       -55.0023  -27.6386   10.4931 H         1 UNK         0.0638 
     97 H97       -56.5607  -27.0579    9.9722 H         1 UNK         0.0638 
     98 H98       -57.5084  -27.4890   12.2322 H         1 UNK         0.0568 
     99 H99       -56.6594  -31.3652   11.3357 H         1 UNK         0.3450 
    100 H100      -55.5720  -30.4519   12.3565 H         1 UNK         0.3450 
    101 H101      -54.7728  -27.8844   13.0385 H         1 UNK         0.2987 
    102 H102      -55.0882  -27.8760   16.0398 H         1 UNK         0.0766 
    103 H103      -56.3809  -29.8204   16.8489 H         1 UNK         0.0798 
    104 H104      -54.6697  -30.1042   17.1133 H         1 UNK         0.0798 
    105 H105      -55.5001  -30.9017   15.7785 H         1 UNK         0.0798 
    106 H106      -53.0592  -28.2357   15.2869 H         1 UNK         0.3198 
    107 H107      -51.5067  -30.7130   13.2241 H         1 UNK         0.0843 
    108 H108      -51.6557  -27.6604   12.9661 H         1 UNK         0.0831 
    109 H109      -52.2174  -28.7824   11.7309 H         1 UNK         0.0831 
    110 H110      -50.5215  -28.7497   12.1723 H         1 UNK         0.0831 
    111 H111      -50.4043  -28.6038   14.8122 H         1 UNK         0.3133 
    112 H112      -49.9922  -30.4679   17.8071 H         1 UNK         0.0566 
    113 H113      -47.6034  -29.9174   17.3920 H         1 UNK         0.0814 
    114 H114      -47.9435  -29.6435   15.6838 H         1 UNK         0.0814 
    115 H115      -48.1384  -31.2449   16.3744 H         1 UNK         0.0814 
    116 H116      -50.3259  -28.3625   18.2650 H         1 UNK         0.3091 
    117 H117      -50.6525  -26.2526   18.2324 H         1 UNK         0.0702 
    118 H118      -49.0496  -24.3566   18.3158 H         1 UNK         0.0785 
    119 H119      -48.1835  -24.9907   16.9151 H         1 UNK         0.0785 
    120 H120      -48.1799  -25.8773   18.4332 H         1 UNK         0.0785 
    121 H121      -50.4870  -24.2677   16.2546 H         1 UNK         0.2998 
    122 H122      -53.2396  -24.9814   14.2345 H         1 UNK         0.0697 
    123 H123      -53.3813  -23.1241   16.6697 H         1 UNK         0.0825 
    124 H124      -54.5413  -24.3830   16.2693 H         1 UNK         0.0825 
    125 H125      -54.3634  -22.9961   15.2088 H         1 UNK         0.0825 
    126 H126      -51.7713  -22.5625   14.8642 H         1 UNK         0.3029 
    127 H127      -50.3652  -21.7164   13.3310 H         1 UNK         0.0897 
    128 H128      -48.2057  -23.9027   13.3011 H         1 UNK         0.0792 
    129 H129      -48.6326  -22.8898   14.6704 H         1 UNK         0.0792 
    130 H130      -47.9000  -22.1673   13.2476 H         1 UNK         0.0792 
    131 H131      -49.2949  -23.3688   11.1143 H         1 UNK         0.3086 
    132 H132      -50.9524  -23.3658    9.1014 H         1 UNK         0.0583 
    133 H133      -52.5755  -21.4111    8.7471 H         1 UNK         0.1020 
    134 H134      -51.2243  -20.4184    8.3087 H         1 UNK         0.1020 
    135 H135      -54.0491  -22.3654    7.0571 H         1 UNK         0.0694 
    136 H136      -53.5375  -23.2740    5.6593 H         1 UNK         0.0694 
    137 H137      -48.8481  -23.2664    8.6584 H         1 UNK         0.2989 
    138 H138      -46.6568  -20.9841    7.5265 H         1 UNK         0.1055 
    139 H139      -46.2186  -21.7083   10.4795 H         1 UNK         0.0806 
    140 H140      -46.1240  -20.0935    9.7923 H         1 UNK         0.0806 
    141 H141      -44.9461  -21.3060    9.3247 H         1 UNK         0.0806 
    142 H142      -46.2756  -23.5595    8.8517 H         1 UNK         0.3061 
    143 H143      -47.6776  -25.5461    6.4195 H         1 UNK         0.0734 
    144 H144      -44.6342  -25.1886    6.5339 H         1 UNK         0.0832 
    145 H145      -45.4969  -26.6070    5.9332 H         1 UNK         0.0832 
    146 H146      -45.6135  -25.0793    5.0773 H         1 UNK         0.0832 
    147 H147      -45.8909  -26.4131    8.3618 H         1 UNK         0.3156 
    148 H148      -46.4714  -26.3120   10.9250 H         1 UNK         0.0589 
    149 H149      -49.4496  -27.0177   10.9259 H         1 UNK         0.0808 
    150 H150      -48.6822  -25.7126   11.8105 H         1 UNK         0.0808 
    151 H151      -48.3310  -27.3749   12.2451 H         1 UNK         0.0808 
    152 H152      -47.9072  -28.6749    9.8855 H         1 UNK         0.3098 
    153 H153      -45.0145  -30.0918    8.3921 H         1 UNK         0.0720 
    154 H154      -44.5625  -30.6693   10.7811 H         1 UNK         0.0791 
    155 H155      -45.3763  -31.9899    9.9589 H         1 UNK         0.0791 
    156 H156      -46.2771  -30.9433   11.0576 H         1 UNK         0.0791 
    157 H157      -47.6712  -31.0522    9.0226 H         1 UNK         0.3028 
@<TRIPOS>BOND
     1    1    2 1    
     2    1   82 1    
     3    1   83 1    
     4    1   84 1    
     5    2    3 2    
     6    2    4 am   BACKBONE|DICT|INTERRES
     7    4    5 1    
     8    4   85 1    
     9    5    6 1    
    10    5   80 1    
    11    5   86 1    
    12    6    7 1    
    13    6   87 1    
    14    6   88 1    
    15    7    8 1    
    16    8    9 1    
    17    8   89 1    
    18    8   90 1    
    19    9   10 ar   
    20    9   14 ar   
    21   10   11 ar   
    22   10   91 1    
    23   11   12 ar   
    24   11   58 1    
    25   12   13 ar   
    26   12   92 1    
    27   13   14 ar   
    28   13   15 1    
    29   14   93 1    
    30   15   16 1    
    31   15   94 1    
    32   15   95 1    
    33   16   17 1    
    34   17   18 1    
    35   17   96 1    
    36   17   97 1    
    37   18   19 1    
    38   18   22 1    
    39   18   98 1    
    40   19   20 am   BACKBONE|DICT|INTERRES
    41   19   21 2    
    42   20   99 1    
    43   20  100 1    
    44   22   23 am   BACKBONE|DICT|INTERRES
    45   22  101 1    
    46   23   24 2    
    47   23   25 1    
    48   25   26 1    
    49   25   27 1    
    50   25  102 1    
    51   26  103 1    
    52   26  104 1    
    53   26  105 1    
    54   27   28 am   BACKBONE|DICT|INTERRES
    55   27  106 1    
    56   28   29 2    
    57   28   30 1    
    58   30   31 1    
    59   30   32 1    
    60   30  107 1    
    61   31  108 1    
    62   31  109 1    
    63   31  110 1    
    64   32   33 am   BACKBONE|DICT|INTERRES
    65   32  111 1    
    66   33   34 2    
    67   33   35 1    
    68   35   36 1    
    69   35   37 1    
    70   35  112 1    
    71   36  113 1    
    72   36  114 1    
    73   36  115 1    
    74   37   38 am   BACKBONE|DICT|INTERRES
    75   37  116 1    
    76   38   39 2    
    77   38   40 1    
    78   40   41 1    
    79   40   42 1    
    80   40  117 1    
    81   41  118 1    
    82   41  119 1    
    83   41  120 1    
    84   42   43 am   BACKBONE|DICT|INTERRES
    85   42  121 1    
    86   43   44 2    
    87   43   45 1    
    88   45   46 1    
    89   45   47 1    
    90   45  122 1    
    91   46  123 1    
    92   46  124 1    
    93   46  125 1    
    94   47   48 am   BACKBONE|DICT|INTERRES
    95   47  126 1    
    96   48   49 2    
    97   48   50 1    
    98   50   51 1    
    99   50   52 1    
   100   50  127 1    
   101   51  128 1    
   102   51  129 1    
   103   51  130 1    
   104   52   53 am   BACKBONE|DICT|INTERRES
   105   52  131 1    
   106   53   54 2    
   107   53   55 1    
   108   55   56 1    
   109   55   59 1    
   110   55  132 1    
   111   56   57 1    
   112   56  133 1    
   113   56  134 1    
   114   57   58 1    
   115   58  135 1    
   116   58  136 1    
   117   59   60 am   BACKBONE|DICT|INTERRES
   118   59  137 1    
   119   60   61 2    
   120   60   62 1    
   121   62   63 1    
   122   62   64 1    
   123   62  138 1    
   124   63  139 1    
   125   63  140 1    
   126   63  141 1    
   127   64   65 am   BACKBONE|DICT|INTERRES
   128   64  142 1    
   129   65   66 2    
   130   65   67 1    
   131   67   68 1    
   132   67   69 1    
   133   67  143 1    
   134   68  144 1    
   135   68  145 1    
   136   68  146 1    
   137   69   70 am   BACKBONE|DICT|INTERRES
   138   69  147 1    
   139   70   71 2    
   140   70   72 1    
   141   72   73 1    
   142   72   74 1    
   143   72  148 1    
   144   73  149 1    
   145   73  150 1    
   146   73  151 1    
   147   74   75 am   BACKBONE|DICT|INTERRES
   148   74  152 1    
   149   75   76 2    
   150   75   77 1    
   151   77   78 1    
   152   77   79 1    
   153   77  153 1    
   154   78  154 1    
   155   78  155 1    
   156   78  156 1    
   157   79   80 am   BACKBONE|DICT|INTERRES
   158   79  157 1    
   159   80   81 2    
@<TRIPOS>SUBSTRUCTURE
     1 UNK         1 GROUP             0       ****    0 ROOT    
