@<TRIPOS>MOLECULE
3R207
157   159    1
SMALL
USER_CHARGES


@<TRIPOS>ATOM
      1 CA        -46.6710  -31.9892    3.6856 C.3       0 UNK        -0.1975 
      2 C         -47.2876  -30.5984    3.7199 C.2       0 UNK         0.4852 
      3 O         -46.9242  -29.7475    2.9064 O.2       0 UNK        -0.5216 
      4 N         -48.2244  -30.3659    4.6475 N.am      1 UNK        -0.4461 
      5 CA        -48.8699  -29.0728    4.8903 C.3       1 UNK         0.0864 
      6 C6        -50.1846  -29.2228    5.7039 C.3       14 UNK        -0.0898 
      7 S7        -50.0808  -30.3114    7.1740 S.3       14 UNK        -0.2598 
      8 C8        -49.8993  -29.1238    8.5405 C.3       14 UNK         0.0286 
      9 C9        -51.2254  -28.5170    8.9712 C.ar      14 UNK        -0.0844 
     10 C10       -51.6723  -27.3338    8.3792 C.ar      14 UNK        -0.0881 
     11 C11       -52.8461  -26.7221    8.8207 C.ar      14 UNK        -0.0643 
     12 C12       -53.5966  -27.3200    9.8329 C.ar      14 UNK        -0.0930 
     13 C13       -53.1532  -28.4884   10.4558 C.ar      14 UNK        -0.0827 
     14 C14       -51.9646  -29.0867   10.0152 C.ar      14 UNK        -0.1249 
     15 C15       -53.9206  -29.0029   11.6695 C.3       14 UNK         0.0141 
     16 S16       -54.0174  -30.8135   11.7964 S.3       14 UNK        -0.2313 
     17 C17       -54.3112  -31.0262   13.5850 C.3       14 UNK        -0.0915 
     18 CA        -55.7885  -30.7982   14.0042 C.3       13 UNK         0.0968 
     19 C         -56.1243  -31.5775   15.3114 C.2       13 UNK         0.5732 
     20 N         -56.4227  -30.9215   16.4273 N.am      13 UNK        -0.7310 
     21 O         -56.1264  -32.8063   15.3082 O.2       13 UNK        -0.5035 
     22 N         -56.1282  -29.3631   14.0662 N.am      13 UNK        -0.4233 
     23 C         -57.3786  -28.8922   13.9606 C.2       13 UNK         0.4989 
     24 O         -58.3498  -29.5960   13.6793 O.2       13 UNK        -0.4996 
     25 CA        -57.6137  -27.3999   14.2496 C.3       12 UNK         0.0216 
     26 CB        -58.1069  -27.2115   15.6939 C.3       12 UNK        -0.1964 
     27 N         -56.4444  -26.5448   14.0377 N.am      12 UNK        -0.4276 
     28 C         -56.0075  -26.1116   12.8513 C.2       12 UNK         0.5020 
     29 O         -56.5017  -26.4734   11.7836 O.2       12 UNK        -0.5489 
     30 CA        -54.8494  -25.0888   12.8236 C.3       11 UNK         0.0294 
     31 CB        -55.3987  -23.6616   12.6440 C.3       11 UNK        -0.2019 
     32 N         -53.8868  -25.1290   13.9363 N.am      11 UNK        -0.4493 
     33 C         -54.0876  -24.9588   15.2515 C.2       11 UNK         0.4932 
     34 O         -55.1974  -24.7793   15.7553 O.2       11 UNK        -0.5029 
     35 CA        -52.8425  -25.0080   16.1581 C.3       10 UNK         0.0280 
     36 CB        -53.1894  -25.3212   17.6291 C.3       10 UNK        -0.1976 
     37 N         -51.7891  -25.9093   15.6781 N.am      10 UNK        -0.4242 
     38 C         -51.8693  -27.2333   15.4651 C.2       10 UNK         0.5072 
     39 O         -52.9056  -27.8867   15.6037 O.2       10 UNK        -0.5224 
     40 CA        -50.5863  -27.9629   15.0142 C.3       9 UNK         0.0343 
     41 CB        -50.8139  -28.7265   13.6996 C.3       9 UNK        -0.2003 
     42 N         -49.4360  -27.0730   14.8391 N.am      9 UNK        -0.4272 
     43 C         -48.6348  -26.6342   15.8184 C.2       9 UNK         0.4988 
     44 O         -48.7524  -26.9632   16.9990 O.2       9 UNK        -0.5108 
     45 CA        -47.5350  -25.6334   15.4178 C.3       8 UNK         0.0248 
     46 CB        -46.3003  -26.3754   14.8833 C.3       8 UNK        -0.2001 
     47 N         -47.9770  -24.6322   14.4381 N.am      8 UNK        -0.4140 
     48 C         -48.9528  -23.7369   14.6573 C.2       8 UNK         0.5028 
     49 O         -49.5919  -23.6657   15.7072 O.2       8 UNK        -0.5428 
     50 CA        -49.3079  -22.7838   13.5035 C.3       7 UNK         0.0264 
     51 CB        -48.2487  -21.6811   13.3463 C.3       7 UNK        -0.1988 
     52 N         -49.4907  -23.4794   12.2299 N.am      7 UNK        -0.4454 
     53 C         -50.4408  -24.3962   11.9925 C.2       7 UNK         0.5027 
     54 O         -51.2982  -24.7290   12.8126 O.2       7 UNK        -0.5083 
     55 CA        -50.3823  -25.1049   10.6256 C.3       6 UNK         0.0844 
     56 C56       -50.9443  -24.2106    9.4848 C.3       14 UNK        -0.0967 
     57 S57       -52.7651  -24.0597    9.4820 S.3       14 UNK        -0.2604 
     58 C58       -53.2444  -25.3559    8.2932 C.3       14 UNK         0.0134 
     59 N         -49.0325  -25.6034   10.3235 N.am      6 UNK        -0.4116 
     60 C         -48.3194  -26.4347   11.1011 C.2       5 UNK         0.5034 
     61 O         -48.7506  -26.9536   12.1263 O.2       5 UNK        -0.5045 
     62 CA        -46.8497  -26.6798   10.7257 C.3       5 UNK         0.0224 
     63 CB        -46.7033  -27.8232    9.7176 C.3       5 UNK        -0.1978 
     64 N         -46.2069  -25.4769   10.2042 N.am      5 UNK        -0.4737 
     65 C         -45.9077  -24.4050   10.9493 C.2       4 UNK         0.5027 
     66 O         -46.0813  -24.3442   12.1667 O.2       4 UNK        -0.5211 
     67 CA        -45.3856  -23.1779   10.1857 C.3       4 UNK         0.0297 
     68 CB        -43.8841  -23.3170    9.8897 C.3       4 UNK        -0.1993 
     69 N         -46.1217  -22.9564    8.9362 N.am      4 UNK        -0.4486 
     70 C         -47.4220  -22.6351    8.8840 C.2       3 UNK         0.4961 
     71 O         -48.1157  -22.4415    9.8822 O.2       3 UNK        -0.5105 
     72 CA        -48.0684  -22.5429    7.4926 C.3       3 UNK         0.0299 
     73 CB        -47.9216  -21.1206    6.9297 C.3       3 UNK        -0.1972 
     74 N         -47.5425  -23.5108    6.5242 N.am      3 UNK        -0.4305 
     75 C         -47.7080  -24.8406    6.5839 C.2       2 UNK         0.5006 
     76 O         -48.2644  -25.4227    7.5170 O.2       2 UNK        -0.5106 
     77 CA        -47.1339  -25.6280    5.3954 C.3       2 UNK         0.0296 
     78 CB        -45.6357  -25.9398    5.5959 C.3       2 UNK        -0.2002 
     79 N         -47.9353  -26.8113    5.0395 N.am      2 UNK        -0.4032 
     80 C         -47.8818  -28.0641    5.5216 C.2       1 UNK         0.5000 
     81 O         -47.0995  -28.4532    6.3910 O.2       1 UNK        -0.5238 
     82 H82       -46.8403  -32.4513    2.7134 H         1 UNK         0.0889 
     83 H83       -47.0942  -32.6414    4.4495 H         1 UNK         0.0889 
     84 H84       -45.5958  -31.9264    3.8514 H         1 UNK         0.0889 
     85 H85       -48.4622  -31.0870    5.3142 H         1 UNK         0.3028 
     86 H86       -49.1501  -28.6766    3.9114 H         1 UNK         0.0864 
     87 H87       -50.5835  -28.2470    5.9753 H         1 UNK         0.0720 
     88 H88       -50.9433  -29.6612    5.0540 H         1 UNK         0.0720 
     89 H89       -49.2090  -28.3340    8.2464 H         1 UNK         0.0814 
     90 H90       -49.4367  -29.6327    9.3872 H         1 UNK         0.0814 
     91 H91       -51.0731  -26.8505    7.6209 H         1 UNK         0.1469 
     92 H92       -54.4961  -26.8312   10.1778 H         1 UNK         0.1381 
     93 H93       -51.5950  -29.9763   10.5060 H         1 UNK         0.1206 
     94 H94       -54.9450  -28.6329   11.6413 H         1 UNK         0.0813 
     95 H95       -53.4661  -28.5852   12.5673 H         1 UNK         0.0813 
     96 H96       -53.9954  -32.0465   13.8113 H         1 UNK         0.0638 
     97 H97       -53.6460  -30.3812   14.1594 H         1 UNK         0.0638 
     98 H98       -56.4158  -31.2563   13.2369 H         1 UNK         0.0568 
     99 H99       -56.6427  -31.4443   17.2602 H         1 UNK         0.3450 
    100 H100      -56.4167  -29.9155   16.4500 H         1 UNK         0.3450 
    101 H101      -55.3866  -28.7315   14.3321 H         1 UNK         0.2987 
    102 H102      -58.4062  -27.0637   13.5774 H         1 UNK         0.0766 
    103 H103      -58.3840  -26.1743   15.8846 H         1 UNK         0.0798 
    104 H104      -57.3450  -27.4920   16.4221 H         1 UNK         0.0798 
    105 H105      -58.9896  -27.8218   15.8911 H         1 UNK         0.0798 
    106 H106      -56.0221  -26.1154   14.8590 H         1 UNK         0.3198 
    107 H107      -54.2591  -25.3208   11.9369 H         1 UNK         0.0843 
    108 H108      -55.9863  -23.3409   13.5048 H         1 UNK         0.0831 
    109 H109      -56.0444  -23.5996   11.7669 H         1 UNK         0.0831 
    110 H110      -54.5910  -22.9437   12.4999 H         1 UNK         0.0831 
    111 H111      -52.9159  -25.2188   13.6385 H         1 UNK         0.3133 
    112 H112      -52.4127  -24.0060   16.1276 H         1 UNK         0.0566 
    113 H113      -52.2963  -25.3266   18.2540 H         1 UNK         0.0814 
    114 H114      -53.8662  -24.5721   18.0418 H         1 UNK         0.0814 
    115 H115      -53.6767  -26.2915   17.7311 H         1 UNK         0.0814 
    116 H116      -50.8988  -25.4594   15.4989 H         1 UNK         0.3091 
    117 H117      -50.3455  -28.6934   15.7889 H         1 UNK         0.0702 
    118 H118      -51.5786  -29.4923   13.8156 H         1 UNK         0.0785 
    119 H119      -51.1285  -28.0577   12.8972 H         1 UNK         0.0785 
    120 H120      -49.9059  -29.2328   13.3717 H         1 UNK         0.0785 
    121 H121      -49.2285  -26.8035   13.8783 H         1 UNK         0.2998 
    122 H122      -47.2392  -25.0933   16.3196 H         1 UNK         0.0697 
    123 H123      -46.5338  -26.9495   13.9871 H         1 UNK         0.0825 
    124 H124      -45.9143  -27.0748   15.6260 H         1 UNK         0.0825 
    125 H125      -45.4939  -25.6835   14.6388 H         1 UNK         0.0825 
    126 H126      -47.4723  -24.5998   13.5561 H         1 UNK         0.3029 
    127 H127      -50.2578  -22.3064   13.7539 H         1 UNK         0.0897 
    128 H128      -48.5414  -20.9581   12.5845 H         1 UNK         0.0792 
    129 H129      -47.2774  -22.0868   13.0624 H         1 UNK         0.0792 
    130 H130      -48.1143  -21.1331   14.2799 H         1 UNK         0.0792 
    131 H131      -48.8514  -23.2360   11.4767 H         1 UNK         0.3086 
    132 H132      -51.0089  -25.9923   10.7171 H         1 UNK         0.0583 
    133 H133      -50.5324  -23.2030    9.5376 H         1 UNK         0.1020 
    134 H134      -50.6349  -24.5977    8.5138 H         1 UNK         0.1020 
    135 H135      -54.3237  -25.3196    8.1382 H         1 UNK         0.0694 
    136 H136      -52.7837  -25.1585    7.3240 H         1 UNK         0.0694 
    137 H137      -48.6172  -25.2910    9.4520 H         1 UNK         0.2989 
    138 H138      -46.3256  -26.9743   11.6369 H         1 UNK         0.1055 
    139 H139      -47.2055  -28.7257   10.0675 H         1 UNK         0.0806 
    140 H140      -45.6562  -28.0775    9.5539 H         1 UNK         0.0806 
    141 H141      -47.1319  -27.5527    8.7553 H         1 UNK         0.0806 
    142 H142      -46.0662  -25.4286    9.2058 H         1 UNK         0.3061 
    143 H143      -45.5300  -22.3034   10.8242 H         1 UNK         0.0734 
    144 H144      -43.4881  -22.4185    9.4160 H         1 UNK         0.0832 
    145 H145      -43.3198  -23.4705   10.8107 H         1 UNK         0.0832 
    146 H146      -43.6739  -24.1635    9.2348 H         1 UNK         0.0832 
    147 H147      -45.6191  -23.0852    8.0702 H         1 UNK         0.3156 
    148 H148      -49.1341  -22.7449    7.6106 H         1 UNK         0.0589 
    149 H149      -46.8775  -20.8585    6.7538 H         1 UNK         0.0808 
    150 H150      -48.4603  -21.0079    5.9885 H         1 UNK         0.0808 
    151 H151      -48.3297  -20.3833    7.6229 H         1 UNK         0.0808 
    152 H152      -47.0626  -23.1229    5.7241 H         1 UNK         0.3098 
    153 H153      -47.2079  -24.9816    4.5193 H         1 UNK         0.0720 
    154 H154      -45.2387  -26.5341    4.7728 H         1 UNK         0.0791 
    155 H155      -45.4516  -26.4832    6.5233 H         1 UNK         0.0791 
    156 H156      -45.0492  -25.0217    5.6436 H         1 UNK         0.0791 
    157 H157      -48.6400  -26.6262    4.3391 H         1 UNK         0.3028 
@<TRIPOS>BOND
     1    1    2 1    
     2    1   82 1    
     3    1   83 1    
     4    1   84 1    
     5    2    3 2    
     6    2    4 am   BACKBONE|DICT|INTERRES
     7    4    5 1    
     8    4   85 1    
     9    5    6 1    
    10    5   80 1    
    11    5   86 1    
    12    6    7 1    
    13    6   87 1    
    14    6   88 1    
    15    7    8 1    
    16    8    9 1    
    17    8   89 1    
    18    8   90 1    
    19    9   10 ar   
    20    9   14 ar   
    21   10   11 ar   
    22   10   91 1    
    23   11   12 ar   
    24   11   58 1    
    25   12   13 ar   
    26   12   92 1    
    27   13   14 ar   
    28   13   15 1    
    29   14   93 1    
    30   15   16 1    
    31   15   94 1    
    32   15   95 1    
    33   16   17 1    
    34   17   18 1    
    35   17   96 1    
    36   17   97 1    
    37   18   19 1    
    38   18   22 1    
    39   18   98 1    
    40   19   20 am   BACKBONE|DICT|INTERRES
    41   19   21 2    
    42   20   99 1    
    43   20  100 1    
    44   22   23 am   BACKBONE|DICT|INTERRES
    45   22  101 1    
    46   23   24 2    
    47   23   25 1    
    48   25   26 1    
    49   25   27 1    
    50   25  102 1    
    51   26  103 1    
    52   26  104 1    
    53   26  105 1    
    54   27   28 am   BACKBONE|DICT|INTERRES
    55   27  106 1    
    56   28   29 2    
    57   28   30 1    
    58   30   31 1    
    59   30   32 1    
    60   30  107 1    
    61   31  108 1    
    62   31  109 1    
    63   31  110 1    
    64   32   33 am   BACKBONE|DICT|INTERRES
    65   32  111 1    
    66   33   34 2    
    67   33   35 1    
    68   35   36 1    
    69   35   37 1    
    70   35  112 1    
    71   36  113 1    
    72   36  114 1    
    73   36  115 1    
    74   37   38 am   BACKBONE|DICT|INTERRES
    75   37  116 1    
    76   38   39 2    
    77   38   40 1    
    78   40   41 1    
    79   40   42 1    
    80   40  117 1    
    81   41  118 1    
    82   41  119 1    
    83   41  120 1    
    84   42   43 am   BACKBONE|DICT|INTERRES
    85   42  121 1    
    86   43   44 2    
    87   43   45 1    
    88   45   46 1    
    89   45   47 1    
    90   45  122 1    
    91   46  123 1    
    92   46  124 1    
    93   46  125 1    
    94   47   48 am   BACKBONE|DICT|INTERRES
    95   47  126 1    
    96   48   49 2    
    97   48   50 1    
    98   50   51 1    
    99   50   52 1    
   100   50  127 1    
   101   51  128 1    
   102   51  129 1    
   103   51  130 1    
   104   52   53 am   BACKBONE|DICT|INTERRES
   105   52  131 1    
   106   53   54 2    
   107   53   55 1    
   108   55   56 1    
   109   55   59 1    
   110   55  132 1    
   111   56   57 1    
   112   56  133 1    
   113   56  134 1    
   114   57   58 1    
   115   58  135 1    
   116   58  136 1    
   117   59   60 am   BACKBONE|DICT|INTERRES
   118   59  137 1    
   119   60   61 2    
   120   60   62 1    
   121   62   63 1    
   122   62   64 1    
   123   62  138 1    
   124   63  139 1    
   125   63  140 1    
   126   63  141 1    
   127   64   65 am   BACKBONE|DICT|INTERRES
   128   64  142 1    
   129   65   66 2    
   130   65   67 1    
   131   67   68 1    
   132   67   69 1    
   133   67  143 1    
   134   68  144 1    
   135   68  145 1    
   136   68  146 1    
   137   69   70 am   BACKBONE|DICT|INTERRES
   138   69  147 1    
   139   70   71 2    
   140   70   72 1    
   141   72   73 1    
   142   72   74 1    
   143   72  148 1    
   144   73  149 1    
   145   73  150 1    
   146   73  151 1    
   147   74   75 am   BACKBONE|DICT|INTERRES
   148   74  152 1    
   149   75   76 2    
   150   75   77 1    
   151   77   78 1    
   152   77   79 1    
   153   77  153 1    
   154   78  154 1    
   155   78  155 1    
   156   78  156 1    
   157   79   80 am   BACKBONE|DICT|INTERRES
   158   79  157 1    
   159   80   81 2    
@<TRIPOS>SUBSTRUCTURE
     1 UNK         1 GROUP             0       ****    0 ROOT    
