@<TRIPOS>MOLECULE
3R207
157   159    1
SMALL
USER_CHARGES


@<TRIPOS>ATOM
      1 CA        -47.8445  -29.5264    1.7955 C.3       0 UNK        -0.1975 
      2 C         -48.8130  -28.4338    2.2237 C.2       0 UNK         0.4852 
      3 O         -49.0107  -27.4675    1.4863 O.2       0 UNK        -0.5216 
      4 N         -49.4163  -28.5783    3.4114 N.am      1 UNK        -0.4461 
      5 CA        -50.3902  -27.6347    3.9767 C.3       1 UNK         0.0864 
      6 C6        -51.1678  -28.2483    5.1702 C.3       14 UNK        -0.0898 
      7 S7        -52.1383  -29.7272    4.7316 S.3       14 UNK        -0.2598 
      8 C8        -51.3569  -31.0240    5.7518 C.3       14 UNK         0.0286 
      9 C9        -51.4087  -30.7459    7.2531 C.ar      14 UNK        -0.0844 
     10 C10       -50.2351  -30.8113    8.0124 C.ar      14 UNK        -0.0881 
     11 C11       -50.2667  -30.6008    9.3943 C.ar      14 UNK        -0.0643 
     12 C12       -51.4850  -30.3235   10.0191 C.ar      14 UNK        -0.0930 
     13 C13       -52.6645  -30.2446    9.2746 C.ar      14 UNK        -0.0827 
     14 C14       -52.6216  -30.4617    7.8928 C.ar      14 UNK        -0.1249 
     15 C15       -53.9830  -29.9410    9.9714 C.3       14 UNK         0.0141 
     16 S16       -54.1674  -28.1595   10.2836 S.3       14 UNK        -0.2313 
     17 C17       -55.8670  -28.0934   10.9391 C.3       14 UNK        -0.0915 
     18 CA        -56.0022  -27.1091   12.1363 C.3       13 UNK         0.0968 
     19 C         -57.4736  -26.7717   12.5074 C.2       13 UNK         0.5732 
     20 N         -57.6793  -25.8182   13.4068 N.am      13 UNK        -0.7310 
     21 O         -58.4241  -27.3580   11.9935 O.2       13 UNK        -0.5035 
     22 N         -55.2162  -27.4936   13.3201 N.am      13 UNK        -0.4233 
     23 C         -55.4092  -28.5645   14.1041 C.2       13 UNK         0.4989 
     24 O         -56.2183  -29.4617   13.8671 O.2       13 UNK        -0.4996 
     25 CA        -54.5600  -28.6478   15.3883 C.3       12 UNK         0.0216 
     26 CB        -53.3677  -29.5977   15.1927 C.3       12 UNK        -0.1964 
     27 N         -54.0874  -27.3327   15.8412 N.am      12 UNK        -0.4276 
     28 C         -54.8682  -26.4399   16.4692 C.2       12 UNK         0.5020 
     29 O         -56.0239  -26.6712   16.8266 O.2       12 UNK        -0.5489 
     30 CA        -54.2797  -25.0376   16.6974 C.3       11 UNK         0.0294 
     31 CB        -53.3948  -25.0183   17.9528 C.3       11 UNK        -0.2019 
     32 N         -53.5202  -24.5552   15.5395 N.am      11 UNK        -0.4493 
     33 C         -54.0624  -24.2758   14.3441 C.2       11 UNK         0.4932 
     34 O         -55.2728  -24.3397   14.1236 O.2       11 UNK        -0.5029 
     35 CA        -53.1071  -23.9450   13.1801 C.3       10 UNK         0.0280 
     36 CB        -53.7546  -23.0458   12.1057 C.3       10 UNK        -0.1976 
     37 N         -51.8026  -23.4242   13.6032 N.am      10 UNK        -0.4242 
     38 C         -51.5448  -22.2533   14.2068 C.2       10 UNK         0.5072 
     39 O         -52.4008  -21.4088   14.4753 O.2       10 UNK        -0.5224 
     40 CA        -50.0661  -22.0014   14.5715 C.3       9 UNK         0.0343 
     41 CB        -49.8818  -20.8634   15.5983 C.3       9 UNK        -0.2003 
     42 N         -49.3696  -23.2215   15.0067 N.am      9 UNK        -0.4272 
     43 C         -49.6889  -23.9854   16.0628 C.2       9 UNK         0.4988 
     44 O         -50.6216  -23.7437   16.8291 O.2       9 UNK        -0.5108 
     45 CA        -48.8521  -25.2615   16.2460 C.3       8 UNK         0.0248 
     46 CB        -49.0448  -25.9112   17.6331 C.3       8 UNK        -0.2001 
     47 N         -49.1090  -26.2326   15.1768 N.am      8 UNK        -0.4140 
     48 C         -50.2705  -26.8280   14.8594 C.2       8 UNK         0.5028 
     49 O         -51.3390  -26.6227   15.4377 O.2       8 UNK        -0.5428 
     50 CA        -50.2661  -27.7948   13.6632 C.3       7 UNK         0.0264 
     51 CB        -51.3482  -27.3840   12.6487 C.3       7 UNK        -0.1988 
     52 N         -48.9798  -27.8455   12.9678 N.am      7 UNK        -0.4454 
     53 C         -47.9493  -28.6449   13.2698 C.2       7 UNK         0.5027 
     54 O         -47.9640  -29.4410   14.2091 O.2       7 UNK        -0.5083 
     55 CA        -46.6784  -28.5224   12.4051 C.3       6 UNK         0.0844 
     56 C56       -46.6484  -29.5531   11.2469 C.3       14 UNK        -0.0967 
     57 S57       -47.9001  -29.2736    9.9439 S.3       14 UNK        -0.2604 
     58 C58       -48.9917  -30.7018   10.2173 C.3       14 UNK         0.0134 
     59 N         -46.4603  -27.1498   11.9269 N.am      6 UNK        -0.4116 
     60 C         -45.4096  -26.3875   12.2629 C.2       5 UNK         0.5034 
     61 O         -44.5566  -26.7224   13.0859 O.2       5 UNK        -0.5045 
     62 CA        -45.2415  -25.0311   11.5533 C.3       5 UNK         0.0224 
     63 CB        -44.2577  -25.1660   10.3794 C.3       5 UNK        -0.1978 
     64 N         -46.4890  -24.4530   11.0553 N.am      5 UNK        -0.4737 
     65 C         -47.4210  -23.8739   11.8224 C.2       4 UNK         0.5027 
     66 O         -47.3433  -23.7730   13.0478 O.2       4 UNK        -0.5211 
     67 CA        -48.6791  -23.3475   11.1050 C.3       4 UNK         0.0297 
     68 CB        -48.4995  -21.8709   10.7210 C.3       4 UNK        -0.1993 
     69 N         -49.0919  -24.1151    9.9224 N.am      4 UNK        -0.4486 
     70 C         -49.3083  -25.4372    9.9088 C.2       3 UNK         0.4961 
     71 O         -49.0705  -26.1719   10.8616 O.2       3 UNK        -0.5105 
     72 CA        -49.8645  -26.0589    8.6261 C.3       3 UNK         0.0299 
     73 CB        -51.3980  -25.9684    8.6142 C.3       3 UNK        -0.1972 
     74 N         -49.3222  -25.5043    7.3861 N.am      3 UNK        -0.4305 
     75 C         -48.0309  -25.5050    7.0225 C.2       2 UNK         0.5006 
     76 O         -47.0961  -25.7532    7.7865 O.2       2 UNK        -0.5106 
     77 CA        -47.7667  -25.2700    5.5204 C.3       2 UNK         0.0296 
     78 CB        -46.2670  -25.2757    5.1695 C.3       2 UNK        -0.2002 
     79 N         -48.4472  -26.3108    4.7405 N.am      2 UNK        -0.4032 
     80 C         -49.7552  -26.3068    4.4405 C.2       1 UNK         0.5000 
     81 O         -50.4795  -25.3248    4.6173 O.2       1 UNK        -0.5238 
     82 H82       -46.8505  -29.1074    1.6412 H         1 UNK         0.0889 
     83 H83       -48.1751  -29.9736    0.8585 H         1 UNK         0.0889 
     84 H84       -47.7671  -30.3187    2.5399 H         1 UNK         0.0889 
     85 H85       -49.2350  -29.4041    3.9633 H         1 UNK         0.3028 
     86 H86       -51.1093  -27.3846    3.1933 H         1 UNK         0.0864 
     87 H87       -51.8807  -27.5252    5.5712 H         1 UNK         0.0720 
     88 H88       -50.4865  -28.4802    5.9911 H         1 UNK         0.0720 
     89 H89       -50.3271  -31.1561    5.4169 H         1 UNK         0.0814 
     90 H90       -51.8629  -31.9705    5.5574 H         1 UNK         0.0814 
     91 H91       -49.2912  -31.0347    7.5340 H         1 UNK         0.1469 
     92 H92       -51.5190  -30.1741   11.0889 H         1 UNK         0.1381 
     93 H93       -53.5329  -30.4117    7.3126 H         1 UNK         0.1206 
     94 H94       -54.0379  -30.4814   10.9179 H         1 UNK         0.0813 
     95 H95       -54.8202  -30.2901    9.3650 H         1 UNK         0.0813 
     96 H96       -56.5114  -27.7812   10.1155 H         1 UNK         0.0638 
     97 H97       -56.2006  -29.0927   11.2216 H         1 UNK         0.0638 
     98 H98       -55.5812  -26.1600   11.8016 H         1 UNK         0.0568 
     99 H99       -58.6213  -25.5796   13.6712 H         1 UNK         0.3450 
    100 H100      -56.8943  -25.3047   13.7977 H         1 UNK         0.3450 
    101 H101      -54.5625  -26.7996   13.6434 H         1 UNK         0.2987 
    102 H102      -55.1927  -29.0697   16.1724 H         1 UNK         0.0766 
    103 H103      -52.7668  -29.3240   14.3282 H         1 UNK         0.0798 
    104 H104      -53.7138  -30.6189   15.0283 H         1 UNK         0.0798 
    105 H105      -52.7176  -29.6120   16.0677 H         1 UNK         0.0798 
    106 H106      -53.1189  -27.0780   15.6431 H         1 UNK         0.3198 
    107 H107      -55.1132  -24.3507   16.8594 H         1 UNK         0.0843 
    108 H108      -53.0441  -24.0101   18.1739 H         1 UNK         0.0831 
    109 H109      -52.5190  -25.6583   17.8388 H         1 UNK         0.0831 
    110 H110      -53.9460  -25.3691   18.8263 H         1 UNK         0.0831 
    111 H111      -52.5132  -24.5181   15.6497 H         1 UNK         0.3133 
    112 H112      -52.9041  -24.9008   12.6999 H         1 UNK         0.0566 
    113 H113      -54.6353  -23.5229   11.6740 H         1 UNK         0.0814 
    114 H114      -54.0763  -22.0886   12.5169 H         1 UNK         0.0814 
    115 H115      -53.0641  -22.8457   11.2865 H         1 UNK         0.0814 
    116 H116      -51.0216  -24.0489   13.4684 H         1 UNK         0.3091 
    117 H117      -49.5785  -21.6848   13.6494 H         1 UNK         0.0702 
    118 H118      -48.8282  -20.7011   15.8251 H         1 UNK         0.0785 
    119 H119      -50.3988  -21.0738   16.5351 H         1 UNK         0.0785 
    120 H120      -50.2779  -19.9225   15.2142 H         1 UNK         0.0785 
    121 H121      -48.5826  -23.5035   14.4233 H         1 UNK         0.2998 
    122 H122      -47.8042  -24.9688   16.1617 H         1 UNK         0.0697 
    123 H123      -48.3949  -26.7771   17.7581 H         1 UNK         0.0825 
    124 H124      -48.8043  -25.2059   18.4293 H         1 UNK         0.0825 
    125 H125      -50.0722  -26.2396   17.7922 H         1 UNK         0.0825 
    126 H126      -48.3141  -26.4591   14.5968 H         1 UNK         0.3029 
    127 H127      -50.5002  -28.7902   14.0446 H         1 UNK         0.0897 
    128 H128      -51.3368  -28.0241   11.7688 H         1 UNK         0.0792 
    129 H129      -52.3473  -27.4379   13.0774 H         1 UNK         0.0792 
    130 H130      -51.2012  -26.3622   12.3034 H         1 UNK         0.0792 
    131 H131      -48.9098  -27.2347   12.1511 H         1 UNK         0.3086 
    132 H132      -45.8607  -28.8014   13.0728 H         1 UNK         0.0583 
    133 H133      -45.6680  -29.5217   10.7690 H         1 UNK         0.1020 
    134 H134      -46.7388  -30.5672   11.6410 H         1 UNK         0.1020 
    135 H135      -48.4602  -31.6185    9.9575 H         1 UNK         0.0694 
    136 H136      -49.2319  -30.7720   11.2795 H         1 UNK         0.0694 
    137 H137      -47.1392  -26.7905   11.2647 H         1 UNK         0.2989 
    138 H138      -44.8120  -24.3388   12.2814 H         1 UNK         0.1055 
    139 H139      -44.6455  -25.8273    9.6028 H         1 UNK         0.0806 
    140 H140      -43.3033  -25.5768   10.7122 H         1 UNK         0.0806 
    141 H141      -44.0499  -24.1983    9.9224 H         1 UNK         0.0806 
    142 H142      -46.6679  -24.5343   10.0625 H         1 UNK         0.3061 
    143 H143      -49.5002  -23.4136   11.8192 H         1 UNK         0.0734 
    144 H144      -49.4296  -21.4398   10.3501 H         1 UNK         0.0832 
    145 H145      -48.1895  -21.2752   11.5808 H         1 UNK         0.0832 
    146 H146      -47.7385  -21.7456    9.9497 H         1 UNK         0.0832 
    147 H147      -49.2888  -23.5934    9.0806 H         1 UNK         0.3156 
    148 H148      -49.5976  -27.1175    8.6425 H         1 UNK         0.0589 
    149 H149      -51.7451  -24.9397    8.5121 H         1 UNK         0.0808 
    150 H150      -51.8259  -26.5531    7.8004 H         1 UNK         0.0808 
    151 H151      -51.8166  -26.3637    9.5409 H         1 UNK         0.0808 
    152 H152      -49.9968  -25.2718    6.6655 H         1 UNK         0.3098 
    153 H153      -48.1701  -24.2894    5.2586 H         1 UNK         0.0720 
    154 H154      -45.7347  -24.5001    5.7217 H         1 UNK         0.0791 
    155 H155      -45.7968  -26.2297    5.4119 H         1 UNK         0.0791 
    156 H156      -46.1083  -25.0839    4.1081 H         1 UNK         0.0791 
    157 H157      -47.9338  -27.1671    4.5906 H         1 UNK         0.3028 
@<TRIPOS>BOND
     1    1    2 1    
     2    1   82 1    
     3    1   83 1    
     4    1   84 1    
     5    2    3 2    
     6    2    4 am   BACKBONE|DICT|INTERRES
     7    4    5 1    
     8    4   85 1    
     9    5    6 1    
    10    5   80 1    
    11    5   86 1    
    12    6    7 1    
    13    6   87 1    
    14    6   88 1    
    15    7    8 1    
    16    8    9 1    
    17    8   89 1    
    18    8   90 1    
    19    9   10 ar   
    20    9   14 ar   
    21   10   11 ar   
    22   10   91 1    
    23   11   12 ar   
    24   11   58 1    
    25   12   13 ar   
    26   12   92 1    
    27   13   14 ar   
    28   13   15 1    
    29   14   93 1    
    30   15   16 1    
    31   15   94 1    
    32   15   95 1    
    33   16   17 1    
    34   17   18 1    
    35   17   96 1    
    36   17   97 1    
    37   18   19 1    
    38   18   22 1    
    39   18   98 1    
    40   19   20 am   BACKBONE|DICT|INTERRES
    41   19   21 2    
    42   20   99 1    
    43   20  100 1    
    44   22   23 am   BACKBONE|DICT|INTERRES
    45   22  101 1    
    46   23   24 2    
    47   23   25 1    
    48   25   26 1    
    49   25   27 1    
    50   25  102 1    
    51   26  103 1    
    52   26  104 1    
    53   26  105 1    
    54   27   28 am   BACKBONE|DICT|INTERRES
    55   27  106 1    
    56   28   29 2    
    57   28   30 1    
    58   30   31 1    
    59   30   32 1    
    60   30  107 1    
    61   31  108 1    
    62   31  109 1    
    63   31  110 1    
    64   32   33 am   BACKBONE|DICT|INTERRES
    65   32  111 1    
    66   33   34 2    
    67   33   35 1    
    68   35   36 1    
    69   35   37 1    
    70   35  112 1    
    71   36  113 1    
    72   36  114 1    
    73   36  115 1    
    74   37   38 am   BACKBONE|DICT|INTERRES
    75   37  116 1    
    76   38   39 2    
    77   38   40 1    
    78   40   41 1    
    79   40   42 1    
    80   40  117 1    
    81   41  118 1    
    82   41  119 1    
    83   41  120 1    
    84   42   43 am   BACKBONE|DICT|INTERRES
    85   42  121 1    
    86   43   44 2    
    87   43   45 1    
    88   45   46 1    
    89   45   47 1    
    90   45  122 1    
    91   46  123 1    
    92   46  124 1    
    93   46  125 1    
    94   47   48 am   BACKBONE|DICT|INTERRES
    95   47  126 1    
    96   48   49 2    
    97   48   50 1    
    98   50   51 1    
    99   50   52 1    
   100   50  127 1    
   101   51  128 1    
   102   51  129 1    
   103   51  130 1    
   104   52   53 am   BACKBONE|DICT|INTERRES
   105   52  131 1    
   106   53   54 2    
   107   53   55 1    
   108   55   56 1    
   109   55   59 1    
   110   55  132 1    
   111   56   57 1    
   112   56  133 1    
   113   56  134 1    
   114   57   58 1    
   115   58  135 1    
   116   58  136 1    
   117   59   60 am   BACKBONE|DICT|INTERRES
   118   59  137 1    
   119   60   61 2    
   120   60   62 1    
   121   62   63 1    
   122   62   64 1    
   123   62  138 1    
   124   63  139 1    
   125   63  140 1    
   126   63  141 1    
   127   64   65 am   BACKBONE|DICT|INTERRES
   128   64  142 1    
   129   65   66 2    
   130   65   67 1    
   131   67   68 1    
   132   67   69 1    
   133   67  143 1    
   134   68  144 1    
   135   68  145 1    
   136   68  146 1    
   137   69   70 am   BACKBONE|DICT|INTERRES
   138   69  147 1    
   139   70   71 2    
   140   70   72 1    
   141   72   73 1    
   142   72   74 1    
   143   72  148 1    
   144   73  149 1    
   145   73  150 1    
   146   73  151 1    
   147   74   75 am   BACKBONE|DICT|INTERRES
   148   74  152 1    
   149   75   76 2    
   150   75   77 1    
   151   77   78 1    
   152   77   79 1    
   153   77  153 1    
   154   78  154 1    
   155   78  155 1    
   156   78  156 1    
   157   79   80 am   BACKBONE|DICT|INTERRES
   158   79  157 1    
   159   80   81 2    
@<TRIPOS>SUBSTRUCTURE
     1 UNK         1 GROUP             0       ****    0 ROOT    
