@<TRIPOS>MOLECULE
3R207
157   159    1
SMALL
USER_CHARGES


@<TRIPOS>ATOM
      1 CA        -47.1750  -31.6649    3.1078 C.3       0 UNK        -0.1975 
      2 C         -47.7784  -30.2758    2.9639 C.2       0 UNK         0.4852 
      3 O         -47.1229  -29.3752    2.4389 O.2       0 UNK        -0.5216 
      4 N         -49.0229  -30.0959    3.4262 N.am      1 UNK        -0.4461 
      5 CA        -49.7581  -28.8239    3.4032 C.3       1 UNK         0.0864 
      6 C6        -51.2844  -29.0349    3.5589 C.3       14 UNK        -0.0898 
      7 S7        -51.7551  -30.0353    5.0142 S.3       14 UNK        -0.2598 
      8 C8        -53.1445  -29.0769    5.6927 C.3       14 UNK         0.0286 
      9 C9        -52.6921  -28.0582    6.7288 C.ar      14 UNK        -0.0844 
     10 C10       -52.5305  -26.7106    6.3926 C.ar      14 UNK        -0.0881 
     11 C11       -52.2019  -25.7649    7.3725 C.ar      14 UNK        -0.0643 
     12 C12       -52.0250  -26.1844    8.6970 C.ar      14 UNK        -0.0930 
     13 C13       -52.1576  -27.5345    9.0375 C.ar      14 UNK        -0.0827 
     14 C14       -52.4885  -28.4639    8.0491 C.ar      14 UNK        -0.1249 
     15 C15       -51.9306  -28.0093   10.4632 C.3       14 UNK         0.0141 
     16 S16       -53.4871  -28.4396   11.2988 S.3       14 UNK        -0.2313 
     17 C17       -52.8415  -29.5597   12.5854 C.3       14 UNK        -0.0915 
     18 CA        -53.9405  -30.1203   13.5246 C.3       13 UNK         0.0968 
     19 C         -53.3727  -31.2112   14.4815 C.2       13 UNK         0.5732 
     20 N         -53.5387  -31.1175   15.7967 N.am      13 UNK        -0.7310 
     21 O         -52.7767  -32.1805   14.0175 O.2       13 UNK        -0.5035 
     22 N         -54.6721  -29.0495   14.2185 N.am      13 UNK        -0.4233 
     23 C         -55.9563  -29.1420   14.5888 C.2       13 UNK         0.4989 
     24 O         -56.6783  -30.1003   14.3055 O.2       13 UNK        -0.4996 
     25 CA        -56.5326  -27.9755   15.4165 C.3       12 UNK         0.0216 
     26 CB        -57.8162  -28.3624   16.1821 C.3       12 UNK        -0.1964 
     27 N         -55.5623  -27.3576   16.3286 N.am      12 UNK        -0.4276 
     28 C         -54.8639  -27.9532   17.3101 C.2       12 UNK         0.5020 
     29 O         -54.9380  -29.1576   17.5587 O.2       12 UNK        -0.5489 
     30 CA        -53.8994  -27.0750   18.1333 C.3       11 UNK         0.0294 
     31 CB        -52.5647  -27.7978   18.3937 C.3       11 UNK        -0.2019 
     32 N         -53.6216  -25.8081   17.4556 N.am      11 UNK        -0.4493 
     33 C         -54.1882  -24.6265   17.7389 C.2       11 UNK         0.4932 
     34 O         -54.9413  -24.4395   18.6941 O.2       11 UNK        -0.5029 
     35 CA        -53.8996  -23.4620   16.7701 C.3       10 UNK         0.0280 
     36 CB        -52.8128  -22.5412   17.3461 C.3       10 UNK        -0.1976 
     37 N         -53.5060  -23.9139   15.4295 N.am      10 UNK        -0.4242 
     38 C         -54.3272  -24.5558   14.5802 C.2       10 UNK         0.5072 
     39 O         -55.5217  -24.7429   14.8108 O.2       10 UNK        -0.5224 
     40 CA        -53.7165  -25.1697   13.3059 C.3       9 UNK         0.0343 
     41 CB        -53.9716  -24.2676   12.0899 C.3       9 UNK        -0.2003 
     42 N         -52.2835  -25.4544   13.4333 N.am      9 UNK        -0.4272 
     43 C         -51.7732  -26.3528   14.2927 C.2       9 UNK         0.4988 
     44 O         -52.4807  -27.0961   14.9743 O.2       9 UNK        -0.5108 
     45 CA        -50.2426  -26.4063   14.4837 C.3       8 UNK         0.0248 
     46 CB        -49.6522  -27.6837   13.8732 C.3       8 UNK        -0.2001 
     47 N         -49.5308  -25.2384   13.9566 N.am      8 UNK        -0.4140 
     48 C         -49.6810  -23.9913   14.4291 C.2       8 UNK         0.5028 
     49 O         -50.4034  -23.7110   15.3861 O.2       8 UNK        -0.5428 
     50 CA        -48.9783  -22.8552   13.6689 C.3       7 UNK         0.0264 
     51 CB        -47.6452  -22.5009   14.3447 C.3       7 UNK        -0.1988 
     52 N         -48.7726  -23.1335   12.2399 N.am      7 UNK        -0.4454 
     53 C         -49.7771  -23.3183   11.3632 C.2       7 UNK         0.5027 
     54 O         -50.9567  -23.3367   11.7143 O.2       7 UNK        -0.5083 
     55 CA        -49.4446  -23.5336    9.8708 C.3       6 UNK         0.0844 
     56 C56       -50.5194  -22.9236    8.9288 C.3       14 UNK        -0.0967 
     57 S57       -50.4324  -23.5897    7.2291 S.3       14 UNK        -0.2604 
     58 C58       -52.1027  -24.2889    6.9977 C.3       14 UNK         0.0134 
     59 N         -48.0975  -23.0398    9.5750 N.am      6 UNK        -0.4116 
     60 C         -47.1682  -23.7436    8.9243 C.2       5 UNK         0.5034 
     61 O         -47.3840  -24.8208    8.3730 O.2       5 UNK        -0.5045 
     62 CA        -45.7157  -23.2415    8.9813 C.3       5 UNK         0.0224 
     63 CB        -45.5561  -21.7345    9.2918 C.3       5 UNK        -0.1978 
     64 N         -44.9855  -24.0936    9.9298 N.am      5 UNK        -0.4737 
     65 C         -45.2553  -24.2208   11.2385 C.2       4 UNK         0.5027 
     66 O         -45.9412  -23.4237   11.8779 O.2       4 UNK        -0.5211 
     67 CA        -44.7867  -25.5343   11.8900 C.3       4 UNK         0.0297 
     68 CB        -45.0640  -25.5877   13.4079 C.3       4 UNK        -0.1993 
     69 N         -45.3884  -26.6914   11.2070 N.am      4 UNK        -0.4486 
     70 C         -46.6980  -26.9464   11.0455 C.2       3 UNK         0.4961 
     71 O         -47.6120  -26.2734   11.5318 O.2       3 UNK        -0.5105 
     72 CA        -47.0411  -28.1270   10.1302 C.3       3 UNK         0.0299 
     73 CB        -48.1831  -28.9818   10.7072 C.3       3 UNK        -0.1972 
     74 N         -47.4043  -27.5732    8.8290 N.am      3 UNK        -0.4305 
     75 C         -47.5625  -28.2479    7.6872 C.2       2 UNK         0.5006 
     76 O         -47.4529  -29.4724    7.5766 O.2       2 UNK        -0.5106 
     77 CA        -47.8488  -27.3974    6.4447 C.3       2 UNK         0.0296 
     78 CB        -46.5419  -26.8147    5.8687 C.3       2 UNK        -0.2002 
     79 N         -48.5002  -28.2263    5.4385 N.am      2 UNK        -0.4032 
     80 C         -49.2151  -27.7764    4.4001 C.2       1 UNK         0.5000 
     81 O         -49.4378  -26.5825    4.1889 O.2       1 UNK        -0.5238 
     82 H82       -47.8665  -32.3634    3.5789 H         1 UNK         0.0889 
     83 H83       -46.2718  -31.6200    3.7158 H         1 UNK         0.0889 
     84 H84       -46.9079  -32.0612    2.1285 H         1 UNK         0.0889 
     85 H85       -49.5202  -30.8691    3.8470 H         1 UNK         0.3028 
     86 H86       -49.6026  -28.3886    2.4133 H         1 UNK         0.0864 
     87 H87       -51.8003  -28.0732    3.5784 H         1 UNK         0.0720 
     88 H88       -51.6668  -29.5489    2.6758 H         1 UNK         0.0720 
     89 H89       -53.7021  -28.5944    4.8885 H         1 UNK         0.0814 
     90 H90       -53.8447  -29.7719    6.1587 H         1 UNK         0.0814 
     91 H91       -52.6881  -26.3937    5.3708 H         1 UNK         0.1469 
     92 H92       -51.7854  -25.4618    9.4632 H         1 UNK         0.1381 
     93 H93       -52.6064  -29.5061    8.3138 H         1 UNK         0.1206 
     94 H94       -51.2895  -28.8904   10.4342 H         1 UNK         0.0813 
     95 H95       -51.4054  -27.2516   11.0459 H         1 UNK         0.0813 
     96 H96       -52.3287  -30.3775   12.0755 H         1 UNK         0.0638 
     97 H97       -52.0806  -29.0372   13.1613 H         1 UNK         0.0638 
     98 H98       -54.6476  -30.6506   12.8841 H         1 UNK         0.0568 
     99 H99       -54.0526  -30.3504   16.2169 H         1 UNK         0.3450 
    100 H100      -53.1646  -31.8435   16.3857 H         1 UNK         0.3450 
    101 H101      -54.1121  -28.2601   14.5210 H         1 UNK         0.2987 
    102 H102      -56.8024  -27.2048   14.6932 H         1 UNK         0.0766 
    103 H103      -58.2182  -27.5142   16.7362 H         1 UNK         0.0798 
    104 H104      -58.5967  -28.6981   15.4981 H         1 UNK         0.0798 
    105 H105      -57.6347  -29.1708   16.8913 H         1 UNK         0.0798 
    106 H106      -55.4171  -26.3659   16.1772 H         1 UNK         0.3198 
    107 H107      -54.3789  -26.8894   19.0966 H         1 UNK         0.0843 
    108 H108      -52.0701  -28.0818   17.4640 H         1 UNK         0.0831 
    109 H109      -52.7187  -28.7103   18.9710 H         1 UNK         0.0831 
    110 H110      -51.8776  -27.1706   18.9617 H         1 UNK         0.0831 
    111 H111      -53.0414  -25.8843   16.6281 H         1 UNK         0.3133 
    112 H112      -54.8183  -22.8801   16.6701 H         1 UNK         0.0566 
    113 H113      -51.8789  -23.0774   17.5185 H         1 UNK         0.0814 
    114 H114      -53.1262  -22.1213   18.3028 H         1 UNK         0.0814 
    115 H115      -52.6020  -21.7056   16.6785 H         1 UNK         0.0814 
    116 H116      -52.5240  -23.8155   15.1911 H         1 UNK         0.3091 
    117 H117      -54.2257  -26.1190   13.1293 H         1 UNK         0.0702 
    118 H118      -53.5558  -24.7004   11.1798 H         1 UNK         0.0785 
    119 H119      -53.5370  -23.2765   12.2233 H         1 UNK         0.0785 
    120 H120      -55.0413  -24.1328   11.9250 H         1 UNK         0.0785 
    121 H121      -51.6581  -24.8488   12.9117 H         1 UNK         0.2998 
    122 H122      -50.0610  -26.4376   15.5601 H         1 UNK         0.0697 
    123 H123      -49.8552  -27.7424   12.8059 H         1 UNK         0.0825 
    124 H124      -50.0756  -28.5729   14.3416 H         1 UNK         0.0825 
    125 H125      -48.5718  -27.7303   14.0117 H         1 UNK         0.0825 
    126 H126      -48.9234  -25.3897   13.1581 H         1 UNK         0.3029 
    127 H127      -49.6279  -21.9797   13.7351 H         1 UNK         0.0897 
    128 H128      -47.1498  -21.6718   13.8391 H         1 UNK         0.0792 
    129 H129      -47.8023  -22.2018   15.3819 H         1 UNK         0.0792 
    130 H130      -46.9590  -23.3475   14.3525 H         1 UNK         0.0792 
    131 H131      -47.8036  -23.2278   11.9382 H         1 UNK         0.3086 
    132 H132      -49.4699  -24.6192    9.7523 H         1 UNK         0.0583 
    133 H133      -51.5262  -23.0956    9.3110 H         1 UNK         0.1020 
    134 H134      -50.4103  -21.8388    8.8831 H         1 UNK         0.1020 
    135 H135      -52.8402  -23.7171    7.5621 H         1 UNK         0.0694 
    136 H136      -52.3695  -24.1531    5.9485 H         1 UNK         0.0694 
    137 H137      -47.8272  -22.1766   10.0239 H         1 UNK         0.2989 
    138 H138      -45.2884  -23.4226    7.9934 H         1 UNK         0.1055 
    139 H139      -44.5061  -21.4437    9.2619 H         1 UNK         0.0806 
    140 H140      -45.9428  -21.4504   10.2700 H         1 UNK         0.0806 
    141 H141      -46.0754  -21.1294    8.5474 H         1 UNK         0.0806 
    142 H142      -44.4299  -24.8218    9.5022 H         1 UNK         0.3061 
    143 H143      -43.7069  -25.5946   11.7450 H         1 UNK         0.0734 
    144 H144      -44.5901  -24.7491   13.9195 H         1 UNK         0.0832 
    145 H145      -46.1302  -25.5424   13.6311 H         1 UNK         0.0832 
    146 H146      -44.6703  -26.5027   13.8498 H         1 UNK         0.0832 
    147 H147      -44.7326  -27.3078   10.7465 H         1 UNK         0.3156 
    148 H148      -46.1578  -28.7576   10.0112 H         1 UNK         0.0589 
    149 H149      -48.3618  -29.8758   10.1102 H         1 UNK         0.0808 
    150 H150      -47.9556  -29.3090   11.7224 H         1 UNK         0.0808 
    151 H151      -49.1082  -28.4120   10.7414 H         1 UNK         0.0808 
    152 H152      -47.4755  -26.5541    8.7916 H         1 UNK         0.3098 
    153 H153      -48.5265  -26.5882    6.7274 H         1 UNK         0.0720 
    154 H154      -46.7417  -26.1369    5.0389 H         1 UNK         0.0791 
    155 H155      -45.9930  -26.2470    6.6204 H         1 UNK         0.0791 
    156 H156      -45.8786  -27.6012    5.5067 H         1 UNK         0.0791 
    157 H157      -48.3934  -29.2228    5.5802 H         1 UNK         0.3028 
@<TRIPOS>BOND
     1    1    2 1    
     2    1   82 1    
     3    1   83 1    
     4    1   84 1    
     5    2    3 2    
     6    2    4 am   BACKBONE|DICT|INTERRES
     7    4    5 1    
     8    4   85 1    
     9    5    6 1    
    10    5   80 1    
    11    5   86 1    
    12    6    7 1    
    13    6   87 1    
    14    6   88 1    
    15    7    8 1    
    16    8    9 1    
    17    8   89 1    
    18    8   90 1    
    19    9   10 ar   
    20    9   14 ar   
    21   10   11 ar   
    22   10   91 1    
    23   11   12 ar   
    24   11   58 1    
    25   12   13 ar   
    26   12   92 1    
    27   13   14 ar   
    28   13   15 1    
    29   14   93 1    
    30   15   16 1    
    31   15   94 1    
    32   15   95 1    
    33   16   17 1    
    34   17   18 1    
    35   17   96 1    
    36   17   97 1    
    37   18   19 1    
    38   18   22 1    
    39   18   98 1    
    40   19   20 am   BACKBONE|DICT|INTERRES
    41   19   21 2    
    42   20   99 1    
    43   20  100 1    
    44   22   23 am   BACKBONE|DICT|INTERRES
    45   22  101 1    
    46   23   24 2    
    47   23   25 1    
    48   25   26 1    
    49   25   27 1    
    50   25  102 1    
    51   26  103 1    
    52   26  104 1    
    53   26  105 1    
    54   27   28 am   BACKBONE|DICT|INTERRES
    55   27  106 1    
    56   28   29 2    
    57   28   30 1    
    58   30   31 1    
    59   30   32 1    
    60   30  107 1    
    61   31  108 1    
    62   31  109 1    
    63   31  110 1    
    64   32   33 am   BACKBONE|DICT|INTERRES
    65   32  111 1    
    66   33   34 2    
    67   33   35 1    
    68   35   36 1    
    69   35   37 1    
    70   35  112 1    
    71   36  113 1    
    72   36  114 1    
    73   36  115 1    
    74   37   38 am   BACKBONE|DICT|INTERRES
    75   37  116 1    
    76   38   39 2    
    77   38   40 1    
    78   40   41 1    
    79   40   42 1    
    80   40  117 1    
    81   41  118 1    
    82   41  119 1    
    83   41  120 1    
    84   42   43 am   BACKBONE|DICT|INTERRES
    85   42  121 1    
    86   43   44 2    
    87   43   45 1    
    88   45   46 1    
    89   45   47 1    
    90   45  122 1    
    91   46  123 1    
    92   46  124 1    
    93   46  125 1    
    94   47   48 am   BACKBONE|DICT|INTERRES
    95   47  126 1    
    96   48   49 2    
    97   48   50 1    
    98   50   51 1    
    99   50   52 1    
   100   50  127 1    
   101   51  128 1    
   102   51  129 1    
   103   51  130 1    
   104   52   53 am   BACKBONE|DICT|INTERRES
   105   52  131 1    
   106   53   54 2    
   107   53   55 1    
   108   55   56 1    
   109   55   59 1    
   110   55  132 1    
   111   56   57 1    
   112   56  133 1    
   113   56  134 1    
   114   57   58 1    
   115   58  135 1    
   116   58  136 1    
   117   59   60 am   BACKBONE|DICT|INTERRES
   118   59  137 1    
   119   60   61 2    
   120   60   62 1    
   121   62   63 1    
   122   62   64 1    
   123   62  138 1    
   124   63  139 1    
   125   63  140 1    
   126   63  141 1    
   127   64   65 am   BACKBONE|DICT|INTERRES
   128   64  142 1    
   129   65   66 2    
   130   65   67 1    
   131   67   68 1    
   132   67   69 1    
   133   67  143 1    
   134   68  144 1    
   135   68  145 1    
   136   68  146 1    
   137   69   70 am   BACKBONE|DICT|INTERRES
   138   69  147 1    
   139   70   71 2    
   140   70   72 1    
   141   72   73 1    
   142   72   74 1    
   143   72  148 1    
   144   73  149 1    
   145   73  150 1    
   146   73  151 1    
   147   74   75 am   BACKBONE|DICT|INTERRES
   148   74  152 1    
   149   75   76 2    
   150   75   77 1    
   151   77   78 1    
   152   77   79 1    
   153   77  153 1    
   154   78  154 1    
   155   78  155 1    
   156   78  156 1    
   157   79   80 am   BACKBONE|DICT|INTERRES
   158   79  157 1    
   159   80   81 2    
@<TRIPOS>SUBSTRUCTURE
     1 UNK         1 GROUP             0       ****    0 ROOT    
