@<TRIPOS>MOLECULE
3R207
157   159    1
SMALL
USER_CHARGES


@<TRIPOS>ATOM
      1 CA        -50.1558  -28.8366    9.6732 C.3       0 UNK        -0.1975 
      2 C         -49.6592  -29.2106    8.2868 C.2       0 UNK         0.4852 
      3 O         -48.6096  -29.8418    8.1637 O.2       0 UNK        -0.5216 
      4 N         -50.3975  -28.8195    7.2389 N.am      1 UNK        -0.4461 
      5 CA        -50.0416  -29.0774    5.8359 C.3       1 UNK         0.0864 
      6 C6        -51.2953  -29.2676    4.9413 C.3       14 UNK        -0.0898 
      7 S7        -52.3061  -27.7675    4.6838 S.3       14 UNK        -0.2598 
      8 C8        -53.8627  -28.1984    5.5294 C.3       14 UNK         0.0286 
      9 C9        -53.7314  -28.1167    7.0430 C.ar      14 UNK        -0.0844 
     10 C10       -53.3716  -26.9084    7.6420 C.ar      14 UNK        -0.0881 
     11 C11       -53.2227  -26.8164    9.0268 C.ar      14 UNK        -0.0643 
     12 C12       -53.4974  -27.9323    9.8227 C.ar      14 UNK        -0.0930 
     13 C13       -53.8696  -29.1508    9.2391 C.ar      14 UNK        -0.0827 
     14 C14       -53.9778  -29.2343    7.8459 C.ar      14 UNK        -0.1249 
     15 C15       -54.1929  -30.3780   10.0888 C.3       14 UNK         0.0141 
     16 S16       -53.1079  -30.5806   11.5432 S.3       14 UNK        -0.2313 
     17 C17       -53.8124  -32.0867   12.2992 C.3       14 UNK        -0.0915 
     18 CA        -54.7046  -31.8080   13.5391 C.3       13 UNK         0.0968 
     19 C         -53.8792  -31.3928   14.7941 C.2       13 UNK         0.5732 
     20 N         -54.1378  -30.2542   15.4257 N.am      13 UNK        -0.7310 
     21 O         -52.9925  -32.1328   15.2142 O.2       13 UNK        -0.5035 
     22 N         -55.8061  -30.8978   13.2011 N.am      13 UNK        -0.4233 
     23 C         -56.9999  -30.8642   13.8014 C.2       13 UNK         0.4989 
     24 O         -57.3580  -31.6733   14.6594 O.2       13 UNK        -0.4996 
     25 CA        -57.9494  -29.7302   13.3579 C.3       12 UNK         0.0216 
     26 CB        -59.0485  -29.4384   14.4024 C.3       12 UNK        -0.1964 
     27 N         -57.2623  -28.4831   12.9775 N.am      12 UNK        -0.4276 
     28 C         -56.4370  -27.7553   13.7452 C.2       12 UNK         0.5020 
     29 O         -56.0758  -28.0888   14.8773 O.2       12 UNK        -0.5489 
     30 CA        -55.9407  -26.4308   13.1504 C.3       11 UNK         0.0294 
     31 CB        -57.0975  -25.4160   13.0333 C.3       11 UNK        -0.2019 
     32 N         -54.8899  -25.9048   14.0175 N.am      11 UNK        -0.4493 
     33 C         -54.0599  -24.8938   13.7462 C.2       11 UNK         0.4932 
     34 O         -54.0513  -24.2810   12.6786 O.2       11 UNK        -0.5029 
     35 CA        -53.0676  -24.4914   14.8499 C.3       10 UNK         0.0280 
     36 CB        -53.7250  -24.3540   16.2409 C.3       10 UNK        -0.1976 
     37 N         -51.8901  -25.3640   14.8714 N.am      10 UNK        -0.4242 
     38 C         -51.8341  -26.6637   15.1971 C.2       10 UNK         0.5072 
     39 O         -52.7905  -27.3034   15.6337 O.2       10 UNK        -0.5224 
     40 CA        -50.4954  -27.3938   14.9912 C.3       9 UNK         0.0343 
     41 CB        -50.5053  -28.1517   13.6519 C.3       9 UNK        -0.2003 
     42 N         -49.3090  -26.5334   15.0541 N.am      9 UNK        -0.4272 
     43 C         -48.8177  -25.9889   16.1779 C.2       9 UNK         0.4988 
     44 O         -49.3660  -26.0778   17.2768 O.2       9 UNK        -0.5108 
     45 CA        -47.4778  -25.2418   16.0697 C.3       8 UNK         0.0248 
     46 CB        -46.3121  -26.2389   15.9549 C.3       8 UNK        -0.2001 
     47 N         -47.4593  -24.3400   14.9181 N.am      8 UNK        -0.4140 
     48 C         -47.6146  -23.0092   14.9820 C.2       8 UNK         0.5028 
     49 O         -47.6921  -22.3782   16.0373 O.2       8 UNK        -0.5428 
     50 CA        -47.7206  -22.2376   13.6480 C.3       7 UNK         0.0264 
     51 CB        -46.3590  -21.6380   13.2626 C.3       7 UNK        -0.1988 
     52 N         -48.2279  -23.0338   12.5255 N.am      7 UNK        -0.4454 
     53 C         -49.4084  -23.6694   12.5090 C.2       7 UNK         0.5027 
     54 O         -50.2368  -23.5836   13.4131 O.2       7 UNK        -0.5083 
     55 CA        -49.6919  -24.6213   11.3325 C.3       6 UNK         0.0844 
     56 C56       -50.5250  -23.8949   10.2524 C.3       14 UNK        -0.0967 
     57 S57       -51.1131  -25.0443    8.9743 S.3       14 UNK        -0.2604 
     58 C58       -52.7357  -25.5195    9.6531 C.3       14 UNK         0.0134 
     59 N         -48.4764  -25.2619   10.8057 N.am      6 UNK        -0.4116 
     60 C         -47.6336  -26.0256   11.5205 C.2       5 UNK         0.5034 
     61 O         -47.8092  -26.3045   12.7062 O.2       5 UNK        -0.5045 
     62 CA        -46.3466  -26.5004   10.8324 C.3       5 UNK         0.0224 
     63 CB        -46.5903  -27.7533    9.9805 C.3       5 UNK        -0.1978 
     64 N         -45.7758  -25.4399   10.0041 N.am      5 UNK        -0.4737 
     65 C         -44.9620  -24.4819   10.4677 C.2       4 UNK         0.5027 
     66 O         -44.5323  -24.4510   11.6203 O.2       4 UNK        -0.5211 
     67 CA        -44.5665  -23.3597    9.4908 C.3       4 UNK         0.0297 
     68 CB        -43.2160  -23.6773    8.8293 C.3       4 UNK        -0.1993 
     69 N         -45.5681  -23.1111    8.4503 N.am      4 UNK        -0.4486 
     70 C         -46.7946  -22.6192    8.6734 C.2       3 UNK         0.4961 
     71 O         -47.2123  -22.2921    9.7848 O.2       3 UNK        -0.5105 
     72 CA        -47.7301  -22.5311    7.4534 C.3       3 UNK         0.0299 
     73 CB        -47.5060  -21.2110    6.6993 C.3       3 UNK        -0.1972 
     74 N         -47.6146  -23.6603    6.5187 N.am      3 UNK        -0.4305 
     75 C         -47.7914  -24.9468    6.8493 C.2       2 UNK         0.5006 
     76 O         -47.9784  -25.3386    8.0030 O.2       2 UNK        -0.5106 
     77 CA        -47.7005  -25.9814    5.7263 C.3       2 UNK         0.0296 
     78 CB        -46.2573  -26.5079    5.6048 C.3       2 UNK        -0.2002 
     79 N         -48.6205  -27.0642    6.0616 N.am      2 UNK        -0.4032 
     80 C         -49.0307  -28.0543    5.2585 C.2       1 UNK         0.5000 
     81 O         -48.6415  -28.1857    4.0957 O.2       1 UNK        -0.5238 
     82 H82       -50.5001  -27.8048    9.7045 H         1 UNK         0.0889 
     83 H83       -49.3673  -28.9489   10.4158 H         1 UNK         0.0889 
     84 H84       -50.9783  -29.4884    9.9574 H         1 UNK         0.0889 
     85 H85       -51.2649  -28.3181    7.3874 H         1 UNK         0.3028 
     86 H86       -49.5138  -30.0332    5.8048 H         1 UNK         0.0864 
     87 H87       -50.9944  -29.6323    3.9575 H         1 UNK         0.0720 
     88 H88       -51.9203  -30.0587    5.3585 H         1 UNK         0.0720 
     89 H89       -54.1914  -29.1889    5.2111 H         1 UNK         0.0814 
     90 H90       -54.6389  -27.5022    5.2089 H         1 UNK         0.0814 
     91 H91       -53.1720  -26.0426    7.0247 H         1 UNK         0.1469 
     92 H92       -53.4025  -27.8549   10.8968 H         1 UNK         0.1381 
     93 H93       -54.2670  -30.1692    7.3853 H         1 UNK         0.1206 
     94 H94       -54.1172  -31.2815    9.4816 H         1 UNK         0.0813 
     95 H95       -55.2313  -30.3087   10.4130 H         1 UNK         0.0813 
     96 H96       -54.3930  -32.6245   11.5483 H         1 UNK         0.0638 
     97 H97       -52.9903  -32.7562   12.5582 H         1 UNK         0.0638 
     98 H98       -55.1521  -32.7656   13.8117 H         1 UNK         0.0568 
     99 H99       -53.5762  -29.9953   16.2201 H         1 UNK         0.3450 
    100 H100      -54.8640  -29.6192   15.1110 H         1 UNK         0.3450 
    101 H101      -55.5798  -30.1722   12.5394 H         1 UNK         0.2987 
    102 H102      -58.4436  -30.0939   12.4558 H         1 UNK         0.0766 
    103 H103      -59.7250  -28.6557   14.0591 H         1 UNK         0.0798 
    104 H104      -58.6244  -29.1204   15.3556 H         1 UNK         0.0798 
    105 H105      -59.6544  -30.3247   14.5953 H         1 UNK         0.0798 
    106 H106      -57.4867  -28.1307   12.0564 H         1 UNK         0.3198 
    107 H107      -55.5159  -26.6291   12.1641 H         1 UNK         0.0843 
    108 H108      -57.5291  -25.1880   14.0088 H         1 UNK         0.0831 
    109 H109      -57.9011  -25.7972   12.4026 H         1 UNK         0.0831 
    110 H110      -56.7669  -24.4777   12.5882 H         1 UNK         0.0831 
    111 H111      -54.7600  -26.4349   14.8758 H         1 UNK         0.3133 
    112 H112      -52.6949  -23.5018   14.5818 H         1 UNK         0.0566 
    113 H113      -53.0140  -23.9706   16.9726 H         1 UNK         0.0814 
    114 H114      -54.5606  -23.6540   16.2049 H         1 UNK         0.0814 
    115 H115      -54.1131  -25.2984   16.6220 H         1 UNK         0.0814 
    116 H116      -51.0555  -24.9286   14.4875 H         1 UNK         0.3091 
    117 H117      -50.4088  -28.1330   15.7905 H         1 UNK         0.0702 
    118 H118      -51.3445  -28.8477   13.6052 H         1 UNK         0.0785 
    119 H119      -50.5974  -27.4764   12.8019 H         1 UNK         0.0785 
    120 H120      -49.5943  -28.7353   13.5180 H         1 UNK         0.0785 
    121 H121      -48.7727  -26.4432   14.1930 H         1 UNK         0.2998 
    122 H122      -47.3392  -24.6760   16.9935 H         1 UNK         0.0697 
    123 H123      -46.3763  -26.8408   15.0475 H         1 UNK         0.0825 
    124 H124      -46.3012  -26.9258   16.8023 H         1 UNK         0.0825 
    125 H125      -45.3519  -25.7229   15.9444 H         1 UNK         0.0825 
    126 H126      -47.4232  -24.7803   14.0059 H         1 UNK         0.3029 
    127 H127      -48.4241  -21.4176   13.8062 H         1 UNK         0.0897 
    128 H128      -46.4319  -21.0327   12.3586 H         1 UNK         0.0792 
    129 H129      -45.6132  -22.4140   13.0872 H         1 UNK         0.0792 
    130 H130      -45.9778  -20.9927   14.0553 H         1 UNK         0.0792 
    131 H131      -47.6437  -23.0840   11.6973 H         1 UNK         0.3086 
    132 H132      -50.3108  -25.4237   11.7366 H         1 UNK         0.0583 
    133 H133      -51.3900  -23.3940   10.6937 H         1 UNK         0.1020 
    134 H134      -49.9344  -23.1123    9.7751 H         1 UNK         0.1020 
    135 H135      -52.6543  -25.6295   10.7355 H         1 UNK         0.0694 
    136 H136      -53.4595  -24.7243    9.4699 H         1 UNK         0.0694 
    137 H137      -48.2908  -25.1291    9.8141 H         1 UNK         0.2989 
    138 H138      -45.6343  -26.7675   11.6168 H         1 UNK         0.1055 
    139 H139      -46.9817  -28.5686   10.5897 H         1 UNK         0.0806 
    140 H140      -45.6655  -28.1080    9.5256 H         1 UNK         0.0806 
    141 H141      -47.3038  -27.5694    9.1785 H         1 UNK         0.0806 
    142 H142      -46.1399  -25.3585    9.0627 H         1 UNK         0.3061 
    143 H143      -44.4558  -22.4432   10.0747 H         1 UNK         0.0734 
    144 H144      -42.8795  -22.8558    8.1967 H         1 UNK         0.0832 
    145 H145      -42.4431  -23.8410    9.5819 H         1 UNK         0.0832 
    146 H146      -43.2676  -24.5775    8.2154 H         1 UNK         0.0832 
    147 H147      -45.3171  -23.3562    7.5036 H         1 UNK         0.3156 
    148 H148      -48.7548  -22.5318    7.8282 H         1 UNK         0.0589 
    149 H149      -46.5111  -21.1610    6.2550 H         1 UNK         0.0808 
    150 H150      -48.2378  -21.0794    5.9020 H         1 UNK         0.0808 
    151 H151      -47.6061  -20.3567    7.3706 H         1 UNK         0.0808 
    152 H152      -47.4445  -23.4282    5.5502 H         1 UNK         0.3098 
    153 H153      -48.0159  -25.5254    4.7858 H         1 UNK         0.0720 
    154 H154      -46.1598  -27.2277    4.7923 H         1 UNK         0.0791 
    155 H155      -45.9302  -26.9968    6.5238 H         1 UNK         0.0791 
    156 H156      -45.5586  -25.6963    5.3983 H         1 UNK         0.0791 
    157 H157      -48.9892  -27.0104    7.0031 H         1 UNK         0.3028 
@<TRIPOS>BOND
     1    1    2 1    
     2    1   82 1    
     3    1   83 1    
     4    1   84 1    
     5    2    3 2    
     6    2    4 am   BACKBONE|DICT|INTERRES
     7    4    5 1    
     8    4   85 1    
     9    5    6 1    
    10    5   80 1    
    11    5   86 1    
    12    6    7 1    
    13    6   87 1    
    14    6   88 1    
    15    7    8 1    
    16    8    9 1    
    17    8   89 1    
    18    8   90 1    
    19    9   10 ar   
    20    9   14 ar   
    21   10   11 ar   
    22   10   91 1    
    23   11   12 ar   
    24   11   58 1    
    25   12   13 ar   
    26   12   92 1    
    27   13   14 ar   
    28   13   15 1    
    29   14   93 1    
    30   15   16 1    
    31   15   94 1    
    32   15   95 1    
    33   16   17 1    
    34   17   18 1    
    35   17   96 1    
    36   17   97 1    
    37   18   19 1    
    38   18   22 1    
    39   18   98 1    
    40   19   20 am   BACKBONE|DICT|INTERRES
    41   19   21 2    
    42   20   99 1    
    43   20  100 1    
    44   22   23 am   BACKBONE|DICT|INTERRES
    45   22  101 1    
    46   23   24 2    
    47   23   25 1    
    48   25   26 1    
    49   25   27 1    
    50   25  102 1    
    51   26  103 1    
    52   26  104 1    
    53   26  105 1    
    54   27   28 am   BACKBONE|DICT|INTERRES
    55   27  106 1    
    56   28   29 2    
    57   28   30 1    
    58   30   31 1    
    59   30   32 1    
    60   30  107 1    
    61   31  108 1    
    62   31  109 1    
    63   31  110 1    
    64   32   33 am   BACKBONE|DICT|INTERRES
    65   32  111 1    
    66   33   34 2    
    67   33   35 1    
    68   35   36 1    
    69   35   37 1    
    70   35  112 1    
    71   36  113 1    
    72   36  114 1    
    73   36  115 1    
    74   37   38 am   BACKBONE|DICT|INTERRES
    75   37  116 1    
    76   38   39 2    
    77   38   40 1    
    78   40   41 1    
    79   40   42 1    
    80   40  117 1    
    81   41  118 1    
    82   41  119 1    
    83   41  120 1    
    84   42   43 am   BACKBONE|DICT|INTERRES
    85   42  121 1    
    86   43   44 2    
    87   43   45 1    
    88   45   46 1    
    89   45   47 1    
    90   45  122 1    
    91   46  123 1    
    92   46  124 1    
    93   46  125 1    
    94   47   48 am   BACKBONE|DICT|INTERRES
    95   47  126 1    
    96   48   49 2    
    97   48   50 1    
    98   50   51 1    
    99   50   52 1    
   100   50  127 1    
   101   51  128 1    
   102   51  129 1    
   103   51  130 1    
   104   52   53 am   BACKBONE|DICT|INTERRES
   105   52  131 1    
   106   53   54 2    
   107   53   55 1    
   108   55   56 1    
   109   55   59 1    
   110   55  132 1    
   111   56   57 1    
   112   56  133 1    
   113   56  134 1    
   114   57   58 1    
   115   58  135 1    
   116   58  136 1    
   117   59   60 am   BACKBONE|DICT|INTERRES
   118   59  137 1    
   119   60   61 2    
   120   60   62 1    
   121   62   63 1    
   122   62   64 1    
   123   62  138 1    
   124   63  139 1    
   125   63  140 1    
   126   63  141 1    
   127   64   65 am   BACKBONE|DICT|INTERRES
   128   64  142 1    
   129   65   66 2    
   130   65   67 1    
   131   67   68 1    
   132   67   69 1    
   133   67  143 1    
   134   68  144 1    
   135   68  145 1    
   136   68  146 1    
   137   69   70 am   BACKBONE|DICT|INTERRES
   138   69  147 1    
   139   70   71 2    
   140   70   72 1    
   141   72   73 1    
   142   72   74 1    
   143   72  148 1    
   144   73  149 1    
   145   73  150 1    
   146   73  151 1    
   147   74   75 am   BACKBONE|DICT|INTERRES
   148   74  152 1    
   149   75   76 2    
   150   75   77 1    
   151   77   78 1    
   152   77   79 1    
   153   77  153 1    
   154   78  154 1    
   155   78  155 1    
   156   78  156 1    
   157   79   80 am   BACKBONE|DICT|INTERRES
   158   79  157 1    
   159   80   81 2    
@<TRIPOS>SUBSTRUCTURE
     1 UNK         1 GROUP             0       ****    0 ROOT    
