@<TRIPOS>MOLECULE
3R207
157   159    1
SMALL
USER_CHARGES


@<TRIPOS>ATOM
      1 CA        -54.2460  -25.0630    3.4234 C.3       0 UNK        -0.1975 
      2 C         -53.4304  -25.7595    4.5029 C.2       0 UNK         0.4852 
      3 O         -53.7476  -25.6321    5.6864 O.2       0 UNK        -0.5216 
      4 N         -52.3886  -26.5013    4.1041 N.am      1 UNK        -0.4461 
      5 CA        -51.4560  -27.1790    5.0082 C.3       1 UNK         0.0864 
      6 C6        -50.6875  -28.3001    4.2636 C.3       14 UNK        -0.0898 
      7 S7        -49.5539  -29.3009    5.2896 S.3       14 UNK        -0.2598 
      8 C8        -50.6968  -30.3189    6.2789 C.3       14 UNK         0.0286 
      9 C9        -50.9369  -29.7033    7.6503 C.ar      14 UNK        -0.0844 
     10 C10       -49.9205  -29.7291    8.6096 C.ar      14 UNK        -0.0881 
     11 C11       -50.1180  -29.1586    9.8696 C.ar      14 UNK        -0.0643 
     12 C12       -51.3428  -28.5553   10.1692 C.ar      14 UNK        -0.0930 
     13 C13       -52.3737  -28.5407    9.2262 C.ar      14 UNK        -0.0827 
     14 C14       -52.1674  -29.1223    7.9717 C.ar      14 UNK        -0.1249 
     15 C15       -53.7140  -27.9021    9.5604 C.3       14 UNK         0.0141 
     16 S16       -55.0020  -29.1585    9.8340 S.3       14 UNK        -0.2313 
     17 C17       -54.5037  -29.8672   11.4416 C.3       14 UNK        -0.0915 
     18 CA        -55.6872  -29.9322   12.4437 C.3       13 UNK         0.0968 
     19 C         -55.3184  -30.7289   13.7301 C.2       13 UNK         0.5732 
     20 N         -55.5492  -30.2196   14.9357 N.am      13 UNK        -0.7310 
     21 O         -54.8273  -31.8511   13.6351 O.2       13 UNK        -0.5035 
     22 N         -56.2335  -28.5962   12.7205 N.am      13 UNK        -0.4233 
     23 C         -57.5328  -28.3182   12.8908 C.2       13 UNK         0.4989 
     24 O         -58.4322  -29.1490   12.7489 O.2       13 UNK        -0.4996 
     25 CA        -57.8900  -26.8680   13.2896 C.3       12 UNK         0.0216 
     26 CB        -59.2445  -26.7703   14.0245 C.3       12 UNK        -0.1964 
     27 N         -56.8361  -26.1901   14.0590 N.am      12 UNK        -0.4276 
     28 C         -56.3014  -26.6007   15.2174 C.2       12 UNK         0.5020 
     29 O         -56.6649  -27.6049   15.8354 O.2       12 UNK        -0.5489 
     30 CA        -55.1106  -25.7854   15.7423 C.3       11 UNK         0.0294 
     31 CB        -55.4652  -25.0739   17.0575 C.3       11 UNK        -0.2019 
     32 N         -53.9408  -26.6386   15.9516 N.am      11 UNK        -0.4493 
     33 C         -53.3272  -27.3654   15.0087 C.2       11 UNK         0.4932 
     34 O         -53.6702  -27.3838   13.8237 O.2       11 UNK        -0.5029 
     35 CA        -52.1153  -28.1899   15.4791 C.3       10 UNK         0.0280 
     36 CB        -51.5251  -29.0672   14.3595 C.3       10 UNK        -0.1976 
     37 N         -51.0613  -27.3232   16.0103 N.am      10 UNK        -0.4242 
     38 C         -51.0359  -26.7808   17.2362 C.2       10 UNK         0.5072 
     39 O         -51.9104  -26.9690   18.0834 O.2       10 UNK        -0.5224 
     40 CA        -49.8614  -25.8443   17.5536 C.3       9 UNK         0.0343 
     41 CB        -48.5469  -26.6320   17.6872 C.3       9 UNK        -0.2003 
     42 N         -49.7252  -24.8337   16.5053 N.am      9 UNK        -0.4272 
     43 C         -50.2406  -23.5964   16.5602 C.2       9 UNK         0.4988 
     44 O         -50.7966  -23.1266   17.5535 O.2       9 UNK        -0.5108 
     45 CA        -50.1296  -22.7334   15.2870 C.3       8 UNK         0.0248 
     46 CB        -48.8446  -21.8907   15.3179 C.3       8 UNK        -0.2001 
     47 N         -50.1601  -23.5308   14.0579 N.am      8 UNK        -0.4140 
     48 C         -51.2273  -24.2341   13.6455 C.2       8 UNK         0.5028 
     49 O         -52.3407  -24.1313   14.1585 O.2       8 UNK        -0.5428 
     50 CA        -51.0275  -25.2465   12.4993 C.3       7 UNK         0.0264 
     51 CB        -51.7220  -24.7641   11.2184 C.3       7 UNK        -0.1988 
     52 N         -49.6255  -25.5641   12.2052 N.am      7 UNK        -0.4454 
     53 C         -48.7723  -26.1627   13.0504 C.2       7 UNK         0.5027 
     54 O         -49.0975  -26.5572   14.1704 O.2       7 UNK        -0.5083 
     55 CA        -47.3008  -26.2979   12.6093 C.3       6 UNK         0.0844 
     56 C56       -46.9670  -27.7335   12.1338 C.3       14 UNK        -0.0967 
     57 S57       -47.6379  -28.1095   10.4738 S.3       14 UNK        -0.2604 
     58 C58       -49.0152  -29.2113   10.9124 C.3       14 UNK         0.0134 
     59 N         -46.8770  -25.3116   11.6152 N.am      6 UNK        -0.4116 
     60 C         -46.8696  -23.9778   11.7210 C.2       5 UNK         0.5034 
     61 O         -47.3417  -23.3673   12.6813 O.2       5 UNK        -0.5045 
     62 CA        -46.2589  -23.2091   10.5285 C.3       5 UNK         0.0224 
     63 CB        -45.4810  -21.9543   10.9768 C.3       5 UNK        -0.1978 
     64 N         -45.4493  -24.0594    9.6329 N.am      5 UNK        -0.4737 
     65 C         -44.3049  -24.7020    9.9279 C.2       4 UNK         0.5027 
     66 O         -43.7148  -24.5758   11.0007 O.2       4 UNK        -0.5211 
     67 CA        -43.7601  -25.6985    8.8858 C.3       4 UNK         0.0297 
     68 CB        -43.0819  -26.9113    9.5516 C.3       4 UNK        -0.1993 
     69 N         -44.8208  -26.1870    7.9992 N.am      4 UNK        -0.4486 
     70 C         -44.8607  -26.0091    6.6736 C.2       3 UNK         0.4961 
     71 O         -43.9767  -25.4461    6.0268 O.2       3 UNK        -0.5105 
     72 CA        -46.1064  -26.5361    5.9355 C.3       3 UNK         0.0299 
     73 CB        -45.8572  -27.9643    5.4244 C.3       3 UNK        -0.1972 
     74 N         -47.3638  -26.5109    6.6964 N.am      3 UNK        -0.4305 
     75 C         -47.9053  -25.4375    7.2935 C.2       2 UNK         0.5006 
     76 O         -47.3218  -24.3597    7.4212 O.2       2 UNK        -0.5106 
     77 CA        -49.3394  -25.5970    7.8396 C.3       2 UNK         0.0296 
     78 CB        -50.0048  -24.2359    8.1376 C.3       2 UNK        -0.2002 
     79 N         -50.2022  -26.4061    6.9687 N.am      2 UNK        -0.4032 
     80 C         -50.5224  -26.1556    5.6880 C.2       1 UNK         0.5000 
     81 O         -50.1070  -25.1900    5.0404 O.2       1 UNK        -0.5238 
     82 H82       -53.8656  -25.2743    2.4242 H         1 UNK         0.0889 
     83 H83       -54.2226  -23.9841    3.5741 H         1 UNK         0.0889 
     84 H84       -55.2842  -25.3912    3.4673 H         1 UNK         0.0889 
     85 H85       -52.1551  -26.5398    3.1222 H         1 UNK         0.3028 
     86 H86       -52.0631  -27.6449    5.7811 H         1 UNK         0.0864 
     87 H87       -50.0986  -27.8702    3.4511 H         1 UNK         0.0720 
     88 H88       -51.3956  -28.9797    3.7864 H         1 UNK         0.0720 
     89 H89       -50.2612  -31.3110    6.4065 H         1 UNK         0.0814 
     90 H90       -51.6351  -30.4674    5.7422 H         1 UNK         0.0814 
     91 H91       -48.9701  -30.1891    8.3741 H         1 UNK         0.1469 
     92 H92       -51.5012  -28.1110   11.1417 H         1 UNK         0.1381 
     93 H93       -52.9737  -29.1254    7.2507 H         1 UNK         0.1206 
     94 H94       -54.0191  -27.2561    8.7356 H         1 UNK         0.0813 
     95 H95       -53.6383  -27.2603   10.4400 H         1 UNK         0.0813 
     96 H96       -53.6822  -29.2887   11.8657 H         1 UNK         0.0638 
     97 H97       -54.1042  -30.8635   11.2447 H         1 UNK         0.0638 
     98 H98       -56.4651  -30.5293   11.9648 H         1 UNK         0.0568 
     99 H99       -55.3150  -30.7685   15.7466 H         1 UNK         0.3450 
    100 H100      -55.9756  -29.3067   15.0560 H         1 UNK         0.3450 
    101 H101      -55.5407  -27.8824   12.9136 H         1 UNK         0.2987 
    102 H102      -57.9842  -26.3179   12.3521 H         1 UNK         0.0766 
    103 H103      -59.4843  -25.7382   14.2798 H         1 UNK         0.0798 
    104 H104      -59.2469  -27.3530   14.9463 H         1 UNK         0.0798 
    105 H105      -60.0580  -27.1444   13.4016 H         1 UNK         0.0798 
    106 H106      -56.4416  -25.3682   13.6210 H         1 UNK         0.3198 
    107 H107      -54.8361  -25.0290   15.0039 H         1 UNK         0.0843 
    108 H108      -55.7181  -25.7852   17.8451 H         1 UNK         0.0831 
    109 H109      -56.3242  -24.4148   16.9249 H         1 UNK         0.0831 
    110 H110      -54.6369  -24.4597   17.4118 H         1 UNK         0.0831 
    111 H111      -53.5670  -26.6885   16.8931 H         1 UNK         0.3133 
    112 H112      -52.4617  -28.8555   16.2725 H         1 UNK         0.0566 
    113 H113      -50.6941  -29.6707   14.7246 H         1 UNK         0.0814 
    114 H114      -52.2747  -29.7540   13.9648 H         1 UNK         0.0814 
    115 H115      -51.1606  -28.4663   13.5274 H         1 UNK         0.0814 
    116 H116      -50.3118  -27.0870   15.3620 H         1 UNK         0.3091 
    117 H117      -50.0625  -25.3642   18.5137 H         1 UNK         0.0702 
    118 H118      -47.7227  -25.9761   17.9678 H         1 UNK         0.0785 
    119 H119      -48.2713  -27.1337   16.7589 H         1 UNK         0.0785 
    120 H120      -48.6289  -27.3974   18.4602 H         1 UNK         0.0785 
    121 H121      -49.3203  -25.1511   15.6325 H         1 UNK         0.2998 
    122 H122      -50.9846  -22.0542   15.2701 H         1 UNK         0.0697 
    123 H123      -47.9511  -22.5164   15.3315 H         1 UNK         0.0825 
    124 H124      -48.8140  -21.2579   16.2059 H         1 UNK         0.0825 
    125 H125      -48.7787  -21.2348   14.4496 H         1 UNK         0.0825 
    126 H126      -49.2837  -23.6242   13.5563 H         1 UNK         0.3029 
    127 H127      -51.5113  -26.1720   12.8131 H         1 UNK         0.0897 
    128 H128      -52.7836  -24.5860   11.3962 H         1 UNK         0.0792 
    129 H129      -51.6516  -25.5084   10.4256 H         1 UNK         0.0792 
    130 H130      -51.2920  -23.8304   10.8551 H         1 UNK         0.0792 
    131 H131      -49.2708  -25.2672   11.3092 H         1 UNK         0.3086 
    132 H132      -46.7048  -26.1037   13.5035 H         1 UNK         0.0583 
    133 H133      -45.8832  -27.8511   12.0827 H         1 UNK         0.1020 
    134 H134      -47.2965  -28.4770   12.8629 H         1 UNK         0.1020 
    135 H135      -48.6438  -30.2327   11.0072 H         1 UNK         0.0694 
    136 H136      -49.4141  -28.9373   11.8896 H         1 UNK         0.0694 
    137 H137      -46.4801  -25.7016   10.7750 H         1 UNK         0.2989 
    138 H138      -47.1070  -22.8697    9.9316 H         1 UNK         0.1055 
    139 H139      -46.1347  -21.2575   11.5030 H         1 UNK         0.0806 
    140 H140      -45.0620  -21.4213   10.1235 H         1 UNK         0.0806 
    141 H141      -44.6633  -22.2009   11.6545 H         1 UNK         0.0806 
    142 H142      -45.8605  -24.2127    8.7141 H         1 UNK         0.3061 
    143 H143      -43.0013  -25.1584    8.3161 H         1 UNK         0.0734 
    144 H144      -42.6942  -27.6059    8.8063 H         1 UNK         0.0832 
    145 H145      -42.2378  -26.6022   10.1696 H         1 UNK         0.0832 
    146 H146      -43.7738  -27.4592   10.1926 H         1 UNK         0.0832 
    147 H147      -45.5910  -26.6756    8.4333 H         1 UNK         0.3156 
    148 H148      -46.2548  -25.8903    5.0678 H         1 UNK         0.0589 
    149 H149      -45.7786  -28.6789    6.2447 H         1 UNK         0.0808 
    150 H150      -46.6590  -28.2959    4.7646 H         1 UNK         0.0808 
    151 H151      -44.9296  -28.0205    4.8527 H         1 UNK         0.0808 
    152 H152      -47.9224  -27.3517    6.6516 H         1 UNK         0.3098 
    153 H153      -49.2588  -26.1433    8.7800 H         1 UNK         0.0720 
    154 H154      -51.0495  -24.3543    8.4218 H         1 UNK         0.0791 
    155 H155      -49.9783  -23.5771    7.2686 H         1 UNK         0.0791 
    156 H156      -49.4954  -23.7186    8.9510 H         1 UNK         0.0791 
    157 H157      -50.5758  -27.2469    7.3923 H         1 UNK         0.3028 
@<TRIPOS>BOND
     1    1    2 1    
     2    1   82 1    
     3    1   83 1    
     4    1   84 1    
     5    2    3 2    
     6    2    4 am   BACKBONE|DICT|INTERRES
     7    4    5 1    
     8    4   85 1    
     9    5    6 1    
    10    5   80 1    
    11    5   86 1    
    12    6    7 1    
    13    6   87 1    
    14    6   88 1    
    15    7    8 1    
    16    8    9 1    
    17    8   89 1    
    18    8   90 1    
    19    9   10 ar   
    20    9   14 ar   
    21   10   11 ar   
    22   10   91 1    
    23   11   12 ar   
    24   11   58 1    
    25   12   13 ar   
    26   12   92 1    
    27   13   14 ar   
    28   13   15 1    
    29   14   93 1    
    30   15   16 1    
    31   15   94 1    
    32   15   95 1    
    33   16   17 1    
    34   17   18 1    
    35   17   96 1    
    36   17   97 1    
    37   18   19 1    
    38   18   22 1    
    39   18   98 1    
    40   19   20 am   BACKBONE|DICT|INTERRES
    41   19   21 2    
    42   20   99 1    
    43   20  100 1    
    44   22   23 am   BACKBONE|DICT|INTERRES
    45   22  101 1    
    46   23   24 2    
    47   23   25 1    
    48   25   26 1    
    49   25   27 1    
    50   25  102 1    
    51   26  103 1    
    52   26  104 1    
    53   26  105 1    
    54   27   28 am   BACKBONE|DICT|INTERRES
    55   27  106 1    
    56   28   29 2    
    57   28   30 1    
    58   30   31 1    
    59   30   32 1    
    60   30  107 1    
    61   31  108 1    
    62   31  109 1    
    63   31  110 1    
    64   32   33 am   BACKBONE|DICT|INTERRES
    65   32  111 1    
    66   33   34 2    
    67   33   35 1    
    68   35   36 1    
    69   35   37 1    
    70   35  112 1    
    71   36  113 1    
    72   36  114 1    
    73   36  115 1    
    74   37   38 am   BACKBONE|DICT|INTERRES
    75   37  116 1    
    76   38   39 2    
    77   38   40 1    
    78   40   41 1    
    79   40   42 1    
    80   40  117 1    
    81   41  118 1    
    82   41  119 1    
    83   41  120 1    
    84   42   43 am   BACKBONE|DICT|INTERRES
    85   42  121 1    
    86   43   44 2    
    87   43   45 1    
    88   45   46 1    
    89   45   47 1    
    90   45  122 1    
    91   46  123 1    
    92   46  124 1    
    93   46  125 1    
    94   47   48 am   BACKBONE|DICT|INTERRES
    95   47  126 1    
    96   48   49 2    
    97   48   50 1    
    98   50   51 1    
    99   50   52 1    
   100   50  127 1    
   101   51  128 1    
   102   51  129 1    
   103   51  130 1    
   104   52   53 am   BACKBONE|DICT|INTERRES
   105   52  131 1    
   106   53   54 2    
   107   53   55 1    
   108   55   56 1    
   109   55   59 1    
   110   55  132 1    
   111   56   57 1    
   112   56  133 1    
   113   56  134 1    
   114   57   58 1    
   115   58  135 1    
   116   58  136 1    
   117   59   60 am   BACKBONE|DICT|INTERRES
   118   59  137 1    
   119   60   61 2    
   120   60   62 1    
   121   62   63 1    
   122   62   64 1    
   123   62  138 1    
   124   63  139 1    
   125   63  140 1    
   126   63  141 1    
   127   64   65 am   BACKBONE|DICT|INTERRES
   128   64  142 1    
   129   65   66 2    
   130   65   67 1    
   131   67   68 1    
   132   67   69 1    
   133   67  143 1    
   134   68  144 1    
   135   68  145 1    
   136   68  146 1    
   137   69   70 am   BACKBONE|DICT|INTERRES
   138   69  147 1    
   139   70   71 2    
   140   70   72 1    
   141   72   73 1    
   142   72   74 1    
   143   72  148 1    
   144   73  149 1    
   145   73  150 1    
   146   73  151 1    
   147   74   75 am   BACKBONE|DICT|INTERRES
   148   74  152 1    
   149   75   76 2    
   150   75   77 1    
   151   77   78 1    
   152   77   79 1    
   153   77  153 1    
   154   78  154 1    
   155   78  155 1    
   156   78  156 1    
   157   79   80 am   BACKBONE|DICT|INTERRES
   158   79  157 1    
   159   80   81 2    
@<TRIPOS>SUBSTRUCTURE
     1 UNK         1 GROUP             0       ****    0 ROOT    
