@<TRIPOS>MOLECULE
3R207
157   159    1
SMALL
USER_CHARGES


@<TRIPOS>ATOM
      1 CA        -45.9251  -31.1751   12.0481 C.3       0 UNK        -0.1975 
      2 C         -45.9825  -30.3029   10.8026 C.2       0 UNK         0.4852 
      3 O         -44.9505  -29.7907   10.3682 O.2       0 UNK        -0.5216 
      4 N         -47.1804  -30.1395   10.2249 N.am      1 UNK        -0.4461 
      5 CA        -47.4609  -29.2633    9.0836 C.3       1 UNK         0.0864 
      6 C6        -48.8997  -29.5150    8.5637 C.3       14 UNK        -0.0898 
      7 S7        -49.3148  -28.6146    7.0308 S.3       14 UNK        -0.2598 
      8 C8        -51.1348  -28.6639    7.0472 C.3       14 UNK         0.0286 
      9 C9        -51.7414  -27.8414    8.1774 C.ar      14 UNK        -0.0844 
     10 C10       -51.8205  -26.4483    8.0780 C.ar      14 UNK        -0.0881 
     11 C11       -52.4259  -25.6968    9.0914 C.ar      14 UNK        -0.0643 
     12 C12       -52.9482  -26.3494   10.2133 C.ar      14 UNK        -0.0930 
     13 C13       -52.8796  -27.7417   10.3217 C.ar      14 UNK        -0.0827 
     14 C14       -52.2686  -28.4797    9.3042 C.ar      14 UNK        -0.1249 
     15 C15       -53.4648  -28.4518   11.5352 C.3       14 UNK         0.0141 
     16 S16       -54.8740  -29.5248   11.1130 S.3       14 UNK        -0.2313 
     17 C17       -56.1527  -28.3252   10.5978 C.3       14 UNK        -0.0915 
     18 CA        -57.3785  -28.2629   11.5474 C.3       13 UNK         0.0968 
     19 C         -58.2111  -29.5814   11.5398 C.2       13 UNK         0.5732 
     20 N         -58.3435  -30.3015   12.6493 N.am      13 UNK        -0.7310 
     21 O         -58.7625  -29.9490   10.5048 O.2       13 UNK        -0.5035 
     22 N         -57.0009  -27.7820   12.8827 N.am      13 UNK        -0.4233 
     23 C         -57.8510  -27.2493   13.7694 C.2       13 UNK         0.4989 
     24 O         -59.0257  -26.9815   13.5097 O.2       13 UNK        -0.4996 
     25 CA        -57.2971  -26.9688   15.1813 C.3       12 UNK         0.0216 
     26 CB        -58.3933  -27.0223   16.2668 C.3       12 UNK        -0.1964 
     27 N         -56.1577  -27.8166   15.5623 N.am      12 UNK        -0.4276 
     28 C         -56.1272  -29.1578   15.6492 C.2       12 UNK         0.5020 
     29 O         -57.0806  -29.8769   15.3455 O.2       12 UNK        -0.5489 
     30 CA        -54.8150  -29.8250   16.1117 C.3       11 UNK         0.0294 
     31 CB        -54.2243  -30.6849   14.9813 C.3       11 UNK        -0.2019 
     32 N         -53.7981  -28.8708   16.5649 N.am      11 UNK        -0.4493 
     33 C         -53.8120  -28.2401   17.7502 C.2       11 UNK         0.4932 
     34 O         -54.6328  -28.4793   18.6359 O.2       11 UNK        -0.5029 
     35 CA        -52.7655  -27.1285   17.9838 C.3       10 UNK         0.0280 
     36 CB        -51.5851  -27.6705   18.8055 C.3       10 UNK        -0.1976 
     37 N         -52.2514  -26.5157   16.7537 N.am      10 UNK        -0.4242 
     38 C         -52.9938  -25.9138   15.8127 C.2       10 UNK         0.5072 
     39 O         -54.2011  -25.7044   15.9324 O.2       10 UNK        -0.5224 
     40 CA        -52.3063  -25.5472   14.4827 C.3       9 UNK         0.0343 
     41 CB        -52.0271  -24.0375   14.4353 C.3       9 UNK        -0.2003 
     42 N         -51.0794  -26.2993   14.1643 N.am      9 UNK        -0.4272 
     43 C         -50.9726  -27.6400   14.1245 C.2       9 UNK         0.4988 
     44 O         -51.9067  -28.3896   14.4101 O.2       9 UNK        -0.5108 
     45 CA        -49.6294  -28.2800   13.7194 C.3       8 UNK         0.0248 
     46 CB        -49.8242  -29.2687   12.5595 C.3       8 UNK        -0.2001 
     47 N         -48.5822  -27.3269   13.3517 N.am      8 UNK        -0.4140 
     48 C         -47.8629  -26.5932   14.2118 C.2       8 UNK         0.5028 
     49 O         -47.9795  -26.6606   15.4356 O.2       8 UNK        -0.5428 
     50 CA        -46.8820  -25.5795   13.5949 C.3       7 UNK         0.0264 
     51 CB        -45.5067  -26.2278   13.3698 C.3       7 UNK        -0.1988 
     52 N         -47.3679  -25.0329   12.3253 N.am      7 UNK        -0.4454 
     53 C         -48.4815  -24.3081   12.1687 C.2       7 UNK         0.5027 
     54 O         -49.1526  -23.9028   13.1177 O.2       7 UNK        -0.5083 
     55 CA        -48.9292  -24.0165   10.7191 C.3       6 UNK         0.0844 
     56 C56       -50.4003  -23.5300   10.6581 C.3       14 UNK        -0.0967 
     57 S57       -50.9816  -23.3037    8.9443 S.3       14 UNK        -0.2604 
     58 C58       -52.5738  -24.1870    8.9471 C.3       14 UNK         0.0134 
     59 N         -48.0232  -23.0820   10.0447 N.am      6 UNK        -0.4116 
     60 C         -46.7774  -23.3458    9.6357 C.2       5 UNK         0.5034 
     61 O         -46.2085  -24.4234    9.8173 O.2       5 UNK        -0.5045 
     62 CA        -46.0832  -22.2383    8.8334 C.3       5 UNK         0.0224 
     63 CB        -44.5618  -22.4521    8.7227 C.3       5 UNK        -0.1978 
     64 N         -46.6627  -22.2042    7.4916 N.am      5 UNK        -0.4737 
     65 C         -47.7053  -21.4426    7.1327 C.2       4 UNK         0.5027 
     66 O         -48.2528  -20.6482    7.8980 O.2       4 UNK        -0.5211 
     67 CA        -48.2274  -21.5689    5.6895 C.3       4 UNK         0.0297 
     68 CB        -47.7407  -20.3832    4.8403 C.3       4 UNK        -0.1993 
     69 N         -47.8296  -22.8182    5.0365 N.am      4 UNK        -0.4486 
     70 C         -48.4169  -24.0043    5.2419 C.2       3 UNK         0.4961 
     71 O         -49.4012  -24.1663    5.9617 O.2       3 UNK        -0.5105 
     72 CA        -47.8124  -25.2299    4.5308 C.3       3 UNK         0.0299 
     73 CB        -46.7313  -24.8933    3.4767 C.3       3 UNK        -0.1972 
     74 N         -47.3065  -26.2063    5.5009 N.am      3 UNK        -0.4305 
     75 C         -46.3603  -26.0011    6.4283 C.2       2 UNK         0.5006 
     76 O         -45.7611  -24.9351    6.5810 O.2       2 UNK        -0.5106 
     77 CA        -46.0329  -27.1926    7.3346 C.3       2 UNK         0.0296 
     78 CB        -44.5159  -27.4138    7.4613 C.3       2 UNK        -0.2002 
     79 N         -46.5988  -26.9378    8.6579 N.am      2 UNK        -0.4032 
     80 C         -47.2456  -27.7787    9.4792 C.2       1 UNK         0.5000 
     81 O         -47.6974  -27.3961   10.5613 O.2       1 UNK        -0.5238 
     82 H82       -45.6072  -30.5814   12.9049 H         1 UNK         0.0889 
     83 H83       -45.2079  -31.9834   11.9079 H         1 UNK         0.0889 
     84 H84       -46.8927  -31.6182   12.2827 H         1 UNK         0.0889 
     85 H85       -47.9863  -30.5891   10.6321 H         1 UNK         0.3028 
     86 H86       -46.7516  -29.5659    8.3150 H         1 UNK         0.0864 
     87 H87       -49.0423  -30.5783    8.3646 H         1 UNK         0.0720 
     88 H88       -49.6204  -29.2543    9.3386 H         1 UNK         0.0720 
     89 H89       -51.4641  -29.7025    7.1062 H         1 UNK         0.0814 
     90 H90       -51.5028  -28.2856    6.0924 H         1 UNK         0.0814 
     91 H91       -51.4201  -25.9466    7.2066 H         1 UNK         0.1469 
     92 H92       -53.4268  -25.7741   10.9937 H         1 UNK         0.1381 
     93 H93       -52.2209  -29.5572    9.3848 H         1 UNK         0.1206 
     94 H94       -52.6918  -29.0771   11.9794 H         1 UNK         0.0813 
     95 H95       -53.7666  -27.7406   12.3048 H         1 UNK         0.0813 
     96 H96       -55.7090  -27.3327   10.5130 H         1 UNK         0.0638 
     97 H97       -56.4700  -28.5858    9.5867 H         1 UNK         0.0638 
     98 H98       -58.0475  -27.5101   11.1259 H         1 UNK         0.0568 
     99 H99       -57.8954  -30.0240   13.5165 H         1 UNK         0.3450 
    100 H100      -58.8914  -31.1459   12.6208 H         1 UNK         0.3450 
    101 H101      -56.0639  -28.0007   13.1825 H         1 UNK         0.2987 
    102 H102      -56.9142  -25.9477   15.1519 H         1 UNK         0.0766 
    103 H103      -58.8687  -28.0028   16.3122 H         1 UNK         0.0798 
    104 H104      -57.9847  -26.8018   17.2530 H         1 UNK         0.0798 
    105 H105      -59.1771  -26.2892   16.0723 H         1 UNK         0.0798 
    106 H106      -55.3185  -27.2985   15.8100 H         1 UNK         0.3198 
    107 H107      -55.0662  -30.4851   16.9447 H         1 UNK         0.0843 
    108 H108      -54.9284  -31.4561   14.6657 H         1 UNK         0.0831 
    109 H109      -53.3125  -31.1901   15.2999 H         1 UNK         0.0831 
    110 H110      -53.9850  -30.0865   14.1022 H         1 UNK         0.0831 
    111 H111      -53.0773  -28.6316   15.8861 H         1 UNK         0.3133 
    112 H112      -53.2528  -26.3402   18.5611 H         1 UNK         0.0566 
    113 H113      -50.8805  -26.8786   19.0608 H         1 UNK         0.0814 
    114 H114      -51.9302  -28.1084   19.7433 H         1 UNK         0.0814 
    115 H115      -51.0399  -28.4457   18.2653 H         1 UNK         0.0814 
    116 H116      -51.2690  -26.6463   16.5601 H         1 UNK         0.3091 
    117 H117      -53.0262  -25.7757   13.6949 H         1 UNK         0.0702 
    118 H118      -51.7667  -23.7141   13.4288 H         1 UNK         0.0785 
    119 H119      -51.2117  -23.7566   15.1030 H         1 UNK         0.0785 
    120 H120      -52.9056  -23.4624   14.7321 H         1 UNK         0.0785 
    121 H121      -50.2654  -25.7437   13.9337 H         1 UNK         0.2998 
    122 H122      -49.2835  -28.8476   14.5856 H         1 UNK         0.0697 
    123 H123      -50.1422  -28.7598   11.6488 H         1 UNK         0.0825 
    124 H124      -50.5760  -30.0220   12.7989 H         1 UNK         0.0825 
    125 H125      -48.8996  -29.8014   12.3479 H         1 UNK         0.0825 
    126 H126      -48.3788  -27.2322   12.3581 H         1 UNK         0.3029 
    127 H127      -46.7695  -24.7522   14.2987 H         1 UNK         0.0897 
    128 H128      -44.7839  -25.5034   12.9940 H         1 UNK         0.0792 
    129 H129      -45.1077  -26.6315   14.3014 H         1 UNK         0.0792 
    130 H130      -45.5608  -27.0492   12.6531 H         1 UNK         0.0792 
    131 H131      -46.8632  -25.2971   11.4841 H         1 UNK         0.3086 
    132 H132      -48.8842  -24.9650   10.1794 H         1 UNK         0.0583 
    133 H133      -51.0510  -24.2466   11.1618 H         1 UNK         0.1020 
    134 H134      -50.5204  -22.5841   11.1899 H         1 UNK         0.1020 
    135 H135      -53.2054  -23.7773    9.7369 H         1 UNK         0.0694 
    136 H136      -53.0875  -23.9753    8.0083 H         1 UNK         0.0694 
    137 H137      -48.4224  -22.1863    9.7986 H         1 UNK         0.2989 
    138 H138      -46.2493  -21.2887    9.3474 H         1 UNK         0.1055 
    139 H139      -44.3152  -23.3841    8.2128 H         1 UNK         0.0806 
    140 H140      -44.1022  -22.4916    9.7111 H         1 UNK         0.0806 
    141 H141      -44.0871  -21.6375    8.1759 H         1 UNK         0.0806 
    142 H142      -46.3274  -22.9159    6.8502 H         1 UNK         0.3061 
    143 H143      -49.3182  -21.5300    5.7339 H         1 UNK         0.0734 
    144 H144      -48.0497  -19.4348    5.2824 H         1 UNK         0.0832 
    145 H145      -46.6532  -20.3637    4.7574 H         1 UNK         0.0832 
    146 H146      -48.1556  -20.4185    3.8328 H         1 UNK         0.0832 
    147 H147      -47.0177  -22.7833    4.4370 H         1 UNK         0.3156 
    148 H148      -48.6386  -25.7148    4.0085 H         1 UNK         0.0589 
    149 H149      -45.8477  -24.4292    3.9164 H         1 UNK         0.0808 
    150 H150      -46.4007  -25.7945    2.9601 H         1 UNK         0.0808 
    151 H151      -47.1202  -24.2177    2.7136 H         1 UNK         0.0808 
    152 H152      -47.7894  -27.0951    5.5071 H         1 UNK         0.3098 
    153 H153      -46.4652  -28.0745    6.8659 H         1 UNK         0.0720 
    154 H154      -44.2930  -28.3003    8.0552 H         1 UNK         0.0791 
    155 H155      -44.0236  -26.5635    7.9356 H         1 UNK         0.0791 
    156 H156      -44.0576  -27.5533    6.4815 H         1 UNK         0.0791 
    157 H157      -46.4774  -25.9773    8.9761 H         1 UNK         0.3028 
@<TRIPOS>BOND
     1    1    2 1    
     2    1   82 1    
     3    1   83 1    
     4    1   84 1    
     5    2    3 2    
     6    2    4 am   BACKBONE|DICT|INTERRES
     7    4    5 1    
     8    4   85 1    
     9    5    6 1    
    10    5   80 1    
    11    5   86 1    
    12    6    7 1    
    13    6   87 1    
    14    6   88 1    
    15    7    8 1    
    16    8    9 1    
    17    8   89 1    
    18    8   90 1    
    19    9   10 ar   
    20    9   14 ar   
    21   10   11 ar   
    22   10   91 1    
    23   11   12 ar   
    24   11   58 1    
    25   12   13 ar   
    26   12   92 1    
    27   13   14 ar   
    28   13   15 1    
    29   14   93 1    
    30   15   16 1    
    31   15   94 1    
    32   15   95 1    
    33   16   17 1    
    34   17   18 1    
    35   17   96 1    
    36   17   97 1    
    37   18   19 1    
    38   18   22 1    
    39   18   98 1    
    40   19   20 am   BACKBONE|DICT|INTERRES
    41   19   21 2    
    42   20   99 1    
    43   20  100 1    
    44   22   23 am   BACKBONE|DICT|INTERRES
    45   22  101 1    
    46   23   24 2    
    47   23   25 1    
    48   25   26 1    
    49   25   27 1    
    50   25  102 1    
    51   26  103 1    
    52   26  104 1    
    53   26  105 1    
    54   27   28 am   BACKBONE|DICT|INTERRES
    55   27  106 1    
    56   28   29 2    
    57   28   30 1    
    58   30   31 1    
    59   30   32 1    
    60   30  107 1    
    61   31  108 1    
    62   31  109 1    
    63   31  110 1    
    64   32   33 am   BACKBONE|DICT|INTERRES
    65   32  111 1    
    66   33   34 2    
    67   33   35 1    
    68   35   36 1    
    69   35   37 1    
    70   35  112 1    
    71   36  113 1    
    72   36  114 1    
    73   36  115 1    
    74   37   38 am   BACKBONE|DICT|INTERRES
    75   37  116 1    
    76   38   39 2    
    77   38   40 1    
    78   40   41 1    
    79   40   42 1    
    80   40  117 1    
    81   41  118 1    
    82   41  119 1    
    83   41  120 1    
    84   42   43 am   BACKBONE|DICT|INTERRES
    85   42  121 1    
    86   43   44 2    
    87   43   45 1    
    88   45   46 1    
    89   45   47 1    
    90   45  122 1    
    91   46  123 1    
    92   46  124 1    
    93   46  125 1    
    94   47   48 am   BACKBONE|DICT|INTERRES
    95   47  126 1    
    96   48   49 2    
    97   48   50 1    
    98   50   51 1    
    99   50   52 1    
   100   50  127 1    
   101   51  128 1    
   102   51  129 1    
   103   51  130 1    
   104   52   53 am   BACKBONE|DICT|INTERRES
   105   52  131 1    
   106   53   54 2    
   107   53   55 1    
   108   55   56 1    
   109   55   59 1    
   110   55  132 1    
   111   56   57 1    
   112   56  133 1    
   113   56  134 1    
   114   57   58 1    
   115   58  135 1    
   116   58  136 1    
   117   59   60 am   BACKBONE|DICT|INTERRES
   118   59  137 1    
   119   60   61 2    
   120   60   62 1    
   121   62   63 1    
   122   62   64 1    
   123   62  138 1    
   124   63  139 1    
   125   63  140 1    
   126   63  141 1    
   127   64   65 am   BACKBONE|DICT|INTERRES
   128   64  142 1    
   129   65   66 2    
   130   65   67 1    
   131   67   68 1    
   132   67   69 1    
   133   67  143 1    
   134   68  144 1    
   135   68  145 1    
   136   68  146 1    
   137   69   70 am   BACKBONE|DICT|INTERRES
   138   69  147 1    
   139   70   71 2    
   140   70   72 1    
   141   72   73 1    
   142   72   74 1    
   143   72  148 1    
   144   73  149 1    
   145   73  150 1    
   146   73  151 1    
   147   74   75 am   BACKBONE|DICT|INTERRES
   148   74  152 1    
   149   75   76 2    
   150   75   77 1    
   151   77   78 1    
   152   77   79 1    
   153   77  153 1    
   154   78  154 1    
   155   78  155 1    
   156   78  156 1    
   157   79   80 am   BACKBONE|DICT|INTERRES
   158   79  157 1    
   159   80   81 2    
@<TRIPOS>SUBSTRUCTURE
     1 UNK         1 GROUP             0       ****    0 ROOT    
