@<TRIPOS>MOLECULE
3R207
157   159    1
SMALL
USER_CHARGES


@<TRIPOS>ATOM
      1 CA        -50.4563  -27.8715    0.7052 C.3       0 UNK        -0.1975 
      2 C         -51.0214  -27.9077    2.1186 C.2       0 UNK         0.4852 
      3 O         -51.0276  -28.9740    2.7315 O.2       0 UNK        -0.5216 
      4 N         -51.4917  -26.7500    2.6066 N.am      1 UNK        -0.4461 
      5 CA        -52.0492  -26.4578    3.9368 C.3       1 UNK         0.0864 
      6 C6        -53.3071  -27.3086    4.3185 C.3       14 UNK        -0.0898 
      7 S7        -53.0246  -28.8380    5.2905 S.3       14 UNK        -0.2598 
      8 C8        -53.6392  -28.3775    6.9437 C.3       14 UNK         0.0286 
      9 C9        -53.1481  -29.3535    8.0057 C.ar      14 UNK        -0.0844 
     10 C10       -52.2629  -28.9344    9.0060 C.ar      14 UNK        -0.0881 
     11 C11       -51.7818  -29.8382    9.9611 C.ar      14 UNK        -0.0643 
     12 C12       -52.2102  -31.1686    9.9142 C.ar      14 UNK        -0.0930 
     13 C13       -53.1088  -31.5958    8.9326 C.ar      14 UNK        -0.0827 
     14 C14       -53.5789  -30.6828    7.9859 C.ar      14 UNK        -0.1249 
     15 C15       -53.5438  -33.0523    8.8764 C.3       14 UNK         0.0141 
     16 S16       -54.7064  -33.4738   10.2105 S.3       14 UNK        -0.2313 
     17 C17       -56.2267  -32.5958    9.6984 C.3       14 UNK        -0.0915 
     18 CA        -56.7163  -31.5398   10.7253 C.3       13 UNK         0.0968 
     19 C         -57.2064  -32.2019   12.0497 C.2       13 UNK         0.5732 
     20 N         -56.5361  -32.0095   13.1799 N.am      13 UNK        -0.7310 
     21 O         -58.2213  -32.8951   12.0489 O.2       13 UNK        -0.5035 
     22 N         -55.7518  -30.4357   10.8720 N.am      13 UNK        -0.4233 
     23 C         -56.0175  -29.2721   11.4776 C.2       13 UNK         0.4989 
     24 O         -57.1096  -28.9805   11.9725 O.2       13 UNK        -0.4996 
     25 CA        -54.8823  -28.2475   11.5362 C.3       12 UNK         0.0216 
     26 CB        -54.9831  -27.2397   10.3766 C.3       12 UNK        -0.1964 
     27 N         -54.9741  -27.5479   12.8120 N.am      12 UNK        -0.4276 
     28 C         -53.9641  -26.9440   13.4419 C.2       12 UNK         0.5020 
     29 O         -52.8129  -26.8841   13.0062 O.2       12 UNK        -0.5489 
     30 CA        -54.2932  -26.3278   14.8038 C.3       11 UNK         0.0294 
     31 CB        -54.2137  -27.3858   15.9197 C.3       11 UNK        -0.2019 
     32 N         -53.3487  -25.2510   15.0820 N.am      11 UNK        -0.4493 
     33 C         -53.6010  -24.1887   15.8556 C.2       11 UNK         0.4932 
     34 O         -54.6837  -23.9877   16.4099 O.2       11 UNK        -0.5029 
     35 CA        -52.4376  -23.1991   16.0477 C.3       10 UNK         0.0280 
     36 CB        -52.7214  -22.1097   17.1035 C.3       10 UNK        -0.1976 
     37 N         -51.1783  -23.8929   16.3273 N.am      10 UNK        -0.4242 
     38 C         -50.8779  -24.6785   17.3726 C.2       10 UNK         0.5072 
     39 O         -51.6270  -24.8846   18.3285 O.2       10 UNK        -0.5224 
     40 CA        -49.5006  -25.3669   17.3416 C.3       9 UNK         0.0343 
     41 CB        -49.6324  -26.7864   16.7656 C.3       9 UNK        -0.2003 
     42 N         -48.4982  -24.6223   16.5726 N.am      9 UNK        -0.4272 
     43 C         -47.9797  -23.4421   16.9440 C.2       9 UNK         0.4988 
     44 O         -48.2212  -22.8957   18.0212 O.2       9 UNK        -0.5108 
     45 CA        -47.0532  -22.7389   15.9378 C.3       8 UNK         0.0248 
     46 CB        -45.6280  -23.3082   16.0242 C.3       8 UNK        -0.2001 
     47 N         -47.5420  -22.8174   14.5573 N.am      8 UNK        -0.4140 
     48 C         -48.6685  -22.2390   14.1126 C.2       8 UNK         0.5028 
     49 O         -49.3942  -21.5283   14.8079 O.2       8 UNK        -0.5428 
     50 CA        -49.0820  -22.5262   12.6582 C.3       7 UNK         0.0264 
     51 CB        -48.3049  -21.6352   11.6768 C.3       7 UNK        -0.1988 
     52 N         -48.9162  -23.9317   12.2841 N.am      7 UNK        -0.4454 
     53 C         -49.5800  -24.9562   12.8408 C.2       7 UNK         0.5027 
     54 O         -50.4440  -24.8203   13.7074 O.2       7 UNK        -0.5083 
     55 CA        -49.1676  -26.3703   12.3868 C.3       6 UNK         0.0844 
     56 C56       -49.8561  -26.7404   11.0490 C.3       14 UNK        -0.0967 
     57 S57       -49.4139  -28.4104   10.4592 S.3       14 UNK        -0.2604 
     58 C58       -50.8255  -29.3953   11.0665 C.3       14 UNK         0.0134 
     59 N         -47.7072  -26.4912   12.3216 N.am      6 UNK        -0.4116 
     60 C         -46.8782  -26.4278   13.3724 C.2       5 UNK         0.5034 
     61 O         -47.2516  -26.2895   14.5365 O.2       5 UNK        -0.5045 
     62 CA        -45.3721  -26.4860   13.0651 C.3       5 UNK         0.0224 
     63 CB        -44.9166  -27.9391   12.8568 C.3       5 UNK        -0.1978 
     64 N         -45.0007  -25.6809   11.8973 N.am      5 UNK        -0.4737 
     65 C         -45.0924  -24.3442   11.8411 C.2       4 UNK         0.5027 
     66 O         -45.4488  -23.6456   12.7875 O.2       4 UNK        -0.5211 
     67 CA        -44.7922  -23.6785   10.4854 C.3       4 UNK         0.0297 
     68 CB        -43.2882  -23.3961   10.3463 C.3       4 UNK        -0.1993 
     69 N         -45.2593  -24.4554    9.3303 N.am      4 UNK        -0.4486 
     70 C         -46.5269  -24.8435    9.1352 C.2       3 UNK         0.4961 
     71 O         -47.4464  -24.5760    9.9133 O.2       3 UNK        -0.5105 
     72 CA        -46.7886  -25.7281    7.9039 C.3       3 UNK         0.0299 
     73 CB        -46.0697  -27.0823    8.0450 C.3       3 UNK        -0.1972 
     74 N         -48.2179  -25.9865    7.7433 N.am      3 UNK        -0.4305 
     75 C         -49.1064  -25.1366    7.2156 C.2       2 UNK         0.5006 
     76 O         -48.8178  -24.0738    6.6606 O.2       2 UNK        -0.5106 
     77 CA        -50.5813  -25.5427    7.3751 C.3       2 UNK         0.0296 
     78 CB        -51.3208  -24.5633    8.3051 C.3       2 UNK        -0.2002 
     79 N         -51.3184  -25.6480    6.1151 N.am      2 UNK        -0.4032 
     80 C         -50.9741  -26.3813    5.0456 C.2       1 UNK         0.5000 
     81 O         -49.9055  -26.9889    4.9368 O.2       1 UNK        -0.5238 
     82 H82       -49.4089  -28.1721    0.7131 H         1 UNK         0.0889 
     83 H83       -50.5197  -26.8775    0.2626 H         1 UNK         0.0889 
     84 H84       -51.0040  -28.5622    0.0646 H         1 UNK         0.0889 
     85 H85       -51.4146  -25.9349    2.0142 H         1 UNK         0.3028 
     86 H86       -52.4063  -25.4329    3.8198 H         1 UNK         0.0864 
     87 H87       -54.0003  -26.6817    4.8815 H         1 UNK         0.0720 
     88 H88       -53.8557  -27.5836    3.4164 H         1 UNK         0.0720 
     89 H89       -54.7299  -28.3669    6.9318 H         1 UNK         0.0814 
     90 H90       -53.3210  -27.3630    7.1855 H         1 UNK         0.0814 
     91 H91       -51.9455  -27.9035    9.0458 H         1 UNK         0.1469 
     92 H92       -51.8476  -31.8786   10.6453 H         1 UNK         0.1381 
     93 H93       -54.2636  -31.0090    7.2147 H         1 UNK         0.1206 
     94 H94       -53.9949  -33.2905    7.9118 H         1 UNK         0.0813 
     95 H95       -52.6638  -33.6913    8.9640 H         1 UNK         0.0813 
     96 H96       -57.0038  -33.3419    9.5228 H         1 UNK         0.0638 
     97 H97       -56.0654  -32.1174    8.7317 H         1 UNK         0.0638 
     98 H98       -57.6125  -31.0897   10.2938 H         1 UNK         0.0568 
     99 H99       -56.8670  -32.4399   14.0286 H         1 UNK         0.3450 
    100 H100      -55.6969  -31.4539   13.1877 H         1 UNK         0.3450 
    101 H101      -54.8325  -30.6036   10.4865 H         1 UNK         0.2987 
    102 H102      -53.9302  -28.7779   11.4841 H         1 UNK         0.0766 
    103 H103      -54.1110  -26.5862   10.3434 H         1 UNK         0.0798 
    104 H104      -55.8703  -26.6119   10.4663 H         1 UNK         0.0798 
    105 H105      -55.0466  -27.7504    9.4166 H         1 UNK         0.0798 
    106 H106      -55.8893  -27.5963   13.2443 H         1 UNK         0.3198 
    107 H107      -55.3052  -25.9189   14.7582 H         1 UNK         0.0843 
    108 H108      -53.2123  -27.8118   15.9961 H         1 UNK         0.0831 
    109 H109      -54.9066  -28.2075   15.7349 H         1 UNK         0.0831 
    110 H110      -54.4691  -26.9596   16.8901 H         1 UNK         0.0831 
    111 H111      -52.4588  -25.3272   14.5953 H         1 UNK         0.3133 
    112 H112      -52.2983  -22.6990   15.0881 H         1 UNK         0.0566 
    113 H113      -51.8783  -21.4252   17.1993 H         1 UNK         0.0814 
    114 H114      -53.5921  -21.5151   16.8251 H         1 UNK         0.0814 
    115 H115      -52.9211  -22.5369   18.0866 H         1 UNK         0.0814 
    116 H116      -50.5114  -23.8761   15.5637 H         1 UNK         0.3091 
    117 H117      -49.1467  -25.4462   18.3716 H         1 UNK         0.0702 
    118 H118      -48.6814  -27.3183   16.7998 H         1 UNK         0.0785 
    119 H119      -49.9694  -26.7703   15.7282 H         1 UNK         0.0785 
    120 H120      -50.3543  -27.3742   17.3341 H         1 UNK         0.0785 
    121 H121      -48.1827  -25.0471   15.7045 H         1 UNK         0.2998 
    122 H122      -47.0108  -21.6827   16.2118 H         1 UNK         0.0697 
    123 H123      -45.5921  -24.3556   15.7233 H         1 UNK         0.0825 
    124 H124      -45.2432  -23.2470   17.0430 H         1 UNK         0.0825 
    125 H125      -44.9409  -22.7536   15.3849 H         1 UNK         0.0825 
    126 H126      -46.9534  -23.3178   13.8949 H         1 UNK         0.3029 
    127 H127      -50.1436  -22.2872   12.5652 H         1 UNK         0.0897 
    128 H128      -48.6264  -21.8029   10.6485 H         1 UNK         0.0792 
    129 H129      -48.4639  -20.5794   11.9000 H         1 UNK         0.0792 
    130 H130      -47.2320  -21.8205   11.7255 H         1 UNK         0.0792 
    131 H131      -48.2506  -24.1340   11.5400 H         1 UNK         0.3086 
    132 H132      -49.5204  -27.0696   13.1480 H         1 UNK         0.0583 
    133 H133      -50.9412  -26.6572   11.1359 H         1 UNK         0.1020 
    134 H134      -49.5673  -26.0338   10.2738 H         1 UNK         0.1020 
    135 H135      -50.4155  -30.2673   11.5781 H         1 UNK         0.0694 
    136 H136      -51.3822  -28.8426   11.8234 H         1 UNK         0.0694 
    137 H137      -47.3102  -26.5628   11.3973 H         1 UNK         0.2989 
    138 H138      -44.8451  -26.0830   13.9330 H         1 UNK         0.1055 
    139 H139      -45.1692  -28.5536   13.7223 H         1 UNK         0.0806 
    140 H140      -43.8364  -28.0008   12.7231 H         1 UNK         0.0806 
    141 H141      -45.3900  -28.3939   11.9856 H         1 UNK         0.0806 
    142 H142      -44.6910  -26.1751   11.0733 H         1 UNK         0.3061 
    143 H143      -45.3198  -22.7228   10.4681 H         1 UNK         0.0734 
    144 H144      -43.0712  -22.8331    9.4384 H         1 UNK         0.0832 
    145 H145      -42.9247  -22.8027   11.1866 H         1 UNK         0.0832 
    146 H146      -42.7030  -24.3162   10.3208 H         1 UNK         0.0832 
    147 H147      -44.5619  -24.7152    8.6473 H         1 UNK         0.3156 
    148 H148      -46.4137  -25.2123    7.0175 H         1 UNK         0.0589 
    149 H149      -46.3824  -27.6164    8.9436 H         1 UNK         0.0808 
    150 H150      -46.2724  -27.7266    7.1890 H         1 UNK         0.0808 
    151 H151      -44.9875  -26.9587    8.0978 H         1 UNK         0.0808 
    152 H152      -48.5623  -26.8287    8.1810 H         1 UNK         0.3098 
    153 H153      -50.6096  -26.5314    7.8346 H         1 UNK         0.0720 
    154 H154      -51.4605  -23.5911    7.8308 H         1 UNK         0.0791 
    155 H155      -50.7657  -24.3863    9.2267 H         1 UNK         0.0791 
    156 H156      -52.3025  -24.9449    8.5868 H         1 UNK         0.0791 
    157 H157      -52.1969  -25.1522    6.0848 H         1 UNK         0.3028 
@<TRIPOS>BOND
     1    1    2 1    
     2    1   82 1    
     3    1   83 1    
     4    1   84 1    
     5    2    3 2    
     6    2    4 am   BACKBONE|DICT|INTERRES
     7    4    5 1    
     8    4   85 1    
     9    5    6 1    
    10    5   80 1    
    11    5   86 1    
    12    6    7 1    
    13    6   87 1    
    14    6   88 1    
    15    7    8 1    
    16    8    9 1    
    17    8   89 1    
    18    8   90 1    
    19    9   10 ar   
    20    9   14 ar   
    21   10   11 ar   
    22   10   91 1    
    23   11   12 ar   
    24   11   58 1    
    25   12   13 ar   
    26   12   92 1    
    27   13   14 ar   
    28   13   15 1    
    29   14   93 1    
    30   15   16 1    
    31   15   94 1    
    32   15   95 1    
    33   16   17 1    
    34   17   18 1    
    35   17   96 1    
    36   17   97 1    
    37   18   19 1    
    38   18   22 1    
    39   18   98 1    
    40   19   20 am   BACKBONE|DICT|INTERRES
    41   19   21 2    
    42   20   99 1    
    43   20  100 1    
    44   22   23 am   BACKBONE|DICT|INTERRES
    45   22  101 1    
    46   23   24 2    
    47   23   25 1    
    48   25   26 1    
    49   25   27 1    
    50   25  102 1    
    51   26  103 1    
    52   26  104 1    
    53   26  105 1    
    54   27   28 am   BACKBONE|DICT|INTERRES
    55   27  106 1    
    56   28   29 2    
    57   28   30 1    
    58   30   31 1    
    59   30   32 1    
    60   30  107 1    
    61   31  108 1    
    62   31  109 1    
    63   31  110 1    
    64   32   33 am   BACKBONE|DICT|INTERRES
    65   32  111 1    
    66   33   34 2    
    67   33   35 1    
    68   35   36 1    
    69   35   37 1    
    70   35  112 1    
    71   36  113 1    
    72   36  114 1    
    73   36  115 1    
    74   37   38 am   BACKBONE|DICT|INTERRES
    75   37  116 1    
    76   38   39 2    
    77   38   40 1    
    78   40   41 1    
    79   40   42 1    
    80   40  117 1    
    81   41  118 1    
    82   41  119 1    
    83   41  120 1    
    84   42   43 am   BACKBONE|DICT|INTERRES
    85   42  121 1    
    86   43   44 2    
    87   43   45 1    
    88   45   46 1    
    89   45   47 1    
    90   45  122 1    
    91   46  123 1    
    92   46  124 1    
    93   46  125 1    
    94   47   48 am   BACKBONE|DICT|INTERRES
    95   47  126 1    
    96   48   49 2    
    97   48   50 1    
    98   50   51 1    
    99   50   52 1    
   100   50  127 1    
   101   51  128 1    
   102   51  129 1    
   103   51  130 1    
   104   52   53 am   BACKBONE|DICT|INTERRES
   105   52  131 1    
   106   53   54 2    
   107   53   55 1    
   108   55   56 1    
   109   55   59 1    
   110   55  132 1    
   111   56   57 1    
   112   56  133 1    
   113   56  134 1    
   114   57   58 1    
   115   58  135 1    
   116   58  136 1    
   117   59   60 am   BACKBONE|DICT|INTERRES
   118   59  137 1    
   119   60   61 2    
   120   60   62 1    
   121   62   63 1    
   122   62   64 1    
   123   62  138 1    
   124   63  139 1    
   125   63  140 1    
   126   63  141 1    
   127   64   65 am   BACKBONE|DICT|INTERRES
   128   64  142 1    
   129   65   66 2    
   130   65   67 1    
   131   67   68 1    
   132   67   69 1    
   133   67  143 1    
   134   68  144 1    
   135   68  145 1    
   136   68  146 1    
   137   69   70 am   BACKBONE|DICT|INTERRES
   138   69  147 1    
   139   70   71 2    
   140   70   72 1    
   141   72   73 1    
   142   72   74 1    
   143   72  148 1    
   144   73  149 1    
   145   73  150 1    
   146   73  151 1    
   147   74   75 am   BACKBONE|DICT|INTERRES
   148   74  152 1    
   149   75   76 2    
   150   75   77 1    
   151   77   78 1    
   152   77   79 1    
   153   77  153 1    
   154   78  154 1    
   155   78  155 1    
   156   78  156 1    
   157   79   80 am   BACKBONE|DICT|INTERRES
   158   79  157 1    
   159   80   81 2    
@<TRIPOS>SUBSTRUCTURE
     1 UNK         1 GROUP             0       ****    0 ROOT    
