@<TRIPOS>MOLECULE
3R207
157   159    1
SMALL
USER_CHARGES


@<TRIPOS>ATOM
      1 CA        -47.0193  -30.7188    7.2189 C.3       0 UNK        -0.1975 
      2 C         -48.4450  -30.4125    7.6697 C.2       0 UNK         0.4852 
      3 O         -48.7409  -30.5498    8.8530 O.2       0 UNK        -0.5216 
      4 N         -49.3586  -29.9997    6.7797 N.am      1 UNK        -0.4461 
      5 CA        -49.1640  -29.8220    5.3357 C.3       1 UNK         0.0864 
      6 C6        -50.4927  -29.9982    4.5592 C.3       14 UNK        -0.0898 
      7 S7        -51.7750  -28.7504    4.9358 S.3       14 UNK        -0.2598 
      8 C8        -52.8769  -29.6303    6.0896 C.3       14 UNK         0.0286 
      9 C9        -52.7841  -29.0585    7.4967 C.ar      14 UNK        -0.0844 
     10 C10       -53.2994  -27.7871    7.7625 C.ar      14 UNK        -0.0881 
     11 C11       -53.2716  -27.2535    9.0539 C.ar      14 UNK        -0.0643 
     12 C12       -52.7330  -28.0229   10.0937 C.ar      14 UNK        -0.0930 
     13 C13       -52.2003  -29.2918    9.8398 C.ar      14 UNK        -0.0827 
     14 C14       -52.2247  -29.8026    8.5384 C.ar      14 UNK        -0.1249 
     15 C15       -51.6151  -30.1244   10.9729 C.3       14 UNK         0.0141 
     16 S16       -52.6992  -31.5205   11.4208 S.3       14 UNK        -0.2313 
     17 C17       -54.1258  -30.6404   12.1331 C.3       14 UNK        -0.0915 
     18 CA        -55.2490  -30.3624   11.0832 C.3       13 UNK         0.0968 
     19 C         -56.3376  -31.4730   10.9893 C.2       13 UNK         0.5732 
     20 N         -55.9630  -32.7365   11.1377 N.am      13 UNK        -0.7310 
     21 O         -57.5110  -31.2094   10.7299 O.2       13 UNK        -0.5035 
     22 N         -55.7846  -29.0021   11.2242 N.am      13 UNK        -0.4233 
     23 C         -56.4295  -28.5294   12.2956 C.2       13 UNK         0.4989 
     24 O         -56.7615  -29.2096   13.2704 O.2       13 UNK        -0.4996 
     25 CA        -56.7421  -27.0238   12.2818 C.3       12 UNK         0.0216 
     26 CB        -58.2037  -26.7729   11.8772 C.3       12 UNK        -0.1964 
     27 N         -56.4836  -26.4171   13.5897 N.am      12 UNK        -0.4276 
     28 C         -55.2737  -26.3343   14.1586 C.2       12 UNK         0.5020 
     29 O         -54.2237  -26.6919   13.6158 O.2       12 UNK        -0.5489 
     30 CA        -55.2307  -25.7809   15.5861 C.3       11 UNK         0.0294 
     31 CB        -55.6179  -26.8704   16.6054 C.3       11 UNK        -0.2019 
     32 N         -53.8738  -25.3124   15.8377 N.am      11 UNK        -0.4493 
     33 C         -53.4761  -24.5113   16.8308 C.2       11 UNK         0.4932 
     34 O         -54.2402  -24.0490   17.6801 O.2       11 UNK        -0.5029 
     35 CA        -51.9777  -24.1525   16.8672 C.3       10 UNK         0.0280 
     36 CB        -51.4850  -23.7477   18.2726 C.3       10 UNK        -0.1976 
     37 N         -51.1184  -25.1889   16.2842 N.am      10 UNK        -0.4242 
     38 C         -50.9151  -26.4404   16.7232 C.2       10 UNK         0.5072 
     39 O         -51.4470  -26.9233   17.7237 O.2       10 UNK        -0.5224 
     40 CA        -49.9365  -27.3011   15.9030 C.3       9 UNK         0.0343 
     41 CB        -50.6758  -28.0194   14.7606 C.3       9 UNK        -0.2003 
     42 N         -48.8177  -26.5255   15.3567 N.am      9 UNK        -0.4272 
     43 C         -47.8592  -25.9452   16.0956 C.2       9 UNK         0.4988 
     44 O         -47.7577  -26.0809   17.3156 O.2       9 UNK        -0.5108 
     45 CA        -46.8518  -25.0456   15.3574 C.3       8 UNK         0.0248 
     46 CB        -45.7342  -25.8849   14.7178 C.3       8 UNK        -0.2001 
     47 N         -47.4834  -24.1954   14.3439 N.am      8 UNK        -0.4140 
     48 C         -48.3436  -23.2020   14.6154 C.2       8 UNK         0.5028 
     49 O         -48.6388  -22.8431   15.7554 O.2       8 UNK        -0.5428 
     50 CA        -49.0159  -22.5056   13.4188 C.3       7 UNK         0.0264 
     51 CB        -48.1149  -21.3964   12.8537 C.3       7 UNK        -0.1988 
     52 N         -49.3952  -23.4318   12.3480 N.am      7 UNK        -0.4454 
     53 C         -50.2867  -24.4255   12.4820 C.2       7 UNK         0.5027 
     54 O         -50.9097  -24.6387   13.5221 O.2       7 UNK        -0.5083 
     55 CA        -50.4684  -25.3754   11.2778 C.3       6 UNK         0.0844 
     56 C56       -51.4014  -24.7740   10.1971 C.3       14 UNK        -0.0967 
     57 S57       -53.1593  -24.9138   10.6696 S.3       14 UNK        -0.2604 
     58 C58       -53.8650  -25.8615    9.2782 C.3       14 UNK         0.0134 
     59 N         -49.1819  -25.7991   10.7210 N.am      6 UNK        -0.4116 
     60 C         -48.2474  -26.4863   11.3936 C.2       5 UNK         0.5034 
     61 O         -48.3996  -26.9158   12.5362 O.2       5 UNK        -0.5045 
     62 CA        -46.8861  -26.6631   10.7036 C.3       5 UNK         0.0224 
     63 CB        -46.8957  -27.8642    9.7480 C.3       5 UNK        -0.1978 
     64 N         -46.4784  -25.4534    9.9859 N.am      5 UNK        -0.4737 
     65 C         -46.1170  -24.3124   10.5895 C.2       4 UNK         0.5027 
     66 O         -46.0342  -24.1839   11.8099 O.2       4 UNK        -0.5211 
     67 CA        -45.8462  -23.1019    9.6809 C.3       4 UNK         0.0297 
     68 CB        -44.4002  -23.1299    9.1618 C.3       4 UNK        -0.1993 
     69 N         -46.7748  -23.0270    8.5498 N.am      4 UNK        -0.4486 
     70 C         -48.0942  -22.8145    8.6631 C.2       3 UNK         0.4961 
     71 O         -48.6658  -22.6072    9.7321 O.2       3 UNK        -0.5105 
     72 CA        -48.9240  -22.9072    7.3714 C.3       3 UNK         0.0299 
     73 CB        -48.9348  -21.5579    6.6363 C.3       3 UNK        -0.1972 
     74 N         -48.4548  -23.9632    6.4674 N.am      3 UNK        -0.4305 
     75 C         -48.4656  -25.2689    6.7660 C.2       2 UNK         0.5006 
     76 O         -48.8892  -25.7281    7.8300 O.2       2 UNK        -0.5106 
     77 CA        -47.8393  -26.2113    5.7364 C.3       2 UNK         0.0296 
     78 CB        -46.3129  -26.2917    5.9333 C.3       2 UNK        -0.2002 
     79 N         -48.4359  -27.5323    5.8973 N.am      2 UNK        -0.4032 
     80 C         -48.4507  -28.5002    4.9725 C.2       1 UNK         0.5000 
     81 O         -47.9172  -28.3933    3.8666 O.2       1 UNK        -0.5238 
     82 H82       -47.0013  -31.5678    6.5364 H         1 UNK         0.0889 
     83 H83       -46.3974  -30.9723    8.0773 H         1 UNK         0.0889 
     84 H84       -46.5643  -29.8588    6.7295 H         1 UNK         0.0889 
     85 H85       -50.2868  -29.7771    7.1137 H         1 UNK         0.3028 
     86 H86       -48.5056  -30.6193    4.9864 H         1 UNK         0.0864 
     87 H87       -50.3001  -29.9558    3.4853 H         1 UNK         0.0720 
     88 H88       -50.8895  -30.9993    4.7320 H         1 UNK         0.0720 
     89 H89       -52.6696  -30.7010    6.0915 H         1 UNK         0.0814 
     90 H90       -53.9033  -29.5278    5.7344 H         1 UNK         0.0814 
     91 H91       -53.7311  -27.2127    6.9538 H         1 UNK         0.1469 
     92 H92       -52.7384  -27.6423   11.1058 H         1 UNK         0.1381 
     93 H93       -51.8311  -30.7924    8.3501 H         1 UNK         0.1206 
     94 H94       -50.6459  -30.5181   10.6670 H         1 UNK         0.0813 
     95 H95       -51.4258  -29.5082   11.8535 H         1 UNK         0.0813 
     96 H96       -54.5077  -31.2051   12.9853 H         1 UNK         0.0638 
     97 H97       -53.7523  -29.7082   12.5609 H         1 UNK         0.0638 
     98 H98       -54.8012  -30.3522   10.0896 H         1 UNK         0.0568 
     99 H99       -56.6505  -33.4692   11.0601 H         1 UNK         0.3450 
    100 H100      -54.9975  -32.9634   11.3220 H         1 UNK         0.3450 
    101 H101      -55.5853  -28.3799   10.4556 H         1 UNK         0.2987 
    102 H102      -56.0904  -26.5318   11.5568 H         1 UNK         0.0766 
    103 H103      -58.4252  -25.7067   11.8250 H         1 UNK         0.0798 
    104 H104      -58.9014  -27.2286   12.5812 H         1 UNK         0.0798 
    105 H105      -58.4134  -27.1948   10.8932 H         1 UNK         0.0798 
    106 H106      -57.2927  -26.1366   14.1246 H         1 UNK         0.3198 
    107 H107      -55.9187  -24.9361   15.6598 H         1 UNK         0.0843 
    108 H108      -54.9281  -27.7147   16.5680 H         1 UNK         0.0831 
    109 H109      -56.6182  -27.2578   16.4082 H         1 UNK         0.0831 
    110 H110      -55.6181  -26.4847   17.6248 H         1 UNK         0.0831 
    111 H111      -53.2044  -25.6217   15.1404 H         1 UNK         0.3133 
    112 H112      -51.8637  -23.2821   16.2195 H         1 UNK         0.0566 
    113 H113      -50.4254  -23.4914   18.2595 H         1 UNK         0.0814 
    114 H114      -52.0243  -22.8739   18.6401 H         1 UNK         0.0814 
    115 H115      -51.6292  -24.5478   18.9991 H         1 UNK         0.0814 
    116 H116      -50.7080  -24.9423   15.3863 H         1 UNK         0.3091 
    117 H117      -49.5223  -28.0596   16.5703 H         1 UNK         0.0702 
    118 H118      -51.4945  -28.6283   15.1466 H         1 UNK         0.0785 
    119 H119      -51.1054  -27.3146   14.0478 H         1 UNK         0.0785 
    120 H120      -50.0078  -28.6830   14.2111 H         1 UNK         0.0785 
    121 H121      -48.7777  -26.4331   14.3447 H         1 UNK         0.2998 
    122 H122      -46.3935  -24.3871   16.0983 H         1 UNK         0.0697 
    123 H123      -46.1219  -26.5686   13.9629 H         1 UNK         0.0825 
    124 H124      -45.2210  -26.4866   15.4689 H         1 UNK         0.0825 
    125 H125      -44.9850  -25.2516   14.2421 H         1 UNK         0.0825 
    126 H126      -47.2248  -24.3652   13.3760 H         1 UNK         0.3029 
    127 H127      -49.9335  -22.0410   13.7861 H         1 UNK         0.0897 
    128 H128      -47.1806  -21.7959   12.4595 H         1 UNK         0.0792 
    129 H129      -47.8589  -20.6707   13.6267 H         1 UNK         0.0792 
    130 H130      -48.6115  -20.8529   12.0496 H         1 UNK         0.0792 
    131 H131      -48.9713  -23.2742   11.4355 H         1 UNK         0.3086 
    132 H132      -50.9324  -26.2855   11.6618 H         1 UNK         0.0583 
    133 H133      -51.1643  -23.7277    9.9958 H         1 UNK         0.1020 
    134 H134      -51.2547  -25.2935    9.2486 H         1 UNK         0.1020 
    135 H135      -54.9380  -25.9653    9.4404 H         1 UNK         0.0694 
    136 H136      -53.7493  -25.2600    8.3750 H         1 UNK         0.0694 
    137 H137      -48.9923  -25.5424    9.7569 H         1 UNK         0.2989 
    138 H138      -46.1457  -26.8596   11.4822 H         1 UNK         0.1055 
    139 H139      -47.1480  -28.7799   10.2846 H         1 UNK         0.0806 
    140 H140      -45.9193  -28.0180    9.2888 H         1 UNK         0.0806 
    141 H141      -47.6288  -27.7454    8.9510 H         1 UNK         0.0806 
    142 H142      -46.5645  -25.4635    8.9810 H         1 UNK         0.3061 
    143 H143      -45.9759  -22.1997   10.2824 H         1 UNK         0.0734 
    144 H144      -44.1689  -22.2365    8.5815 H         1 UNK         0.0832 
    145 H145      -43.6911  -23.1675    9.9902 H         1 UNK         0.0832 
    146 H146      -44.2103  -23.9998    8.5317 H         1 UNK         0.0832 
    147 H147      -46.3903  -23.1758    7.6286 H         1 UNK         0.3156 
    148 H148      -49.9507  -23.1465    7.6567 H         1 UNK         0.0589 
    149 H149      -47.9385  -21.2703    6.2980 H         1 UNK         0.0808 
    150 H150      -49.5908  -21.5852    5.7660 H         1 UNK         0.0808 
    151 H151      -49.2991  -20.7627    7.2885 H         1 UNK         0.0808 
    152 H152      -48.0878  -23.6683    5.5733 H         1 UNK         0.3098 
    153 H153      -48.0661  -25.8357    4.7363 H         1 UNK         0.0720 
    154 H154      -45.8489  -26.9298    5.1810 H         1 UNK         0.0791 
    155 H155      -46.0528  -26.6931    6.9133 H         1 UNK         0.0791 
    156 H156      -45.8496  -25.3082    5.8464 H         1 UNK         0.0791 
    157 H157      -48.9359  -27.6631    6.7684 H         1 UNK         0.3028 
@<TRIPOS>BOND
     1    1    2 1    
     2    1   82 1    
     3    1   83 1    
     4    1   84 1    
     5    2    3 2    
     6    2    4 am   BACKBONE|DICT|INTERRES
     7    4    5 1    
     8    4   85 1    
     9    5    6 1    
    10    5   80 1    
    11    5   86 1    
    12    6    7 1    
    13    6   87 1    
    14    6   88 1    
    15    7    8 1    
    16    8    9 1    
    17    8   89 1    
    18    8   90 1    
    19    9   10 ar   
    20    9   14 ar   
    21   10   11 ar   
    22   10   91 1    
    23   11   12 ar   
    24   11   58 1    
    25   12   13 ar   
    26   12   92 1    
    27   13   14 ar   
    28   13   15 1    
    29   14   93 1    
    30   15   16 1    
    31   15   94 1    
    32   15   95 1    
    33   16   17 1    
    34   17   18 1    
    35   17   96 1    
    36   17   97 1    
    37   18   19 1    
    38   18   22 1    
    39   18   98 1    
    40   19   20 am   BACKBONE|DICT|INTERRES
    41   19   21 2    
    42   20   99 1    
    43   20  100 1    
    44   22   23 am   BACKBONE|DICT|INTERRES
    45   22  101 1    
    46   23   24 2    
    47   23   25 1    
    48   25   26 1    
    49   25   27 1    
    50   25  102 1    
    51   26  103 1    
    52   26  104 1    
    53   26  105 1    
    54   27   28 am   BACKBONE|DICT|INTERRES
    55   27  106 1    
    56   28   29 2    
    57   28   30 1    
    58   30   31 1    
    59   30   32 1    
    60   30  107 1    
    61   31  108 1    
    62   31  109 1    
    63   31  110 1    
    64   32   33 am   BACKBONE|DICT|INTERRES
    65   32  111 1    
    66   33   34 2    
    67   33   35 1    
    68   35   36 1    
    69   35   37 1    
    70   35  112 1    
    71   36  113 1    
    72   36  114 1    
    73   36  115 1    
    74   37   38 am   BACKBONE|DICT|INTERRES
    75   37  116 1    
    76   38   39 2    
    77   38   40 1    
    78   40   41 1    
    79   40   42 1    
    80   40  117 1    
    81   41  118 1    
    82   41  119 1    
    83   41  120 1    
    84   42   43 am   BACKBONE|DICT|INTERRES
    85   42  121 1    
    86   43   44 2    
    87   43   45 1    
    88   45   46 1    
    89   45   47 1    
    90   45  122 1    
    91   46  123 1    
    92   46  124 1    
    93   46  125 1    
    94   47   48 am   BACKBONE|DICT|INTERRES
    95   47  126 1    
    96   48   49 2    
    97   48   50 1    
    98   50   51 1    
    99   50   52 1    
   100   50  127 1    
   101   51  128 1    
   102   51  129 1    
   103   51  130 1    
   104   52   53 am   BACKBONE|DICT|INTERRES
   105   52  131 1    
   106   53   54 2    
   107   53   55 1    
   108   55   56 1    
   109   55   59 1    
   110   55  132 1    
   111   56   57 1    
   112   56  133 1    
   113   56  134 1    
   114   57   58 1    
   115   58  135 1    
   116   58  136 1    
   117   59   60 am   BACKBONE|DICT|INTERRES
   118   59  137 1    
   119   60   61 2    
   120   60   62 1    
   121   62   63 1    
   122   62   64 1    
   123   62  138 1    
   124   63  139 1    
   125   63  140 1    
   126   63  141 1    
   127   64   65 am   BACKBONE|DICT|INTERRES
   128   64  142 1    
   129   65   66 2    
   130   65   67 1    
   131   67   68 1    
   132   67   69 1    
   133   67  143 1    
   134   68  144 1    
   135   68  145 1    
   136   68  146 1    
   137   69   70 am   BACKBONE|DICT|INTERRES
   138   69  147 1    
   139   70   71 2    
   140   70   72 1    
   141   72   73 1    
   142   72   74 1    
   143   72  148 1    
   144   73  149 1    
   145   73  150 1    
   146   73  151 1    
   147   74   75 am   BACKBONE|DICT|INTERRES
   148   74  152 1    
   149   75   76 2    
   150   75   77 1    
   151   77   78 1    
   152   77   79 1    
   153   77  153 1    
   154   78  154 1    
   155   78  155 1    
   156   78  156 1    
   157   79   80 am   BACKBONE|DICT|INTERRES
   158   79  157 1    
   159   80   81 2    
@<TRIPOS>SUBSTRUCTURE
     1 UNK         1 GROUP             0       ****    0 ROOT    
