@<TRIPOS>MOLECULE
3R207
157   159    1
SMALL
USER_CHARGES


@<TRIPOS>ATOM
      1 CA        -45.7713  -27.7935   11.7875 C.3       0 UNK        -0.1975 
      2 C         -45.7957  -28.5523   10.4691 C.2       0 UNK         0.4852 
      3 O         -44.9077  -29.3649   10.2098 O.2       0 UNK        -0.5216 
      4 N         -46.8021  -28.2810    9.6311 N.am      1 UNK        -0.4461 
      5 CA        -47.0102  -28.9049    8.3170 C.3       1 UNK         0.0864 
      6 C6        -48.5176  -28.9726    7.9668 C.3       14 UNK        -0.0898 
      7 S7        -49.4432  -29.9961    9.1614 S.3       14 UNK        -0.2598 
      8 C8        -50.6992  -30.7748    8.0998 C.3       14 UNK         0.0286 
      9 C9        -51.9253  -29.8873    7.9550 C.ar      14 UNK        -0.0844 
     10 C10       -51.9673  -28.8841    6.9809 C.ar      14 UNK        -0.0881 
     11 C11       -53.0908  -28.0598    6.8661 C.ar      14 UNK        -0.0643 
     12 C12       -54.1929  -28.2785    7.6974 C.ar      14 UNK        -0.0930 
     13 C13       -54.1536  -29.2600    8.6899 C.ar      14 UNK        -0.0827 
     14 C14       -53.0171  -30.0643    8.8114 C.ar      14 UNK        -0.1249 
     15 C15       -55.3281  -29.4295    9.6438 C.3       14 UNK         0.0141 
     16 S16       -55.6255  -27.9075   10.5991 S.3       14 UNK        -0.2313 
     17 C17       -56.6141  -28.5553   11.9845 C.3       14 UNK        -0.0915 
     18 CA        -56.9850  -27.4453   13.0064 C.3       13 UNK         0.0968 
     19 C         -58.0609  -27.9169   14.0288 C.2       13 UNK         0.5732 
     20 N         -57.9879  -27.5469   15.3019 N.am      13 UNK        -0.7310 
     21 O         -59.0010  -28.6181   13.6613 O.2       13 UNK        -0.5035 
     22 N         -55.7888  -26.8825   13.6575 N.am      13 UNK        -0.4233 
     23 C         -55.4280  -25.5927   13.6339 C.2       13 UNK         0.4989 
     24 O         -56.0275  -24.7273   12.9924 O.2       13 UNK        -0.4996 
     25 CA        -54.1986  -25.1955   14.4865 C.3       12 UNK         0.0216 
     26 CB        -54.1556  -23.6849   14.7952 C.3       12 UNK        -0.1964 
     27 N         -54.0356  -25.9588   15.7339 N.am      12 UNK        -0.4276 
     28 C         -54.9619  -26.1927   16.6769 C.2       12 UNK         0.5020 
     29 O         -56.1203  -25.7785   16.6062 O.2       12 UNK        -0.5489 
     30 CA        -54.5491  -27.0434   17.8968 C.3       11 UNK         0.0294 
     31 CB        -55.7264  -27.8837   18.4365 C.3       11 UNK        -0.2019 
     32 N         -53.3741  -27.9018   17.6954 N.am      11 UNK        -0.4493 
     33 C         -53.1927  -28.8735   16.7889 C.2       11 UNK         0.4932 
     34 O         -54.0025  -29.1413   15.8998 O.2       11 UNK        -0.5029 
     35 CA        -51.8666  -29.6568   16.9029 C.3       10 UNK         0.0280 
     36 CB        -51.6989  -30.7382   15.8198 C.3       10 UNK        -0.1976 
     37 N         -50.7032  -28.7627   16.8866 N.am      10 UNK        -0.4242 
     38 C         -50.2718  -28.0524   17.9412 C.2       10 UNK         0.5072 
     39 O         -50.7792  -28.1342   19.0611 O.2       10 UNK        -0.5224 
     40 CA        -49.1334  -27.0394   17.7189 C.3       9 UNK         0.0343 
     41 CB        -47.7789  -27.6656   18.0869 C.3       9 UNK        -0.2003 
     42 N         -49.0611  -26.4993   16.3598 N.am      9 UNK        -0.4272 
     43 C         -50.0378  -25.8391   15.7209 C.2       9 UNK         0.4988 
     44 O         -51.1371  -25.5843   16.2152 O.2       9 UNK        -0.5108 
     45 CA        -49.7649  -25.4381   14.2602 C.3       8 UNK         0.0248 
     46 CB        -48.2663  -25.4044   13.8839 C.3       8 UNK        -0.2001 
     47 N         -50.4967  -26.2924   13.3218 N.am      8 UNK        -0.4140 
     48 C         -50.4987  -27.6311   13.2487 C.2       8 UNK         0.5028 
     49 O         -49.8862  -28.3630   14.0288 O.2       8 UNK        -0.5428 
     50 CA        -51.3124  -28.2773   12.1125 C.3       7 UNK         0.0264 
     51 CB        -52.7740  -28.4965   12.5297 C.3       7 UNK        -0.1988 
     52 N         -51.2195  -27.5991   10.8107 N.am      7 UNK        -0.4454 
     53 C         -51.6172  -26.3670   10.4576 C.2       7 UNK         0.5027 
     54 O         -52.1958  -25.5787   11.2091 O.2       7 UNK        -0.5083 
     55 CA        -51.2154  -25.9064    9.0438 C.3       6 UNK         0.0844 
     56 C56       -52.4222  -25.3731    8.2310 C.3       14 UNK        -0.0967 
     57 S57       -52.0740  -25.4875    6.4382 S.3       14 UNK        -0.2604 
     58 C58       -53.1068  -26.8937    5.8866 C.3       14 UNK         0.0134 
     59 N         -50.1539  -24.9000    9.1171 N.am      6 UNK        -0.4116 
     60 C         -48.9389  -25.0547    9.6591 C.2       5 UNK         0.5034 
     61 O         -48.5177  -26.1208   10.1113 O.2       5 UNK        -0.5045 
     62 CA        -48.0477  -23.8024    9.6819 C.3       5 UNK         0.0224 
     63 CB        -46.5686  -24.1324    9.9520 C.3       5 UNK        -0.1978 
     64 N         -48.1638  -23.0830    8.4100 N.am      5 UNK        -0.4737 
     65 C         -48.5878  -21.8193    8.2688 C.2       4 UNK         0.5027 
     66 O         -48.8978  -21.1041    9.2223 O.2       4 UNK        -0.5211 
     67 CA        -48.7453  -21.2648    6.8350 C.3       4 UNK         0.0297 
     68 CB        -48.3814  -19.7672    6.7377 C.3       4 UNK        -0.1993 
     69 N         -48.0598  -22.0511    5.8000 N.am      4 UNK        -0.4486 
     70 C         -46.7393  -22.2120    5.6384 C.2       3 UNK         0.4961 
     71 O         -45.8741  -21.6575    6.3189 O.2       3 UNK        -0.5105 
     72 CA        -46.3162  -23.2082    4.5437 C.3       3 UNK         0.0299 
     73 CB        -45.5075  -22.5041    3.4417 C.3       3 UNK        -0.1972 
     74 N         -45.5297  -24.3131    5.0992 N.am      3 UNK        -0.4305 
     75 C         -45.9509  -25.1437    6.0629 C.2       2 UNK         0.5006 
     76 O         -47.0864  -25.1062    6.5483 O.2       2 UNK        -0.5106 
     77 CA        -44.9181  -26.1596    6.5838 C.3       2 UNK         0.0296 
     78 CB        -43.7465  -25.4510    7.2887 C.3       2 UNK        -0.2002 
     79 N         -45.5421  -27.0846    7.5288 N.am      2 UNK        -0.4032 
     80 C         -46.2236  -28.1884    7.1956 C.2       1 UNK         0.5000 
     81 O         -46.2589  -28.6420    6.0494 O.2       1 UNK        -0.5238 
     82 H82       -44.8458  -27.2260   11.8794 H         1 UNK         0.0889 
     83 H83       -45.8315  -28.4902   12.6230 H         1 UNK         0.0889 
     84 H84       -46.6058  -27.0973   11.8671 H         1 UNK         0.0889 
     85 H85       -47.4949  -27.5784    9.8910 H         1 UNK         0.3028 
     86 H86       -46.6290  -29.9280    8.3505 H         1 UNK         0.0864 
     87 H87       -48.6553  -29.3911    6.9683 H         1 UNK         0.0720 
     88 H88       -48.9508  -27.9724    7.9399 H         1 UNK         0.0720 
     89 H89       -50.9847  -31.7286    8.5461 H         1 UNK         0.0814 
     90 H90       -50.2828  -31.0184    7.1214 H         1 UNK         0.0814 
     91 H91       -51.1155  -28.7209    6.3350 H         1 UNK         0.1469 
     92 H92       -55.0652  -27.6447    7.6129 H         1 UNK         0.1381 
     93 H93       -52.9765  -30.8247    9.5794 H         1 UNK         0.1206 
     94 H94       -55.1439  -30.2573   10.3302 H         1 UNK         0.0813 
     95 H95       -56.2258  -29.6850    9.0794 H         1 UNK         0.0813 
     96 H96       -56.0595  -29.3560   12.4770 H         1 UNK         0.0638 
     97 H97       -57.5090  -29.0110   11.5571 H         1 UNK         0.0638 
     98 H98       -57.4922  -26.6598   12.4443 H         1 UNK         0.0568 
     99 H99       -58.7026  -27.8595   15.9387 H         1 UNK         0.3450 
    100 H100      -57.2654  -26.9125   15.6323 H         1 UNK         0.3450 
    101 H101      -55.2689  -27.5216   14.2436 H         1 UNK         0.2987 
    102 H102      -53.3260  -25.4276   13.8749 H         1 UNK         0.0766 
    103 H103      -54.1466  -23.0944   13.8782 H         1 UNK         0.0798 
    104 H104      -53.2577  -23.4222   15.3549 H         1 UNK         0.0798 
    105 H105      -55.0208  -23.3710   15.3804 H         1 UNK         0.0798 
    106 H106      -53.0910  -26.2786   15.9224 H         1 UNK         0.3198 
    107 H107      -54.2697  -26.3291   18.6726 H         1 UNK         0.0843 
    108 H108      -56.0981  -28.5831   17.6866 H         1 UNK         0.0831 
    109 H109      -56.5629  -27.2491   18.7318 H         1 UNK         0.0831 
    110 H110      -55.4351  -28.4580   19.3158 H         1 UNK         0.0831 
    111 H111      -52.6160  -27.7678   18.3592 H         1 UNK         0.3133 
    112 H112      -51.8961  -30.1751   17.8637 H         1 UNK         0.0566 
    113 H113      -50.8138  -31.3464   16.0067 H         1 UNK         0.0814 
    114 H114      -51.5983  -30.3092   14.8246 H         1 UNK         0.0814 
    115 H115      -52.5553  -31.4135   15.8014 H         1 UNK         0.0814 
    116 H116      -50.2695  -28.6032   15.9802 H         1 UNK         0.3091 
    117 H117      -49.3154  -26.1983   18.3909 H         1 UNK         0.0702 
    118 H118      -47.7923  -28.0541   19.1064 H         1 UNK         0.0785 
    119 H119      -46.9738  -26.9325   18.0329 H         1 UNK         0.0785 
    120 H120      -47.5251  -28.4949   17.4252 H         1 UNK         0.0785 
    121 H121      -48.2160  -26.6955   15.8439 H         1 UNK         0.2998 
    122 H122      -50.1618  -24.4292   14.1386 H         1 UNK         0.0697 
    123 H123      -47.8101  -26.3943   13.9102 H         1 UNK         0.0825 
    124 H124      -47.7031  -24.7569   14.5574 H         1 UNK         0.0825 
    125 H125      -48.1295  -25.0119   12.8764 H         1 UNK         0.0825 
    126 H126      -51.0839  -25.8102   12.6446 H         1 UNK         0.3029 
    127 H127      -50.8717  -29.2636   11.9572 H         1 UNK         0.0897 
    128 H128      -53.3322  -27.5633   12.5536 H         1 UNK         0.0792 
    129 H129      -52.8477  -28.9414   13.5199 H         1 UNK         0.0792 
    130 H130      -53.2748  -29.1728   11.8387 H         1 UNK         0.0792 
    131 H131      -50.7119  -28.1310   10.1141 H         1 UNK         0.3086 
    132 H132      -50.8075  -26.7742    8.5251 H         1 UNK         0.0583 
    133 H133      -53.3416  -25.9066    8.4698 H         1 UNK         0.1020 
    134 H134      -52.6336  -24.3334    8.4872 H         1 UNK         0.1020 
    135 H135      -54.1270  -26.5380    5.7344 H         1 UNK         0.0694 
    136 H136      -52.7546  -27.2314    4.9109 H         1 UNK         0.0694 
    137 H137      -50.3919  -23.9863    8.7631 H         1 UNK         0.2989 
    138 H138      -48.4089  -23.1860   10.5080 H         1 UNK         0.1055 
    139 H139      -46.1743  -24.8214    9.2081 H         1 UNK         0.0806 
    140 H140      -46.4409  -24.5970   10.9303 H         1 UNK         0.0806 
    141 H141      -45.9526  -23.2332    9.9370 H         1 UNK         0.0806 
    142 H142      -47.9294  -23.6252    7.5815 H         1 UNK         0.3061 
    143 H143      -49.8090  -21.3508    6.6082 H         1 UNK         0.0734 
    144 H144      -47.3514  -19.5782    7.0410 H         1 UNK         0.0832 
    145 H145      -48.5077  -19.3917    5.7223 H         1 UNK         0.0832 
    146 H146      -49.0218  -19.1661    7.3845 H         1 UNK         0.0832 
    147 H147      -48.6710  -22.5821    5.1937 H         1 UNK         0.3156 
    148 H148      -47.2095  -23.6387    4.0860 H         1 UNK         0.0589 
    149 H149      -45.2539  -23.1901    2.6332 H         1 UNK         0.0808 
    150 H150      -46.0790  -21.6851    3.0028 H         1 UNK         0.0808 
    151 H151      -44.5790  -22.0816    3.8287 H         1 UNK         0.0808 
    152 H152      -44.5770  -24.3926    4.7748 H         1 UNK         0.3098 
    153 H153      -44.5279  -26.7208    5.7320 H         1 UNK         0.0720 
    154 H154      -44.0852  -24.8069    8.1005 H         1 UNK         0.0791 
    155 H155      -43.1856  -24.8252    6.5938 H         1 UNK         0.0791 
    156 H156      -43.0425  -26.1714    7.7061 H         1 UNK         0.0791 
    157 H157      -45.6027  -26.7798    8.4880 H         1 UNK         0.3028 
@<TRIPOS>BOND
     1    1    2 1    
     2    1   82 1    
     3    1   83 1    
     4    1   84 1    
     5    2    3 2    
     6    2    4 am   BACKBONE|DICT|INTERRES
     7    4    5 1    
     8    4   85 1    
     9    5    6 1    
    10    5   80 1    
    11    5   86 1    
    12    6    7 1    
    13    6   87 1    
    14    6   88 1    
    15    7    8 1    
    16    8    9 1    
    17    8   89 1    
    18    8   90 1    
    19    9   10 ar   
    20    9   14 ar   
    21   10   11 ar   
    22   10   91 1    
    23   11   12 ar   
    24   11   58 1    
    25   12   13 ar   
    26   12   92 1    
    27   13   14 ar   
    28   13   15 1    
    29   14   93 1    
    30   15   16 1    
    31   15   94 1    
    32   15   95 1    
    33   16   17 1    
    34   17   18 1    
    35   17   96 1    
    36   17   97 1    
    37   18   19 1    
    38   18   22 1    
    39   18   98 1    
    40   19   20 am   BACKBONE|DICT|INTERRES
    41   19   21 2    
    42   20   99 1    
    43   20  100 1    
    44   22   23 am   BACKBONE|DICT|INTERRES
    45   22  101 1    
    46   23   24 2    
    47   23   25 1    
    48   25   26 1    
    49   25   27 1    
    50   25  102 1    
    51   26  103 1    
    52   26  104 1    
    53   26  105 1    
    54   27   28 am   BACKBONE|DICT|INTERRES
    55   27  106 1    
    56   28   29 2    
    57   28   30 1    
    58   30   31 1    
    59   30   32 1    
    60   30  107 1    
    61   31  108 1    
    62   31  109 1    
    63   31  110 1    
    64   32   33 am   BACKBONE|DICT|INTERRES
    65   32  111 1    
    66   33   34 2    
    67   33   35 1    
    68   35   36 1    
    69   35   37 1    
    70   35  112 1    
    71   36  113 1    
    72   36  114 1    
    73   36  115 1    
    74   37   38 am   BACKBONE|DICT|INTERRES
    75   37  116 1    
    76   38   39 2    
    77   38   40 1    
    78   40   41 1    
    79   40   42 1    
    80   40  117 1    
    81   41  118 1    
    82   41  119 1    
    83   41  120 1    
    84   42   43 am   BACKBONE|DICT|INTERRES
    85   42  121 1    
    86   43   44 2    
    87   43   45 1    
    88   45   46 1    
    89   45   47 1    
    90   45  122 1    
    91   46  123 1    
    92   46  124 1    
    93   46  125 1    
    94   47   48 am   BACKBONE|DICT|INTERRES
    95   47  126 1    
    96   48   49 2    
    97   48   50 1    
    98   50   51 1    
    99   50   52 1    
   100   50  127 1    
   101   51  128 1    
   102   51  129 1    
   103   51  130 1    
   104   52   53 am   BACKBONE|DICT|INTERRES
   105   52  131 1    
   106   53   54 2    
   107   53   55 1    
   108   55   56 1    
   109   55   59 1    
   110   55  132 1    
   111   56   57 1    
   112   56  133 1    
   113   56  134 1    
   114   57   58 1    
   115   58  135 1    
   116   58  136 1    
   117   59   60 am   BACKBONE|DICT|INTERRES
   118   59  137 1    
   119   60   61 2    
   120   60   62 1    
   121   62   63 1    
   122   62   64 1    
   123   62  138 1    
   124   63  139 1    
   125   63  140 1    
   126   63  141 1    
   127   64   65 am   BACKBONE|DICT|INTERRES
   128   64  142 1    
   129   65   66 2    
   130   65   67 1    
   131   67   68 1    
   132   67   69 1    
   133   67  143 1    
   134   68  144 1    
   135   68  145 1    
   136   68  146 1    
   137   69   70 am   BACKBONE|DICT|INTERRES
   138   69  147 1    
   139   70   71 2    
   140   70   72 1    
   141   72   73 1    
   142   72   74 1    
   143   72  148 1    
   144   73  149 1    
   145   73  150 1    
   146   73  151 1    
   147   74   75 am   BACKBONE|DICT|INTERRES
   148   74  152 1    
   149   75   76 2    
   150   75   77 1    
   151   77   78 1    
   152   77   79 1    
   153   77  153 1    
   154   78  154 1    
   155   78  155 1    
   156   78  156 1    
   157   79   80 am   BACKBONE|DICT|INTERRES
   158   79  157 1    
   159   80   81 2    
@<TRIPOS>SUBSTRUCTURE
     1 UNK         1 GROUP             0       ****    0 ROOT    
