@<TRIPOS>MOLECULE
3R207
157   159    1
SMALL
USER_CHARGES


@<TRIPOS>ATOM
      1 CA        -44.2346  -28.9173    6.1072 C.3       0 UNK        -0.1975 
      2 C         -45.5325  -28.2445    5.6888 C.2       0 UNK         0.4852 
      3 O         -45.6650  -27.0294    5.8397 O.2       0 UNK        -0.5216 
      4 N         -46.4823  -29.0177    5.1418 N.am      1 UNK        -0.4461 
      5 CA        -47.8159  -28.5724    4.7032 C.3       1 UNK         0.0864 
      6 C6        -48.7382  -28.1756    5.8902 C.3       14 UNK        -0.0898 
      7 S7        -49.0155  -29.5861    7.0181 S.3       14 UNK        -0.2598 
      8 C8        -50.8202  -29.8127    6.9241 C.3       14 UNK         0.0286 
      9 C9        -51.5360  -28.9381    7.9420 C.ar      14 UNK        -0.0844 
     10 C10       -51.8864  -27.6222    7.6263 C.ar      14 UNK        -0.0881 
     11 C11       -52.5103  -26.8094    8.5764 C.ar      14 UNK        -0.0643 
     12 C12       -52.8115  -27.3289    9.8379 C.ar      14 UNK        -0.0930 
     13 C13       -52.4620  -28.6406   10.1674 C.ar      14 UNK        -0.0827 
     14 C14       -51.8280  -29.4418    9.2137 C.ar      14 UNK        -0.1249 
     15 C15       -52.7093  -29.1737   11.5699 C.3       14 UNK         0.0141 
     16 S16       -54.3157  -30.0014   11.7424 S.3       14 UNK        -0.2313 
     17 C17       -55.5018  -28.6124   11.6939 C.3       14 UNK        -0.0915 
     18 CA        -55.3154  -27.4960   12.7717 C.3       13 UNK         0.0968 
     19 C         -56.4306  -26.4147   12.6584 C.2       13 UNK         0.5732 
     20 N         -57.1209  -26.0284   13.7248 N.am      13 UNK        -0.7310 
     21 O         -56.6521  -25.8809   11.5742 O.2       13 UNK        -0.5035 
     22 N         -55.0577  -27.9818   14.1377 N.am      13 UNK        -0.4233 
     23 C         -55.8166  -28.8277   14.8441 C.2       13 UNK         0.4989 
     24 O         -56.8179  -29.3997   14.4114 O.2       13 UNK        -0.4996 
     25 CA        -55.4137  -29.0275   16.3151 C.3       12 UNK         0.0216 
     26 CB        -54.1098  -29.8364   16.4228 C.3       12 UNK        -0.1964 
     27 N         -55.2894  -27.7762   17.0767 N.am      12 UNK        -0.4276 
     28 C         -56.2356  -26.8251   17.1763 C.2       12 UNK         0.5020 
     29 O         -57.3034  -26.8616   16.5625 O.2       12 UNK        -0.5489 
     30 CA        -55.9528  -25.6271   18.1077 C.3       11 UNK         0.0294 
     31 CB        -57.2390  -24.9136   18.5768 C.3       11 UNK        -0.2019 
     32 N         -55.0993  -25.9639   19.2509 N.am      11 UNK        -0.4493 
     33 C         -55.3309  -26.8781   20.2085 C.2       11 UNK         0.4932 
     34 O         -56.3897  -27.4975   20.3196 O.2       11 UNK        -0.5029 
     35 CA        -54.1794  -27.1657   21.2002 C.3       10 UNK         0.0280 
     36 CB        -54.1545  -28.6428   21.6482 C.3       10 UNK        -0.1976 
     37 N         -52.8519  -26.7551   20.7163 N.am      10 UNK        -0.4242 
     38 C         -52.2428  -27.1610   19.5924 C.2       10 UNK         0.5072 
     39 O         -52.7082  -27.9906   18.8076 O.2       10 UNK        -0.5224 
     40 CA        -50.9248  -26.4519   19.2436 C.3       9 UNK         0.0343 
     41 CB        -49.7525  -27.4463   19.2530 C.3       9 UNK        -0.2003 
     42 N         -50.9996  -25.8054   17.9312 N.am      9 UNK        -0.4272 
     43 C         -51.9105  -24.8951   17.5494 C.2       9 UNK         0.4988 
     44 O         -52.7681  -24.4333   18.3040 O.2       9 UNK        -0.5108 
     45 CA        -51.8650  -24.4085   16.0878 C.3       8 UNK         0.0248 
     46 CB        -51.4133  -22.9404   16.0213 C.3       8 UNK        -0.2001 
     47 N         -50.9832  -25.2174   15.2424 N.am      8 UNK        -0.4140 
     48 C         -51.2998  -26.4125   14.7309 C.2       8 UNK         0.5028 
     49 O         -52.4215  -26.9210   14.8043 O.2       8 UNK        -0.5428 
     50 CA        -50.1593  -27.1512   14.0116 C.3       7 UNK         0.0264 
     51 CB        -50.2270  -28.6734   14.2350 C.3       7 UNK        -0.1988 
     52 N         -50.1690  -26.8433   12.5805 N.am      7 UNK        -0.4454 
     53 C         -49.6970  -25.7042   12.0548 C.2       7 UNK         0.5027 
     54 O         -49.1699  -24.8099   12.7217 O.2       7 UNK        -0.5083 
     55 CA        -49.8629  -25.5166   10.5350 C.3       6 UNK         0.0844 
     56 C56       -50.9726  -24.4760   10.2330 C.3       14 UNK        -0.0967 
     57 S57       -51.3226  -24.3182    8.4454 S.3       14 UNK        -0.2604 
     58 C58       -52.8107  -25.3535    8.2583 C.3       14 UNK         0.0134 
     59 N         -48.5955  -25.1437    9.9102 N.am      6 UNK        -0.4116 
     60 C         -47.4970  -25.9023    9.8267 C.2       5 UNK         0.5034 
     61 O         -47.4104  -27.0374   10.2990 O.2       5 UNK        -0.5045 
     62 CA        -46.3124  -25.2900    9.0494 C.3       5 UNK         0.0224 
     63 CB        -45.0831  -26.2163    9.0170 C.3       5 UNK        -0.1978 
     64 N         -46.6898  -24.9462    7.6731 N.am      5 UNK        -0.4737 
     65 C         -47.4082  -23.8692    7.3215 C.2       4 UNK         0.5027 
     66 O         -47.7800  -23.0183    8.1327 O.2       4 UNK        -0.5211 
     67 CA        -47.8034  -23.7420    5.8389 C.3       4 UNK         0.0297 
     68 CB        -48.3171  -22.3355    5.4647 C.3       4 UNK        -0.1993 
     69 N         -46.7447  -24.1818    4.9268 N.am      4 UNK        -0.4486 
     70 C         -45.5173  -23.6567    4.7780 C.2       3 UNK         0.4961 
     71 O         -45.1242  -22.6526    5.3730 O.2       3 UNK        -0.5105 
     72 CA        -44.5490  -24.3698    3.8127 C.3       3 UNK         0.0299 
     73 CB        -43.2842  -24.8379    4.5546 C.3       3 UNK        -0.1972 
     74 N         -45.1638  -25.5237    3.1521 N.am      3 UNK        -0.4305 
     75 C         -45.8443  -25.4772    1.9978 C.2       2 UNK         0.5006 
     76 O         -45.9549  -24.4621    1.3096 O.2       2 UNK        -0.5106 
     77 CA        -46.5374  -26.7739    1.5341 C.3       2 UNK         0.0296 
     78 CB        -45.6784  -27.4923    0.4806 C.3       2 UNK        -0.2002 
     79 N         -46.8484  -27.7097    2.6212 N.am      2 UNK        -0.4032 
     80 C         -47.7175  -27.4762    3.6171 C.2       1 UNK         0.5000 
     81 O         -48.3643  -26.4321    3.7189 O.2       1 UNK        -0.5238 
     82 H82       -43.3877  -28.4265    5.6287 H         1 UNK         0.0889 
     83 H83       -44.2152  -29.9719    5.8336 H         1 UNK         0.0889 
     84 H84       -44.1051  -28.8438    7.1862 H         1 UNK         0.0889 
     85 H85       -46.3108  -30.0095    5.0494 H         1 UNK         0.3028 
     86 H86       -48.2770  -29.4270    4.2051 H         1 UNK         0.0864 
     87 H87       -48.3098  -27.3514    6.4631 H         1 UNK         0.0720 
     88 H88       -49.6989  -27.8172    5.5199 H         1 UNK         0.0720 
     89 H89       -51.0489  -30.8622    7.1155 H         1 UNK         0.0814 
     90 H90       -51.1809  -29.6077    5.9151 H         1 UNK         0.0814 
     91 H91       -51.6490  -27.2167    6.6529 H         1 UNK         0.1469 
     92 H92       -53.2878  -26.6965   10.5720 H         1 UNK         0.1381 
     93 H93       -51.5449  -30.4545    9.4673 H         1 UNK         0.1206 
     94 H94       -51.9296  -29.8926   11.8256 H         1 UNK         0.0813 
     95 H95       -52.6329  -28.3719   12.3027 H         1 UNK         0.0813 
     96 H96       -55.4592  -28.1792   10.6934 H         1 UNK         0.0638 
     97 H97       -56.4993  -29.0464   11.7783 H         1 UNK         0.0638 
     98 H98       -54.4085  -26.9489   12.5225 H         1 UNK         0.0568 
     99 H99       -57.8242  -25.3163   13.6131 H         1 UNK         0.3450 
    100 H100      -57.0027  -26.4734   14.6284 H         1 UNK         0.3450 
    101 H101      -54.2355  -27.5799   14.5823 H         1 UNK         0.2987 
    102 H102      -56.2072  -29.6079   16.7900 H         1 UNK         0.0766 
    103 H103      -54.1676  -30.7555   15.8381 H         1 UNK         0.0798 
    104 H104      -53.9067  -30.1221   17.4551 H         1 UNK         0.0798 
    105 H105      -53.2502  -29.2710   16.0601 H         1 UNK         0.0798 
    106 H106      -54.4424  -27.6755   17.6277 H         1 UNK         0.3198 
    107 H107      -55.3855  -24.9146   17.5070 H         1 UNK         0.0843 
    108 H108      -57.0100  -24.0651   19.2214 H         1 UNK         0.0831 
    109 H109      -57.8974  -25.5864   19.1270 H         1 UNK         0.0831 
    110 H110      -57.8053  -24.5290   17.7277 H         1 UNK         0.0831 
    111 H111      -54.1927  -25.5047   19.2403 H         1 UNK         0.3133 
    112 H112      -54.3831  -26.5557   22.0813 H         1 UNK         0.0566 
    113 H113      -53.3463  -28.8304   22.3549 H         1 UNK         0.0814 
    114 H114      -54.0245  -29.3192   20.8025 H         1 UNK         0.0814 
    115 H115      -55.0855  -28.9195   22.1444 H         1 UNK         0.0814 
    116 H116      -52.3948  -26.0421   21.2689 H         1 UNK         0.3091 
    117 H117      -50.7253  -25.6748   19.9842 H         1 UNK         0.0702 
    118 H118      -48.8042  -26.9465   19.0542 H         1 UNK         0.0785 
    119 H119      -49.8830  -28.2307   18.5059 H         1 UNK         0.0785 
    120 H120      -49.6632  -27.9342   20.2246 H         1 UNK         0.0785 
    121 H121      -50.3453  -26.1318   17.2376 H         1 UNK         0.2998 
    122 H122      -52.8818  -24.4709   15.6938 H         1 UNK         0.0697 
    123 H123      -50.4030  -22.8093   16.4110 H         1 UNK         0.0825 
    124 H124      -52.0742  -22.3010   16.6084 H         1 UNK         0.0825 
    125 H125      -51.4300  -22.5663   14.9973 H         1 UNK         0.0825 
    126 H126      -50.0608  -24.8443   15.0588 H         1 UNK         0.3029 
    127 H127      -49.2081  -26.8136   14.4303 H         1 UNK         0.0897 
    128 H128      -51.1897  -29.0979   13.9562 H         1 UNK         0.0792 
    129 H129      -50.0763  -28.9100   15.2891 H         1 UNK         0.0792 
    130 H130      -49.4514  -29.1950   13.6739 H         1 UNK         0.0792 
    131 H131      -50.5830  -27.5293   11.9668 H         1 UNK         0.3086 
    132 H132      -50.1523  -26.4757   10.1029 H         1 UNK         0.0583 
    133 H133      -51.8964  -24.7218   10.7589 H         1 UNK         0.1020 
    134 H134      -50.6784  -23.4923   10.6050 H         1 UNK         0.1020 
    135 H135      -53.6069  -24.9712    8.8991 H         1 UNK         0.0694 
    136 H136      -53.1753  -25.2692    7.2335 H         1 UNK         0.0694 
    137 H137      -48.5663  -24.2329    9.4629 H         1 UNK         0.2989 
    138 H138      -46.0221  -24.3753    9.5713 H         1 UNK         0.1055 
    139 H139      -44.2656  -25.7759    8.4459 H         1 UNK         0.0806 
    140 H140      -45.3217  -27.1820    8.5717 H         1 UNK         0.0806 
    141 H141      -44.7120  -26.4066   10.0248 H         1 UNK         0.0806 
    142 H142      -46.4150  -25.6111    6.9529 H         1 UNK         0.3061 
    143 H143      -48.6310  -24.4382    5.6941 H         1 UNK         0.0734 
    144 H144      -47.5667  -21.5663    5.6489 H         1 UNK         0.0832 
    145 H145      -48.6025  -22.2837    4.4141 H         1 UNK         0.0832 
    146 H146      -49.1985  -22.0751    6.0522 H         1 UNK         0.0832 
    147 H147      -46.9709  -25.0168    4.3980 H         1 UNK         0.3156 
    148 H148      -44.2451  -23.6400    3.0595 H         1 UNK         0.0589 
    149 H149      -42.5883  -25.3360    3.8795 H         1 UNK         0.0808 
    150 H150      -42.7551  -23.9921    4.9955 H         1 UNK         0.0808 
    151 H151      -43.5201  -25.5284    5.3648 H         1 UNK         0.0808 
    152 H152      -45.1586  -26.3860    3.6804 H         1 UNK         0.3098 
    153 H153      -47.4811  -26.4854    1.0662 H         1 UNK         0.0720 
    154 H154      -45.4550  -26.8309   -0.3580 H         1 UNK         0.0791 
    155 H155      -46.1933  -28.3630    0.0740 H         1 UNK         0.0791 
    156 H156      -44.7259  -27.8262    0.8944 H         1 UNK         0.0791 
    157 H157      -46.3452  -28.5856    2.6226 H         1 UNK         0.3028 
@<TRIPOS>BOND
     1    1    2 1    
     2    1   82 1    
     3    1   83 1    
     4    1   84 1    
     5    2    3 2    
     6    2    4 am   BACKBONE|DICT|INTERRES
     7    4    5 1    
     8    4   85 1    
     9    5    6 1    
    10    5   80 1    
    11    5   86 1    
    12    6    7 1    
    13    6   87 1    
    14    6   88 1    
    15    7    8 1    
    16    8    9 1    
    17    8   89 1    
    18    8   90 1    
    19    9   10 ar   
    20    9   14 ar   
    21   10   11 ar   
    22   10   91 1    
    23   11   12 ar   
    24   11   58 1    
    25   12   13 ar   
    26   12   92 1    
    27   13   14 ar   
    28   13   15 1    
    29   14   93 1    
    30   15   16 1    
    31   15   94 1    
    32   15   95 1    
    33   16   17 1    
    34   17   18 1    
    35   17   96 1    
    36   17   97 1    
    37   18   19 1    
    38   18   22 1    
    39   18   98 1    
    40   19   20 am   BACKBONE|DICT|INTERRES
    41   19   21 2    
    42   20   99 1    
    43   20  100 1    
    44   22   23 am   BACKBONE|DICT|INTERRES
    45   22  101 1    
    46   23   24 2    
    47   23   25 1    
    48   25   26 1    
    49   25   27 1    
    50   25  102 1    
    51   26  103 1    
    52   26  104 1    
    53   26  105 1    
    54   27   28 am   BACKBONE|DICT|INTERRES
    55   27  106 1    
    56   28   29 2    
    57   28   30 1    
    58   30   31 1    
    59   30   32 1    
    60   30  107 1    
    61   31  108 1    
    62   31  109 1    
    63   31  110 1    
    64   32   33 am   BACKBONE|DICT|INTERRES
    65   32  111 1    
    66   33   34 2    
    67   33   35 1    
    68   35   36 1    
    69   35   37 1    
    70   35  112 1    
    71   36  113 1    
    72   36  114 1    
    73   36  115 1    
    74   37   38 am   BACKBONE|DICT|INTERRES
    75   37  116 1    
    76   38   39 2    
    77   38   40 1    
    78   40   41 1    
    79   40   42 1    
    80   40  117 1    
    81   41  118 1    
    82   41  119 1    
    83   41  120 1    
    84   42   43 am   BACKBONE|DICT|INTERRES
    85   42  121 1    
    86   43   44 2    
    87   43   45 1    
    88   45   46 1    
    89   45   47 1    
    90   45  122 1    
    91   46  123 1    
    92   46  124 1    
    93   46  125 1    
    94   47   48 am   BACKBONE|DICT|INTERRES
    95   47  126 1    
    96   48   49 2    
    97   48   50 1    
    98   50   51 1    
    99   50   52 1    
   100   50  127 1    
   101   51  128 1    
   102   51  129 1    
   103   51  130 1    
   104   52   53 am   BACKBONE|DICT|INTERRES
   105   52  131 1    
   106   53   54 2    
   107   53   55 1    
   108   55   56 1    
   109   55   59 1    
   110   55  132 1    
   111   56   57 1    
   112   56  133 1    
   113   56  134 1    
   114   57   58 1    
   115   58  135 1    
   116   58  136 1    
   117   59   60 am   BACKBONE|DICT|INTERRES
   118   59  137 1    
   119   60   61 2    
   120   60   62 1    
   121   62   63 1    
   122   62   64 1    
   123   62  138 1    
   124   63  139 1    
   125   63  140 1    
   126   63  141 1    
   127   64   65 am   BACKBONE|DICT|INTERRES
   128   64  142 1    
   129   65   66 2    
   130   65   67 1    
   131   67   68 1    
   132   67   69 1    
   133   67  143 1    
   134   68  144 1    
   135   68  145 1    
   136   68  146 1    
   137   69   70 am   BACKBONE|DICT|INTERRES
   138   69  147 1    
   139   70   71 2    
   140   70   72 1    
   141   72   73 1    
   142   72   74 1    
   143   72  148 1    
   144   73  149 1    
   145   73  150 1    
   146   73  151 1    
   147   74   75 am   BACKBONE|DICT|INTERRES
   148   74  152 1    
   149   75   76 2    
   150   75   77 1    
   151   77   78 1    
   152   77   79 1    
   153   77  153 1    
   154   78  154 1    
   155   78  155 1    
   156   78  156 1    
   157   79   80 am   BACKBONE|DICT|INTERRES
   158   79  157 1    
   159   80   81 2    
@<TRIPOS>SUBSTRUCTURE
     1 UNK         1 GROUP             0       ****    0 ROOT    
