@<TRIPOS>MOLECULE
3R207
157   159    1
SMALL
USER_CHARGES


@<TRIPOS>ATOM
      1 CA        -45.3487  -28.1989   10.4839 C.3       0 UNK        -0.1975 
      2 C         -46.2378  -28.1368    9.2508 C.2       0 UNK         0.4852 
      3 O         -46.3866  -27.0651    8.6644 O.2       0 UNK        -0.5216 
      4 N         -46.7962  -29.2898    8.8524 N.am      1 UNK        -0.4461 
      5 CA        -47.6546  -29.5332    7.6813 C.3       1 UNK         0.0864 
      6 C6        -49.1763  -29.3460    7.9425 C.3       14 UNK        -0.0898 
      7 S7        -49.7633  -27.7033    8.4832 S.3       14 UNK        -0.2598 
      8 C8        -51.4900  -28.1593    8.8618 C.3       14 UNK         0.0286 
      9 C9        -52.3610  -26.9856    9.2941 C.ar      14 UNK        -0.0844 
     10 C10       -52.4487  -25.8361    8.5015 C.ar      14 UNK        -0.0881 
     11 C11       -53.2916  -24.7828    8.8674 C.ar      14 UNK        -0.0643 
     12 C12       -54.0688  -24.8935   10.0236 C.ar      14 UNK        -0.0930 
     13 C13       -53.9988  -26.0392   10.8208 C.ar      14 UNK        -0.0827 
     14 C14       -53.1362  -27.0782   10.4567 C.ar      14 UNK        -0.1249 
     15 C15       -54.8719  -26.1484   12.0632 C.3       14 UNK         0.0141 
     16 S16       -56.6272  -26.3366   11.6179 S.3       14 UNK        -0.2313 
     17 C17       -56.6915  -28.0906   11.1122 C.3       14 UNK        -0.0915 
     18 CA        -57.8959  -28.8534   11.7419 C.3       13 UNK         0.0968 
     19 C         -57.9988  -30.3267   11.2415 C.2       13 UNK         0.5732 
     20 N         -58.4334  -31.2756   12.0622 N.am      13 UNK        -0.7310 
     21 O         -57.7176  -30.6128   10.0798 O.2       13 UNK        -0.5035 
     22 N         -57.9920  -28.6797   13.2040 N.am      13 UNK        -0.4233 
     23 C         -57.0747  -29.0595   14.1000 C.2       13 UNK         0.4989 
     24 O         -56.0577  -29.7031   13.8296 O.2       13 UNK        -0.4996 
     25 CA        -57.3455  -28.6539   15.5518 C.3       12 UNK         0.0216 
     26 CB        -58.2634  -29.6704   16.2523 C.3       12 UNK        -0.1964 
     27 N         -56.0643  -28.5943   16.2445 N.am      12 UNK        -0.4276 
     28 C         -55.6827  -27.6613   17.1219 C.2       12 UNK         0.5020 
     29 O         -56.4200  -26.7618   17.5282 O.2       12 UNK        -0.5489 
     30 CA        -54.2376  -27.7435   17.6497 C.3       11 UNK         0.0294 
     31 CB        -54.2265  -28.2324   19.1080 C.3       11 UNK        -0.2019 
     32 N         -53.3662  -28.6123   16.8494 N.am      11 UNK        -0.4493 
     33 C         -52.8346  -28.2699   15.6700 C.2       11 UNK         0.4932 
     34 O         -53.0283  -27.1895   15.1084 O.2       11 UNK        -0.5029 
     35 CA        -51.9442  -29.3152   14.9954 C.3       10 UNK         0.0280 
     36 CB        -52.7437  -30.1662   13.9933 C.3       10 UNK        -0.1976 
     37 N         -50.8811  -28.5971   14.3092 N.am      10 UNK        -0.4242 
     38 C         -49.6738  -29.0789   13.9989 C.2       10 UNK         0.5072 
     39 O         -49.3196  -30.2418   14.1979 O.2       10 UNK        -0.5224 
     40 CA        -48.6908  -28.0834   13.3606 C.3       9 UNK         0.0343 
     41 CB        -48.9272  -28.0321   11.8440 C.3       9 UNK        -0.2003 
     42 N         -48.8027  -26.7257   13.9026 N.am      9 UNK        -0.4272 
     43 C         -48.5805  -26.3681   15.1773 C.2       9 UNK         0.4988 
     44 O         -48.2019  -27.1467   16.0526 O.2       9 UNK        -0.5108 
     45 CA        -48.8500  -24.9018   15.5473 C.3       8 UNK         0.0248 
     46 CB        -47.6366  -24.0198   15.2131 C.3       8 UNK        -0.2001 
     47 N         -50.0338  -24.3968   14.8473 N.am      8 UNK        -0.4140 
     48 C         -51.2319  -24.1933   15.4137 C.2       8 UNK         0.5028 
     49 O         -51.4404  -24.3300   16.6205 O.2       8 UNK        -0.5428 
     50 CA        -52.4159  -23.8012   14.5029 C.3       7 UNK         0.0264 
     51 CB        -53.1233  -22.5201   14.9930 C.3       7 UNK        -0.1988 
     52 N         -52.1009  -23.7295   13.0682 N.am      7 UNK        -0.4454 
     53 C         -51.3551  -22.8198   12.4246 C.2       7 UNK         0.5027 
     54 O         -50.8253  -21.8420   12.9553 O.2       7 UNK        -0.5083 
     55 CA        -51.1432  -23.0818   10.9224 C.3       6 UNK         0.0844 
     56 C56       -51.9669  -22.0935   10.0591 C.3       14 UNK        -0.0967 
     57 S57       -51.8703  -22.4781    8.2753 S.3       14 UNK        -0.2604 
     58 C58       -53.3469  -23.5160    8.0270 C.3       14 UNK         0.0134 
     59 N         -49.7277  -23.1001   10.5549 N.am      6 UNK        -0.4116 
     60 C         -48.7872  -23.8868   11.0906 C.2       5 UNK         0.5034 
     61 O         -48.9931  -24.6550   12.0337 O.2       5 UNK        -0.5045 
     62 CA        -47.4020  -23.8316   10.4198 C.3       5 UNK         0.0224 
     63 CB        -46.3240  -24.6009   11.2041 C.3       5 UNK        -0.1978 
     64 N         -47.4643  -24.3632    9.0567 N.am      5 UNK        -0.4737 
     65 C         -47.9504  -23.7050    7.9953 C.2       4 UNK         0.5027 
     66 O         -48.3623  -22.5443    8.0493 O.2       4 UNK        -0.5211 
     67 CA        -47.9508  -24.4744    6.6626 C.3       4 UNK         0.0297 
     68 CB        -48.4011  -23.6204    5.4589 C.3       4 UNK        -0.1993 
     69 N         -46.6530  -25.1089    6.4197 N.am      4 UNK        -0.4486 
     70 C         -45.4594  -24.5086    6.2847 C.2       3 UNK         0.4961 
     71 O         -45.3015  -23.2906    6.1956 O.2       3 UNK        -0.5105 
     72 CA        -44.2155  -25.4159    6.2778 C.3       3 UNK         0.0299 
     73 CB        -43.4627  -25.2972    7.6142 C.3       3 UNK        -0.1972 
     74 N         -44.5422  -26.8232    6.0416 N.am      3 UNK        -0.4305 
     75 C         -44.7723  -27.3581    4.8348 C.2       2 UNK         0.5006 
     76 O         -44.6644  -26.7364    3.7772 O.2       2 UNK        -0.5106 
     77 CA        -45.1983  -28.8359    4.7959 C.3       2 UNK         0.0296 
     78 CB        -43.9792  -29.7387    4.5447 C.3       2 UNK        -0.2002 
     79 N         -45.8884  -29.2821    6.0109 N.am      2 UNK        -0.4032 
     80 C         -47.1265  -28.9086    6.3697 C.2       1 UNK         0.5000 
     81 O         -47.8106  -28.1124    5.7241 O.2       1 UNK        -0.5238 
     82 H82       -44.5364  -27.4774   10.4007 H         1 UNK         0.0889 
     83 H83       -44.9066  -29.1871   10.6088 H         1 UNK         0.0889 
     84 H84       -45.9204  -27.9655   11.3805 H         1 UNK         0.0889 
     85 H85       -46.6056  -30.1160    9.4021 H         1 UNK         0.3028 
     86 H86       -47.5435  -30.6046    7.5037 H         1 UNK         0.0864 
     87 H87       -49.7402  -29.6265    7.0509 H         1 UNK         0.0720 
     88 H88       -49.4780  -30.0618    8.7086 H         1 UNK         0.0720 
     89 H89       -51.4824  -28.9296    9.6347 H         1 UNK         0.0814 
     90 H90       -51.9404  -28.6130    7.9781 H         1 UNK         0.0814 
     91 H91       -51.8531  -25.7568    7.6022 H         1 UNK         0.1469 
     92 H92       -54.7336  -24.0881   10.3052 H         1 UNK         0.1381 
     93 H93       -53.0884  -27.9702   11.0665 H         1 UNK         0.1206 
     94 H94       -54.7614  -25.2445   12.6631 H         1 UNK         0.0813 
     95 H95       -54.5585  -26.9774   12.7007 H         1 UNK         0.0813 
     96 H96       -55.7537  -28.5843   11.3713 H         1 UNK         0.0638 
     97 H97       -56.7508  -28.1123   10.0228 H         1 UNK         0.0638 
     98 H98       -58.7981  -28.3826   11.3506 H         1 UNK         0.0568 
     99 H99       -58.6730  -31.0562   13.0151 H         1 UNK         0.3450 
    100 H100      -58.5082  -32.2225   11.7257 H         1 UNK         0.3450 
    101 H101      -58.8088  -28.1806   13.5250 H         1 UNK         0.2987 
    102 H102      -57.8176  -27.6687   15.5535 H         1 UNK         0.0766 
    103 H103      -59.2346  -29.7292   15.7596 H         1 UNK         0.0798 
    104 H104      -58.4443  -29.3884   17.2898 H         1 UNK         0.0798 
    105 H105      -57.8322  -30.6725   16.2492 H         1 UNK         0.0798 
    106 H106      -55.3742  -29.2482   15.8978 H         1 UNK         0.3198 
    107 H107      -53.8282  -26.7305   17.6269 H         1 UNK         0.0843 
    108 H108      -54.6237  -29.2441   19.1990 H         1 UNK         0.0831 
    109 H109      -54.8365  -27.5859   19.7407 H         1 UNK         0.0831 
    110 H110      -53.2179  -28.2266   19.5219 H         1 UNK         0.0831 
    111 H111      -53.1540  -29.5216   17.2363 H         1 UNK         0.3133 
    112 H112      -51.5060  -29.9600   15.7604 H         1 UNK         0.0566 
    113 H113      -52.1069  -30.8917   13.4872 H         1 UNK         0.0814 
    114 H114      -53.2196  -29.5484   13.2302 H         1 UNK         0.0814 
    115 H115      -53.5326  -30.7256   14.4971 H         1 UNK         0.0814 
    116 H116      -51.0830  -27.6197   14.1415 H         1 UNK         0.3091 
    117 H117      -47.6751  -28.4370   13.5481 H         1 UNK         0.0702 
    118 H118      -48.2537  -27.3320   11.3531 H         1 UNK         0.0785 
    119 H119      -49.9449  -27.7190   11.6064 H         1 UNK         0.0785 
    120 H120      -48.7718  -29.0101   11.3868 H         1 UNK         0.0785 
    121 H121      -49.0163  -25.9950   13.2263 H         1 UNK         0.2998 
    122 H122      -49.0011  -24.8600   16.6280 H         1 UNK         0.0697 
    123 H123      -47.4319  -23.9993   14.1439 H         1 UNK         0.0825 
    124 H124      -46.7380  -24.3851   15.7121 H         1 UNK         0.0825 
    125 H125      -47.7951  -22.9923   15.5408 H         1 UNK         0.0825 
    126 H126      -49.9375  -24.2571   13.8482 H         1 UNK         0.3029 
    127 H127      -53.1355  -24.6149   14.5997 H         1 UNK         0.0897 
    128 H128      -52.4499  -21.6630   15.0124 H         1 UNK         0.0792 
    129 H129      -53.5043  -22.6506   16.0067 H         1 UNK         0.0792 
    130 H130      -53.9736  -22.2678   14.3595 H         1 UNK         0.0792 
    131 H131      -52.4508  -24.5054   12.5222 H         1 UNK         0.3086 
    132 H132      -51.4948  -24.0928   10.7190 H         1 UNK         0.0583 
    133 H133      -53.0150  -22.0878   10.3641 H         1 UNK         0.1020 
    134 H134      -51.6076  -21.0732   10.2072 H         1 UNK         0.1020 
    135 H135      -54.2410  -22.9343    8.2566 H         1 UNK         0.0694 
    136 H136      -53.4182  -23.7834    6.9717 H         1 UNK         0.0694 
    137 H137      -49.4728  -22.5617    9.7332 H         1 UNK         0.2989 
    138 H138      -47.0969  -22.7836   10.3765 H         1 UNK         0.1055 
    139 H139      -45.3643  -24.5768   10.6878 H         1 UNK         0.0806 
    140 H140      -46.5976  -25.6446   11.3496 H         1 UNK         0.0806 
    141 H141      -46.1703  -24.1621   12.1894 H         1 UNK         0.0806 
    142 H142      -47.1491  -25.3230    8.9262 H         1 UNK         0.3061 
    143 H143      -48.6699  -25.2870    6.7777 H         1 UNK         0.0734 
    144 H144      -47.7573  -22.7534    5.3095 H         1 UNK         0.0832 
    145 H145      -48.4016  -24.2032    4.5380 H         1 UNK         0.0832 
    146 H146      -49.4152  -23.2476    5.6090 H         1 UNK         0.0832 
    147 H147      -46.6524  -26.1156    6.5328 H         1 UNK         0.3156 
    148 H148      -43.5537  -25.0662    5.4825 H         1 UNK         0.0589 
    149 H149      -44.0820  -25.6066    8.4568 H         1 UNK         0.0808 
    150 H150      -43.1579  -24.2662    7.7989 H         1 UNK         0.0808 
    151 H151      -42.5588  -25.9065    7.6179 H         1 UNK         0.0808 
    152 H152      -44.6852  -27.3961    6.8612 H         1 UNK         0.3098 
    153 H153      -45.8868  -28.9533    3.9561 H         1 UNK         0.0720 
    154 H154      -43.4607  -29.4481    3.6298 H         1 UNK         0.0791 
    155 H155      -44.2741  -30.7819    4.4289 H         1 UNK         0.0791 
    156 H156      -43.2571  -29.6808    5.3602 H         1 UNK         0.0791 
    157 H157      -45.3908  -29.9321    6.6028 H         1 UNK         0.3028 
@<TRIPOS>BOND
     1    1    2 1    
     2    1   82 1    
     3    1   83 1    
     4    1   84 1    
     5    2    3 2    
     6    2    4 am   BACKBONE|DICT|INTERRES
     7    4    5 1    
     8    4   85 1    
     9    5    6 1    
    10    5   80 1    
    11    5   86 1    
    12    6    7 1    
    13    6   87 1    
    14    6   88 1    
    15    7    8 1    
    16    8    9 1    
    17    8   89 1    
    18    8   90 1    
    19    9   10 ar   
    20    9   14 ar   
    21   10   11 ar   
    22   10   91 1    
    23   11   12 ar   
    24   11   58 1    
    25   12   13 ar   
    26   12   92 1    
    27   13   14 ar   
    28   13   15 1    
    29   14   93 1    
    30   15   16 1    
    31   15   94 1    
    32   15   95 1    
    33   16   17 1    
    34   17   18 1    
    35   17   96 1    
    36   17   97 1    
    37   18   19 1    
    38   18   22 1    
    39   18   98 1    
    40   19   20 am   BACKBONE|DICT|INTERRES
    41   19   21 2    
    42   20   99 1    
    43   20  100 1    
    44   22   23 am   BACKBONE|DICT|INTERRES
    45   22  101 1    
    46   23   24 2    
    47   23   25 1    
    48   25   26 1    
    49   25   27 1    
    50   25  102 1    
    51   26  103 1    
    52   26  104 1    
    53   26  105 1    
    54   27   28 am   BACKBONE|DICT|INTERRES
    55   27  106 1    
    56   28   29 2    
    57   28   30 1    
    58   30   31 1    
    59   30   32 1    
    60   30  107 1    
    61   31  108 1    
    62   31  109 1    
    63   31  110 1    
    64   32   33 am   BACKBONE|DICT|INTERRES
    65   32  111 1    
    66   33   34 2    
    67   33   35 1    
    68   35   36 1    
    69   35   37 1    
    70   35  112 1    
    71   36  113 1    
    72   36  114 1    
    73   36  115 1    
    74   37   38 am   BACKBONE|DICT|INTERRES
    75   37  116 1    
    76   38   39 2    
    77   38   40 1    
    78   40   41 1    
    79   40   42 1    
    80   40  117 1    
    81   41  118 1    
    82   41  119 1    
    83   41  120 1    
    84   42   43 am   BACKBONE|DICT|INTERRES
    85   42  121 1    
    86   43   44 2    
    87   43   45 1    
    88   45   46 1    
    89   45   47 1    
    90   45  122 1    
    91   46  123 1    
    92   46  124 1    
    93   46  125 1    
    94   47   48 am   BACKBONE|DICT|INTERRES
    95   47  126 1    
    96   48   49 2    
    97   48   50 1    
    98   50   51 1    
    99   50   52 1    
   100   50  127 1    
   101   51  128 1    
   102   51  129 1    
   103   51  130 1    
   104   52   53 am   BACKBONE|DICT|INTERRES
   105   52  131 1    
   106   53   54 2    
   107   53   55 1    
   108   55   56 1    
   109   55   59 1    
   110   55  132 1    
   111   56   57 1    
   112   56  133 1    
   113   56  134 1    
   114   57   58 1    
   115   58  135 1    
   116   58  136 1    
   117   59   60 am   BACKBONE|DICT|INTERRES
   118   59  137 1    
   119   60   61 2    
   120   60   62 1    
   121   62   63 1    
   122   62   64 1    
   123   62  138 1    
   124   63  139 1    
   125   63  140 1    
   126   63  141 1    
   127   64   65 am   BACKBONE|DICT|INTERRES
   128   64  142 1    
   129   65   66 2    
   130   65   67 1    
   131   67   68 1    
   132   67   69 1    
   133   67  143 1    
   134   68  144 1    
   135   68  145 1    
   136   68  146 1    
   137   69   70 am   BACKBONE|DICT|INTERRES
   138   69  147 1    
   139   70   71 2    
   140   70   72 1    
   141   72   73 1    
   142   72   74 1    
   143   72  148 1    
   144   73  149 1    
   145   73  150 1    
   146   73  151 1    
   147   74   75 am   BACKBONE|DICT|INTERRES
   148   74  152 1    
   149   75   76 2    
   150   75   77 1    
   151   77   78 1    
   152   77   79 1    
   153   77  153 1    
   154   78  154 1    
   155   78  155 1    
   156   78  156 1    
   157   79   80 am   BACKBONE|DICT|INTERRES
   158   79  157 1    
   159   80   81 2    
@<TRIPOS>SUBSTRUCTURE
     1 UNK         1 GROUP             0       ****    0 ROOT    
