@<TRIPOS>MOLECULE
3R207
157   159    1
SMALL
USER_CHARGES


@<TRIPOS>ATOM
      1 CA        -46.4855  -32.4761    9.0926 C.3       0 UNK        -0.1975 
      2 C         -46.8138  -31.5005    7.9721 C.2       0 UNK         0.4852 
      3 O         -46.1653  -31.5302    6.9256 O.2       0 UNK        -0.5216 
      4 N         -47.8145  -30.6349    8.1855 N.am      1 UNK        -0.4461 
      5 CA        -48.2857  -29.6331    7.2173 C.3       1 UNK         0.0864 
      6 C6        -49.6760  -29.0717    7.6053 C.3       14 UNK        -0.0898 
      7 S7        -50.9469  -30.3800    7.5702 S.3       14 UNK        -0.2598 
      8 C8        -52.2032  -29.6652    6.4636 C.3       14 UNK         0.0286 
      9 C9        -53.0750  -28.6471    7.1852 C.ar      14 UNK        -0.0844 
     10 C10       -52.9224  -27.2775    6.9485 C.ar      14 UNK        -0.0881 
     11 C11       -53.7423  -26.3464    7.5974 C.ar      14 UNK        -0.0643 
     12 C12       -54.7242  -26.8022    8.4866 C.ar      14 UNK        -0.0930 
     13 C13       -54.8899  -28.1711    8.7287 C.ar      14 UNK        -0.0827 
     14 C14       -54.0608  -29.0854    8.0734 C.ar      14 UNK        -0.1249 
     15 C15       -55.9844  -28.6762    9.6629 C.3       14 UNK         0.0141 
     16 S16       -55.7214  -28.1424   11.3815 S.3       14 UNK        -0.2313 
     17 C17       -56.8244  -29.2643   12.3131 C.3       14 UNK        -0.0915 
     18 CA        -56.1178  -30.0417   13.4659 C.3       13 UNK         0.0968 
     19 C         -55.0248  -31.0485   13.0068 C.2       13 UNK         0.5732 
     20 N         -55.2734  -31.8068   11.9467 N.am      13 UNK        -0.7310 
     21 O         -53.9701  -31.1911   13.6220 O.2       13 UNK        -0.5035 
     22 N         -55.6349  -29.1330   14.5157 N.am      13 UNK        -0.4233 
     23 C         -56.3391  -28.7412   15.5833 C.2       13 UNK         0.4989 
     24 O         -57.4685  -29.1651   15.8389 O.2       13 UNK        -0.4996 
     25 CA        -55.7182  -27.6621   16.4960 C.3       12 UNK         0.0216 
     26 CB        -56.3280  -27.6434   17.9152 C.3       12 UNK        -0.1964 
     27 N         -54.2514  -27.6689   16.5491 N.am      12 UNK        -0.4276 
     28 C         -53.4436  -28.6005   17.0788 C.2       12 UNK         0.5020 
     29 O         -53.8535  -29.6294   17.6185 O.2       12 UNK        -0.5489 
     30 CA        -51.9183  -28.3550   17.0118 C.3       11 UNK         0.0294 
     31 CB        -51.2014  -29.5319   16.3269 C.3       11 UNK        -0.2019 
     32 N         -51.5502  -27.1129   16.3229 N.am      11 UNK        -0.4493 
     33 C         -51.5122  -25.8940   16.8805 C.2       11 UNK         0.4932 
     34 O         -51.6972  -25.6853   18.0792 O.2       11 UNK        -0.5029 
     35 CA        -51.2852  -24.6975   15.9320 C.3       10 UNK         0.0280 
     36 CB        -49.7887  -24.3794   15.7889 C.3       10 UNK        -0.1976 
     37 N         -51.8803  -24.9007   14.6061 N.am      10 UNK        -0.4242 
     38 C         -53.1954  -25.0503   14.3860 C.2       10 UNK         0.5072 
     39 O         -54.0528  -24.9243   15.2598 O.2       10 UNK        -0.5224 
     40 CA        -53.6242  -25.5071   12.9848 C.3       9 UNK         0.0343 
     41 CB        -53.8579  -24.3092   12.0530 C.3       9 UNK        -0.2003 
     42 N         -52.6612  -26.4431   12.3953 N.am      9 UNK        -0.4272 
     43 C         -52.4856  -27.6987   12.8338 C.2       9 UNK         0.4988 
     44 O         -53.1260  -28.1768   13.7648 O.2       9 UNK        -0.5108 
     45 CA        -51.3983  -28.5554   12.1652 C.3       8 UNK         0.0248 
     46 CB        -51.9406  -29.2129   10.8901 C.3       8 UNK        -0.2001 
     47 N         -50.1872  -27.7983   11.8527 N.am      8 UNK        -0.4140 
     48 C         -49.3800  -27.2460   12.7695 C.2       8 UNK         0.5028 
     49 O         -49.5097  -27.4139   13.9816 O.2       8 UNK        -0.5428 
     50 CA        -48.2897  -26.2903   12.2442 C.3       7 UNK         0.0264 
     51 CB        -46.9777  -27.0469   11.9954 C.3       7 UNK        -0.1988 
     52 N         -48.6787  -25.5684   11.0242 N.am      7 UNK        -0.4454 
     53 C         -49.7554  -24.7754   10.9317 C.2       7 UNK         0.5027 
     54 O         -50.5031  -24.5410   11.8823 O.2       7 UNK        -0.5083 
     55 CA        -50.0815  -24.2117    9.5368 C.3       6 UNK         0.0844 
     56 C56       -51.5826  -24.3954    9.1865 C.3       14 UNK        -0.0967 
     57 S57       -51.9029  -24.2189    7.4055 S.3       14 UNK        -0.2604 
     58 C58       -53.6128  -24.8529    7.3007 C.3       14 UNK         0.0134 
     59 N         -49.5798  -22.8394    9.4292 N.am      6 UNK        -0.4116 
     60 C         -49.9817  -21.7523   10.1088 C.2       5 UNK         0.5034 
     61 O         -51.0146  -21.6837   10.7763 O.2       5 UNK        -0.5045 
     62 CA        -49.0322  -20.5355   10.0395 C.3       5 UNK         0.0224 
     63 CB        -49.2845  -19.5081   11.1639 C.3       5 UNK        -0.1978 
     64 N         -47.6157  -20.9340   10.0035 N.am      5 UNK        -0.4737 
     65 C         -46.9463  -21.6640   10.9103 C.2       4 UNK         0.5027 
     66 O         -47.4090  -22.0051   11.9990 O.2       4 UNK        -0.5211 
     67 CA        -45.5517  -22.1580   10.4762 C.3       4 UNK         0.0297 
     68 CB        -44.8496  -22.9864   11.5687 C.3       4 UNK        -0.1993 
     69 N         -45.6500  -22.9724    9.2609 N.am      4 UNK        -0.4486 
     70 C         -45.7867  -22.5059    8.0141 C.2       3 UNK         0.4961 
     71 O         -45.7845  -21.3019    7.7520 O.2       3 UNK        -0.5105 
     72 CA        -46.0171  -23.5284    6.8808 C.3       3 UNK         0.0299 
     73 CB        -45.4592  -23.0271    5.5356 C.3       3 UNK        -0.1972 
     74 N         -45.4913  -24.8744    7.1338 N.am      3 UNK        -0.4305 
     75 C         -46.0155  -25.7916    7.9552 C.2       2 UNK         0.5006 
     76 O         -46.9387  -25.5689    8.7444 O.2       2 UNK        -0.5106 
     77 CA        -45.3710  -27.1851    7.9082 C.3       2 UNK         0.0296 
     78 CB        -44.3714  -27.3673    9.0609 C.3       2 UNK        -0.2002 
     79 N         -46.3795  -28.2445    7.9573 N.am      2 UNK        -0.4032 
     80 C         -47.2781  -28.4858    6.9894 C.2       1 UNK         0.5000 
     81 O         -47.3277  -27.8518    5.9331 O.2       1 UNK        -0.5238 
     82 H82       -45.4547  -32.3402    9.4184 H         1 UNK         0.0889 
     83 H83       -46.5999  -33.5014    8.7418 H         1 UNK         0.0889 
     84 H84       -47.1354  -32.3395    9.9568 H         1 UNK         0.0889 
     85 H85       -48.3360  -30.6843    9.0491 H         1 UNK         0.3028 
     86 H86       -48.3878  -30.1366    6.2530 H         1 UNK         0.0864 
     87 H87       -49.6548  -28.6298    8.6027 H         1 UNK         0.0720 
     88 H88       -49.9716  -28.2701    6.9256 H         1 UNK         0.0720 
     89 H89       -52.8351  -30.4713    6.0880 H         1 UNK         0.0814 
     90 H90       -51.7238  -29.2262    5.5873 H         1 UNK         0.0814 
     91 H91       -52.1720  -26.9328    6.2504 H         1 UNK         0.1469 
     92 H92       -55.3730  -26.0946    8.9846 H         1 UNK         0.1381 
     93 H93       -54.1808  -30.1457    8.2506 H         1 UNK         0.1206 
     94 H94       -56.0314  -29.7656    9.6309 H         1 UNK         0.0813 
     95 H95       -56.9537  -28.3136    9.3183 H         1 UNK         0.0813 
     96 H96       -57.6328  -28.6597   12.7267 H         1 UNK         0.0638 
     97 H97       -57.3126  -29.9583   11.6282 H         1 UNK         0.0638 
     98 H98       -56.8711  -30.6886   13.9182 H         1 UNK         0.0568 
     99 H99       -56.1422  -31.7343   11.4432 H         1 UNK         0.3450 
    100 H100      -54.5785  -32.4753   11.6550 H         1 UNK         0.3450 
    101 H101      -54.6872  -28.7839   14.3693 H         1 UNK         0.2987 
    102 H102      -55.9821  -26.7132   16.0275 H         1 UNK         0.0766 
    103 H103      -56.1797  -28.5913   18.4330 H         1 UNK         0.0798 
    104 H104      -55.8885  -26.8542   18.5253 H         1 UNK         0.0798 
    105 H105      -57.4025  -27.4598   17.8781 H         1 UNK         0.0798 
    106 H106      -53.8130  -26.8674   16.1108 H         1 UNK         0.3198 
    107 H107      -51.5604  -28.3005   18.0420 H         1 UNK         0.0843 
    108 H108      -51.3594  -30.4599   16.8776 H         1 UNK         0.0831 
    109 H109      -50.1252  -29.3665   16.2720 H         1 UNK         0.0831 
    110 H110      -51.5680  -29.6929   15.3130 H         1 UNK         0.0831 
    111 H111      -51.3309  -27.1980   15.3371 H         1 UNK         0.3133 
    112 H112      -51.7719  -23.8276   16.3778 H         1 UNK         0.0566 
    113 H113      -49.6245  -23.5193   15.1390 H         1 UNK         0.0814 
    114 H114      -49.3488  -24.1425   16.7585 H         1 UNK         0.0814 
    115 H115      -49.2309  -25.2203   15.3784 H         1 UNK         0.0814 
    116 H116      -51.2506  -24.9723   13.8134 H         1 UNK         0.3091 
    117 H117      -54.5762  -26.0305   13.0926 H         1 UNK         0.0702 
    118 H118      -54.1498  -24.6339   11.0542 H         1 UNK         0.0785 
    119 H119      -52.9715  -23.6807   11.9660 H         1 UNK         0.0785 
    120 H120      -54.6608  -23.6775   12.4347 H         1 UNK         0.0785 
    121 H121      -52.0290  -26.0652   11.7050 H         1 UNK         0.2998 
    122 H122      -51.1288  -29.3488   12.8654 H         1 UNK         0.0697 
    123 H123      -52.1418  -28.4782   10.1098 H         1 UNK         0.0825 
    124 H124      -52.8750  -29.7408   11.0866 H         1 UNK         0.0825 
    125 H125      -51.2367  -29.9445   10.4955 H         1 UNK         0.0825 
    126 H126      -49.9976  -27.6155   10.8795 H         1 UNK         0.3029 
    127 H127      -48.1127  -25.5444   13.0221 H         1 UNK         0.0897 
    128 H128      -46.1708  -26.3568   11.7500 H         1 UNK         0.0792 
    129 H129      -46.6696  -27.5995   12.8842 H         1 UNK         0.0792 
    130 H130      -47.0729  -27.7638   11.1793 H         1 UNK         0.0792 
    131 H131      -48.0798  -25.6809   10.2072 H         1 UNK         0.3086 
    132 H132      -49.5093  -24.7965    8.8147 H         1 UNK         0.0583 
    133 H133      -51.9227  -25.3896    9.4818 H         1 UNK         0.1020 
    134 H134      -52.2100  -23.6878    9.7272 H         1 UNK         0.1020 
    135 H135      -54.2416  -24.2684    7.9743 H         1 UNK         0.0694 
    136 H136      -53.9891  -24.6685    6.2938 H         1 UNK         0.0694 
    137 H137      -48.7182  -22.7502    8.9136 H         1 UNK         0.2989 
    138 H138      -49.2424  -20.0428    9.0887 H         1 UNK         0.1055 
    139 H139      -48.6031  -18.6609   11.0882 H         1 UNK         0.0806 
    140 H140      -49.1614  -19.9512   12.1527 H         1 UNK         0.0806 
    141 H141      -50.2994  -19.1120   11.1109 H         1 UNK         0.0806 
    142 H142      -47.1204  -20.7323    9.1385 H         1 UNK         0.3061 
    143 H143      -44.9373  -21.2783   10.2725 H         1 UNK         0.0734 
    144 H144      -44.7296  -22.4035   12.4829 H         1 UNK         0.0832 
    145 H145      -45.4175  -23.8816   11.8254 H         1 UNK         0.0832 
    146 H146      -43.8544  -23.2990   11.2524 H         1 UNK         0.0832 
    147 H147      -45.7654  -23.9701    9.3908 H         1 UNK         0.3156 
    148 H148      -47.0999  -23.6177    6.7712 H         1 UNK         0.0589 
    149 H149      -44.3789  -22.8824    5.5771 H         1 UNK         0.0808 
    150 H150      -45.6744  -23.7285    4.7291 H         1 UNK         0.0808 
    151 H151      -45.9052  -22.0729    5.2517 H         1 UNK         0.0808 
    152 H152      -44.6989  -25.1449    6.5684 H         1 UNK         0.3098 
    153 H153      -44.8283  -27.2901    6.9662 H         1 UNK         0.0720 
    154 H154      -43.8630  -28.3295    8.9948 H         1 UNK         0.0791 
    155 H155      -44.8564  -27.3130   10.0342 H         1 UNK         0.0791 
    156 H156      -43.6016  -26.5946    9.0379 H         1 UNK         0.0791 
    157 H157      -46.4116  -28.8100    8.7916 H         1 UNK         0.3028 
@<TRIPOS>BOND
     1    1    2 1    
     2    1   82 1    
     3    1   83 1    
     4    1   84 1    
     5    2    3 2    
     6    2    4 am   BACKBONE|DICT|INTERRES
     7    4    5 1    
     8    4   85 1    
     9    5    6 1    
    10    5   80 1    
    11    5   86 1    
    12    6    7 1    
    13    6   87 1    
    14    6   88 1    
    15    7    8 1    
    16    8    9 1    
    17    8   89 1    
    18    8   90 1    
    19    9   10 ar   
    20    9   14 ar   
    21   10   11 ar   
    22   10   91 1    
    23   11   12 ar   
    24   11   58 1    
    25   12   13 ar   
    26   12   92 1    
    27   13   14 ar   
    28   13   15 1    
    29   14   93 1    
    30   15   16 1    
    31   15   94 1    
    32   15   95 1    
    33   16   17 1    
    34   17   18 1    
    35   17   96 1    
    36   17   97 1    
    37   18   19 1    
    38   18   22 1    
    39   18   98 1    
    40   19   20 am   BACKBONE|DICT|INTERRES
    41   19   21 2    
    42   20   99 1    
    43   20  100 1    
    44   22   23 am   BACKBONE|DICT|INTERRES
    45   22  101 1    
    46   23   24 2    
    47   23   25 1    
    48   25   26 1    
    49   25   27 1    
    50   25  102 1    
    51   26  103 1    
    52   26  104 1    
    53   26  105 1    
    54   27   28 am   BACKBONE|DICT|INTERRES
    55   27  106 1    
    56   28   29 2    
    57   28   30 1    
    58   30   31 1    
    59   30   32 1    
    60   30  107 1    
    61   31  108 1    
    62   31  109 1    
    63   31  110 1    
    64   32   33 am   BACKBONE|DICT|INTERRES
    65   32  111 1    
    66   33   34 2    
    67   33   35 1    
    68   35   36 1    
    69   35   37 1    
    70   35  112 1    
    71   36  113 1    
    72   36  114 1    
    73   36  115 1    
    74   37   38 am   BACKBONE|DICT|INTERRES
    75   37  116 1    
    76   38   39 2    
    77   38   40 1    
    78   40   41 1    
    79   40   42 1    
    80   40  117 1    
    81   41  118 1    
    82   41  119 1    
    83   41  120 1    
    84   42   43 am   BACKBONE|DICT|INTERRES
    85   42  121 1    
    86   43   44 2    
    87   43   45 1    
    88   45   46 1    
    89   45   47 1    
    90   45  122 1    
    91   46  123 1    
    92   46  124 1    
    93   46  125 1    
    94   47   48 am   BACKBONE|DICT|INTERRES
    95   47  126 1    
    96   48   49 2    
    97   48   50 1    
    98   50   51 1    
    99   50   52 1    
   100   50  127 1    
   101   51  128 1    
   102   51  129 1    
   103   51  130 1    
   104   52   53 am   BACKBONE|DICT|INTERRES
   105   52  131 1    
   106   53   54 2    
   107   53   55 1    
   108   55   56 1    
   109   55   59 1    
   110   55  132 1    
   111   56   57 1    
   112   56  133 1    
   113   56  134 1    
   114   57   58 1    
   115   58  135 1    
   116   58  136 1    
   117   59   60 am   BACKBONE|DICT|INTERRES
   118   59  137 1    
   119   60   61 2    
   120   60   62 1    
   121   62   63 1    
   122   62   64 1    
   123   62  138 1    
   124   63  139 1    
   125   63  140 1    
   126   63  141 1    
   127   64   65 am   BACKBONE|DICT|INTERRES
   128   64  142 1    
   129   65   66 2    
   130   65   67 1    
   131   67   68 1    
   132   67   69 1    
   133   67  143 1    
   134   68  144 1    
   135   68  145 1    
   136   68  146 1    
   137   69   70 am   BACKBONE|DICT|INTERRES
   138   69  147 1    
   139   70   71 2    
   140   70   72 1    
   141   72   73 1    
   142   72   74 1    
   143   72  148 1    
   144   73  149 1    
   145   73  150 1    
   146   73  151 1    
   147   74   75 am   BACKBONE|DICT|INTERRES
   148   74  152 1    
   149   75   76 2    
   150   75   77 1    
   151   77   78 1    
   152   77   79 1    
   153   77  153 1    
   154   78  154 1    
   155   78  155 1    
   156   78  156 1    
   157   79   80 am   BACKBONE|DICT|INTERRES
   158   79  157 1    
   159   80   81 2    
@<TRIPOS>SUBSTRUCTURE
     1 UNK         1 GROUP             0       ****    0 ROOT    
