@<TRIPOS>MOLECULE
3R207
157   159    1
SMALL
USER_CHARGES


@<TRIPOS>ATOM
      1 CA        -49.0958  -31.3255    2.7634 C.3       0 UNK        -0.1975 
      2 C         -48.6845  -30.3815    3.8840 C.2       0 UNK         0.4852 
      3 O         -47.5088  -30.0268    3.9781 O.2       0 UNK        -0.5216 
      4 N         -49.6457  -29.9799    4.7279 N.am      1 UNK        -0.4461 
      5 CA        -49.4927  -29.0610    5.8624 C.3       1 UNK         0.0864 
      6 C6        -48.6177  -29.6340    7.0162 C.3       14 UNK        -0.0898 
      7 S7        -49.4157  -31.0386    7.8696 S.3       14 UNK        -0.2598 
      8 C8        -49.4600  -30.4716    9.6093 C.3       14 UNK         0.0286 
      9 C9        -50.7167  -29.6806    9.9645 C.ar      14 UNK        -0.0844 
     10 C10       -51.0839  -28.5488    9.2316 C.ar      14 UNK        -0.0881 
     11 C11       -52.2305  -27.8190    9.5553 C.ar      14 UNK        -0.0643 
     12 C12       -53.0040  -28.2141   10.6481 C.ar      14 UNK        -0.0930 
     13 C13       -52.6471  -29.3366   11.4013 C.ar      14 UNK        -0.0827 
     14 C14       -51.5048  -30.0656   11.0549 C.ar      14 UNK        -0.1249 
     15 C15       -53.4888  -29.7474   12.6002 C.3       14 UNK         0.0141 
     16 S16       -54.4870  -31.2387   12.2991 S.3       14 UNK        -0.2313 
     17 C17       -55.5603  -30.7665   10.8946 C.3       14 UNK        -0.0915 
     18 CA        -56.9566  -30.1890   11.2597 C.3       13 UNK         0.0968 
     19 C         -57.7773  -31.0965   12.2226 C.2       13 UNK         0.5732 
     20 N         -58.2481  -32.2395   11.7419 N.am      13 UNK        -0.7310 
     21 O         -57.9729  -30.7895   13.3980 O.2       13 UNK        -0.5035 
     22 N         -56.8715  -28.7870   11.6959 N.am      13 UNK        -0.4233 
     23 C         -57.9103  -27.9419   11.7201 C.2       13 UNK         0.4989 
     24 O         -59.0424  -28.2419   11.3349 O.2       13 UNK        -0.4996 
     25 CA        -57.6365  -26.5291   12.2664 C.3       12 UNK         0.0216 
     26 CB        -58.9021  -25.6501   12.3047 C.3       12 UNK        -0.1964 
     27 N         -57.0657  -26.5943   13.6131 N.am      12 UNK        -0.4276 
     28 C         -55.7599  -26.5388   13.8917 C.2       12 UNK         0.5020 
     29 O         -54.8773  -26.4524   13.0348 O.2       12 UNK        -0.5489 
     30 CA        -55.3722  -26.6266   15.3699 C.3       11 UNK         0.0294 
     31 CB        -55.2997  -28.0904   15.8408 C.3       11 UNK        -0.2019 
     32 N         -54.0717  -25.9888   15.5435 N.am      11 UNK        -0.4493 
     33 C         -53.6609  -25.3483   16.6430 C.2       11 UNK         0.4932 
     34 O         -54.3398  -25.2450   17.6668 O.2       11 UNK        -0.5029 
     35 CA        -52.2555  -24.7193   16.5761 C.3       10 UNK         0.0280 
     36 CB        -51.7649  -24.1779   17.9356 C.3       10 UNK        -0.1976 
     37 N         -51.2583  -25.6183   15.9857 N.am      10 UNK        -0.4242 
     38 C         -50.8787  -26.8259   16.4322 C.2       10 UNK         0.5072 
     39 O         -51.3429  -27.3794   17.4300 O.2       10 UNK        -0.5224 
     40 CA        -49.7733  -27.5350   15.6316 C.3       9 UNK         0.0343 
     41 CB        -50.3688  -28.2660   14.4175 C.3       9 UNK        -0.2003 
     42 N         -48.7155  -26.6214   15.1916 N.am      9 UNK        -0.4272 
     43 C         -47.8556  -26.0000   16.0133 C.2       9 UNK         0.4988 
     44 O         -47.8190  -26.1787   17.2314 O.2       9 UNK        -0.5108 
     45 CA        -46.8697  -25.0060   15.3743 C.3       8 UNK         0.0248 
     46 CB        -45.6707  -25.7467   14.7614 C.3       8 UNK        -0.2001 
     47 N         -47.4992  -24.1494   14.3657 N.am      8 UNK        -0.4140 
     48 C         -48.4294  -23.2213   14.6368 C.2       8 UNK         0.5028 
     49 O         -48.8025  -22.9351   15.7747 O.2       8 UNK        -0.5428 
     50 CA        -49.0745  -22.5026   13.4392 C.3       7 UNK         0.0264 
     51 CB        -48.2046  -21.3242   12.9739 C.3       7 UNK        -0.1988 
     52 N         -49.3442  -23.3927   12.3078 N.am      7 UNK        -0.4454 
     53 C         -50.1875  -24.4366   12.3399 C.2       7 UNK         0.5027 
     54 O         -50.8599  -24.7451   13.3243 O.2       7 UNK        -0.5083 
     55 CA        -50.2610  -25.3015   11.0660 C.3       6 UNK         0.0844 
     56 C56       -51.1702  -24.6036   10.0206 C.3       14 UNK        -0.0967 
     57 S57       -51.2853  -25.4554    8.4155 S.3       14 UNK        -0.2604 
     58 C58       -52.6496  -26.6246    8.7076 C.3       14 UNK         0.0134 
     59 N         -48.9176  -25.6394   10.5745 N.am      6 UNK        -0.4116 
     60 C         -48.0016  -26.3186   11.2855 C.2       5 UNK         0.5034 
     61 O         -48.2222  -26.8175   12.3875 O.2       5 UNK        -0.5045 
     62 CA        -46.5735  -26.3924   10.7246 C.3       5 UNK         0.0224 
     63 CB        -46.3899  -27.5945    9.7880 C.3       5 UNK        -0.1978 
     64 N         -46.1962  -25.1560   10.0415 N.am      5 UNK        -0.4737 
     65 C         -45.8895  -24.0165   10.6761 C.2       4 UNK         0.5027 
     66 O         -45.8408  -23.9124   11.9012 O.2       4 UNK        -0.5211 
     67 CA        -45.6324  -22.7782    9.8001 C.3       4 UNK         0.0297 
     68 CB        -44.1606  -22.7253    9.3619 C.3       4 UNK        -0.1993 
     69 N         -46.4988  -22.7282    8.6193 N.am      4 UNK        -0.4486 
     70 C         -47.8296  -22.5769    8.6668 C.2       3 UNK         0.4961 
     71 O         -48.4603  -22.4060    9.7105 O.2       3 UNK        -0.5105 
     72 CA        -48.5909  -22.6825    7.3321 C.3       3 UNK         0.0299 
     73 CB        -48.6678  -21.3077    6.6499 C.3       3 UNK        -0.1972 
     74 N         -48.0473  -23.6714    6.3886 N.am      3 UNK        -0.4305 
     75 C         -47.8684  -24.9727    6.6565 C.2       2 UNK         0.5006 
     76 O         -48.0392  -25.4707    7.7701 O.2       2 UNK        -0.5106 
     77 CA        -47.3534  -25.8602    5.5134 C.3       2 UNK         0.0296 
     78 CB        -45.8160  -25.8671    5.5011 C.3       2 UNK        -0.2002 
     79 N         -47.8328  -27.2329    5.6874 N.am      2 UNK        -0.4032 
     80 C         -49.0693  -27.6525    5.3835 C.2       1 UNK         0.5000 
     81 O         -49.8841  -26.9696    4.7583 O.2       1 UNK        -0.5238 
     82 H82       -50.1587  -31.5638    2.7989 H         1 UNK         0.0889 
     83 H83       -48.5371  -32.2582    2.8357 H         1 UNK         0.0889 
     84 H84       -48.8816  -30.8738    1.7951 H         1 UNK         0.0889 
     85 H85       -50.5909  -30.3013    4.5721 H         1 UNK         0.3028 
     86 H86       -50.5018  -28.9266    6.2541 H         1 UNK         0.0864 
     87 H87       -47.6443  -29.9641    6.6508 H         1 UNK         0.0720 
     88 H88       -48.4133  -28.8624    7.7564 H         1 UNK         0.0720 
     89 H89       -48.5780  -29.8734    9.8372 H         1 UNK         0.0814 
     90 H90       -49.3884  -31.3566   10.2434 H         1 UNK         0.0814 
     91 H91       -50.4782  -28.2202    8.4042 H         1 UNK         0.1469 
     92 H92       -53.8879  -27.6491   10.9094 H         1 UNK         0.1381 
     93 H93       -51.2312  -30.9322   11.6412 H         1 UNK         0.1206 
     94 H94       -52.8329  -29.9418   13.4483 H         1 UNK         0.0813 
     95 H95       -54.1450  -28.9366   12.9090 H         1 UNK         0.0813 
     96 H96       -55.6981  -31.6693   10.2975 H         1 UNK         0.0638 
     97 H97       -55.0312  -30.0795   10.2348 H         1 UNK         0.0638 
     98 H98       -57.5242  -30.1674   10.3269 H         1 UNK         0.0568 
     99 H99       -58.7735  -32.8461   12.3516 H         1 UNK         0.3450 
    100 H100      -58.0867  -32.5100   10.7844 H         1 UNK         0.3450 
    101 H101      -55.9841  -28.4766   12.0610 H         1 UNK         0.2987 
    102 H102      -56.9296  -26.0541   11.5822 H         1 UNK         0.0766 
    103 H103      -58.6756  -24.6458   12.6634 H         1 UNK         0.0798 
    104 H104      -59.6706  -26.0724   12.9535 H         1 UNK         0.0798 
    105 H105      -59.3361  -25.5449   11.3094 H         1 UNK         0.0798 
    106 H106      -57.7221  -26.7208   14.3713 H         1 UNK         0.3198 
    107 H107      -56.1246  -26.0903   15.9527 H         1 UNK         0.0843 
    108 H108      -54.5223  -28.6456   15.3157 H         1 UNK         0.0831 
    109 H109      -56.2443  -28.6095   15.6723 H         1 UNK         0.0831 
    110 H110      -55.0838  -28.1497   16.9078 H         1 UNK         0.0831 
    111 H111      -53.4960  -25.9804   14.7093 H         1 UNK         0.3133 
    112 H112      -52.3334  -23.8705   15.8951 H         1 UNK         0.0566 
    113 H113      -50.7803  -23.7183   17.8444 H         1 UNK         0.0814 
    114 H114      -52.4435  -23.4163   18.3215 H         1 UNK         0.0814 
    115 H115      -51.6988  -24.9661   18.6862 H         1 UNK         0.0814 
    116 H116      -50.8652  -25.2976   15.1025 H         1 UNK         0.3091 
    117 H117      -49.3167  -28.2817   16.2846 H         1 UNK         0.0702 
    118 H118      -49.6062  -28.8258   13.8758 H         1 UNK         0.0785 
    119 H119      -50.8364  -27.5760   13.7137 H         1 UNK         0.0785 
    120 H120      -51.1295  -28.9788   14.7353 H         1 UNK         0.0785 
    121 H121      -48.6277  -26.4789   14.1879 H         1 UNK         0.2998 
    122 H122      -46.4927  -24.3571   16.1677 H         1 UNK         0.0697 
    123 H123      -45.9788  -26.4293   13.9698 H         1 UNK         0.0825 
    124 H124      -45.1524  -26.3387   15.5168 H         1 UNK         0.0825 
    125 H125      -44.9451  -25.0502   14.3409 H         1 UNK         0.0825 
    126 H126      -47.1857  -24.2610   13.4068 H         1 UNK         0.3029 
    127 H127      -50.0338  -22.1039   13.7764 H         1 UNK         0.0897 
    128 H128      -48.6896  -20.7652   12.1733 H         1 UNK         0.0792 
    129 H129      -48.0218  -20.6270   13.7927 H         1 UNK         0.0792 
    130 H130      -47.2339  -21.6580   12.6065 H         1 UNK         0.0792 
    131 H131      -48.8729  -23.1741   11.4328 H         1 UNK         0.3086 
    132 H132      -50.7355  -26.2433   11.3477 H         1 UNK         0.0583 
    133 H133      -52.1780  -24.4819   10.4227 H         1 UNK         0.1020 
    134 H134      -50.8141  -23.5929    9.8157 H         1 UNK         0.1020 
    135 H135      -53.4910  -26.0954    9.1575 H         1 UNK         0.0694 
    136 H136      -52.9993  -26.9950    7.7432 H         1 UNK         0.0694 
    137 H137      -48.6763  -25.3262    9.6390 H         1 UNK         0.2989 
    138 H138      -45.8974  -26.5316   11.5707 H         1 UNK         0.1055 
    139 H139      -46.6286  -28.5260   10.3021 H         1 UNK         0.0806 
    140 H140      -45.3595  -27.6720    9.4412 H         1 UNK         0.0806 
    141 H141      -47.0319  -27.5260    8.9133 H         1 UNK         0.0806 
    142 H142      -46.3239  -25.1379    9.0379 H         1 UNK         0.3061 
    143 H143      -45.8403  -21.8948   10.4077 H         1 UNK         0.0734 
    144 H144      -43.9435  -21.8123    8.8071 H         1 UNK         0.0832 
    145 H145      -43.4969  -22.7414   10.2277 H         1 UNK         0.0832 
    146 H146      -43.8936  -23.5747    8.7318 H         1 UNK         0.0832 
    147 H147      -46.0627  -22.8616    7.7186 H         1 UNK         0.3156 
    148 H148      -49.6091  -22.9961    7.5693 H         1 UNK         0.0589 
    149 H149      -47.6836  -20.9524    6.3421 H         1 UNK         0.0808 
    150 H150      -49.3069  -21.3369    5.7672 H         1 UNK         0.0808 
    151 H151      -49.0875  -20.5603    7.3251 H         1 UNK         0.0808 
    152 H152      -47.8585  -23.3419    5.4525 H         1 UNK         0.3098 
    153 H153      -47.7170  -25.4695    4.5606 H         1 UNK         0.0720 
    154 H154      -45.4301  -26.4975    4.6995 H         1 UNK         0.0791 
    155 H155      -45.4043  -26.2337    6.4427 H         1 UNK         0.0791 
    156 H156      -45.4197  -24.8636    5.3403 H         1 UNK         0.0791 
    157 H157      -47.2230  -27.8590    6.1907 H         1 UNK         0.3028 
@<TRIPOS>BOND
     1    1    2 1    
     2    1   82 1    
     3    1   83 1    
     4    1   84 1    
     5    2    3 2    
     6    2    4 am   BACKBONE|DICT|INTERRES
     7    4    5 1    
     8    4   85 1    
     9    5    6 1    
    10    5   80 1    
    11    5   86 1    
    12    6    7 1    
    13    6   87 1    
    14    6   88 1    
    15    7    8 1    
    16    8    9 1    
    17    8   89 1    
    18    8   90 1    
    19    9   10 ar   
    20    9   14 ar   
    21   10   11 ar   
    22   10   91 1    
    23   11   12 ar   
    24   11   58 1    
    25   12   13 ar   
    26   12   92 1    
    27   13   14 ar   
    28   13   15 1    
    29   14   93 1    
    30   15   16 1    
    31   15   94 1    
    32   15   95 1    
    33   16   17 1    
    34   17   18 1    
    35   17   96 1    
    36   17   97 1    
    37   18   19 1    
    38   18   22 1    
    39   18   98 1    
    40   19   20 am   BACKBONE|DICT|INTERRES
    41   19   21 2    
    42   20   99 1    
    43   20  100 1    
    44   22   23 am   BACKBONE|DICT|INTERRES
    45   22  101 1    
    46   23   24 2    
    47   23   25 1    
    48   25   26 1    
    49   25   27 1    
    50   25  102 1    
    51   26  103 1    
    52   26  104 1    
    53   26  105 1    
    54   27   28 am   BACKBONE|DICT|INTERRES
    55   27  106 1    
    56   28   29 2    
    57   28   30 1    
    58   30   31 1    
    59   30   32 1    
    60   30  107 1    
    61   31  108 1    
    62   31  109 1    
    63   31  110 1    
    64   32   33 am   BACKBONE|DICT|INTERRES
    65   32  111 1    
    66   33   34 2    
    67   33   35 1    
    68   35   36 1    
    69   35   37 1    
    70   35  112 1    
    71   36  113 1    
    72   36  114 1    
    73   36  115 1    
    74   37   38 am   BACKBONE|DICT|INTERRES
    75   37  116 1    
    76   38   39 2    
    77   38   40 1    
    78   40   41 1    
    79   40   42 1    
    80   40  117 1    
    81   41  118 1    
    82   41  119 1    
    83   41  120 1    
    84   42   43 am   BACKBONE|DICT|INTERRES
    85   42  121 1    
    86   43   44 2    
    87   43   45 1    
    88   45   46 1    
    89   45   47 1    
    90   45  122 1    
    91   46  123 1    
    92   46  124 1    
    93   46  125 1    
    94   47   48 am   BACKBONE|DICT|INTERRES
    95   47  126 1    
    96   48   49 2    
    97   48   50 1    
    98   50   51 1    
    99   50   52 1    
   100   50  127 1    
   101   51  128 1    
   102   51  129 1    
   103   51  130 1    
   104   52   53 am   BACKBONE|DICT|INTERRES
   105   52  131 1    
   106   53   54 2    
   107   53   55 1    
   108   55   56 1    
   109   55   59 1    
   110   55  132 1    
   111   56   57 1    
   112   56  133 1    
   113   56  134 1    
   114   57   58 1    
   115   58  135 1    
   116   58  136 1    
   117   59   60 am   BACKBONE|DICT|INTERRES
   118   59  137 1    
   119   60   61 2    
   120   60   62 1    
   121   62   63 1    
   122   62   64 1    
   123   62  138 1    
   124   63  139 1    
   125   63  140 1    
   126   63  141 1    
   127   64   65 am   BACKBONE|DICT|INTERRES
   128   64  142 1    
   129   65   66 2    
   130   65   67 1    
   131   67   68 1    
   132   67   69 1    
   133   67  143 1    
   134   68  144 1    
   135   68  145 1    
   136   68  146 1    
   137   69   70 am   BACKBONE|DICT|INTERRES
   138   69  147 1    
   139   70   71 2    
   140   70   72 1    
   141   72   73 1    
   142   72   74 1    
   143   72  148 1    
   144   73  149 1    
   145   73  150 1    
   146   73  151 1    
   147   74   75 am   BACKBONE|DICT|INTERRES
   148   74  152 1    
   149   75   76 2    
   150   75   77 1    
   151   77   78 1    
   152   77   79 1    
   153   77  153 1    
   154   78  154 1    
   155   78  155 1    
   156   78  156 1    
   157   79   80 am   BACKBONE|DICT|INTERRES
   158   79  157 1    
   159   80   81 2    
@<TRIPOS>SUBSTRUCTURE
     1 UNK         1 GROUP             0       ****    0 ROOT    
