@<TRIPOS>MOLECULE
3R207
157   159    1
SMALL
USER_CHARGES


@<TRIPOS>ATOM
      1 CA        -49.0261  -29.2552    6.2730 C.3       0 UNK        -0.1975 
      2 C         -49.0281  -27.7390    6.4094 C.2       0 UNK         0.4852 
      3 O         -48.0044  -27.0986    6.1594 O.2       0 UNK        -0.5216 
      4 N         -50.1835  -27.1728    6.7833 N.am      1 UNK        -0.4461 
      5 CA        -50.4766  -25.7384    6.8697 C.3       1 UNK         0.0864 
      6 C6        -51.9067  -25.4577    7.3951 C.3       14 UNK        -0.0898 
      7 S7        -53.2174  -26.3918    6.5299 S.3       14 UNK        -0.2598 
      8 C8        -54.1641  -27.0890    7.9264 C.3       14 UNK         0.0286 
      9 C9        -53.6678  -28.4674    8.3493 C.ar      14 UNK        -0.0844 
     10 C10       -52.3843  -28.6360    8.8778 C.ar      14 UNK        -0.0881 
     11 C11       -51.9236  -29.9006    9.2671 C.ar      14 UNK        -0.0643 
     12 C12       -52.7973  -30.9886    9.1879 C.ar      14 UNK        -0.0930 
     13 C13       -54.0968  -30.8304    8.6995 C.ar      14 UNK        -0.0827 
     14 C14       -54.5127  -29.5758    8.2453 C.ar      14 UNK        -0.1249 
     15 C15       -55.0545  -32.0127    8.6865 C.3       14 UNK         0.0141 
     16 S16       -55.8905  -32.2068   10.2972 S.3       14 UNK        -0.2313 
     17 C17       -57.0545  -30.8002   10.2847 C.3       14 UNK        -0.0915 
     18 CA        -56.5226  -29.5608   11.0692 C.3       13 UNK         0.0968 
     19 C         -57.3409  -28.2511   10.8356 C.2       13 UNK         0.5732 
     20 N         -57.9919  -28.0882    9.6905 N.am      13 UNK        -0.7310 
     21 O         -57.3457  -27.3410   11.6619 O.2       13 UNK        -0.5035 
     22 N         -56.2663  -29.8503   12.4889 N.am      13 UNK        -0.4233 
     23 C         -57.1851  -30.0537   13.4421 C.2       13 UNK         0.4989 
     24 O         -58.3977  -30.1072   13.2291 O.2       13 UNK        -0.4996 
     25 CA        -56.6789  -30.2430   14.8882 C.3       12 UNK         0.0216 
     26 CB        -56.8582  -31.7059   15.3294 C.3       12 UNK        -0.1964 
     27 N         -55.2829  -29.8456   15.1207 N.am      12 UNK        -0.4276 
     28 C         -54.8076  -28.5942   15.0508 C.2       12 UNK         0.5020 
     29 O         -55.4967  -27.6197   14.7413 O.2       12 UNK        -0.5489 
     30 CA        -53.3009  -28.4301   15.3387 C.3       11 UNK         0.0294 
     31 CB        -52.4647  -29.0576   14.2108 C.3       11 UNK        -0.2019 
     32 N         -52.8984  -27.0287   15.4902 N.am      11 UNK        -0.4493 
     33 C         -53.2717  -26.2260   16.4961 C.2       11 UNK         0.4932 
     34 O         -53.9136  -26.6068   17.4779 O.2       11 UNK        -0.5029 
     35 CA        -52.8380  -24.7539   16.3722 C.3       10 UNK         0.0280 
     36 CB        -53.3337  -23.8678   17.5354 C.3       10 UNK        -0.1976 
     37 N         -51.3911  -24.6173   16.1837 N.am      10 UNK        -0.4242 
     38 C         -50.4134  -24.9810   17.0292 C.2       10 UNK         0.5072 
     39 O         -50.6101  -25.4800   18.1381 O.2       10 UNK        -0.5224 
     40 CA        -48.9573  -24.7633   16.5691 C.3       9 UNK         0.0343 
     41 CB        -48.2842  -26.1149   16.2820 C.3       9 UNK        -0.2003 
     42 N         -48.8287  -23.9052   15.3875 N.am      9 UNK        -0.4272 
     43 C         -49.0400  -22.5815   15.3718 C.2       9 UNK         0.4988 
     44 O         -49.3006  -21.9155   16.3740 O.2       9 UNK        -0.5108 
     45 CA        -48.9900  -21.8912   13.9988 C.3       8 UNK         0.0248 
     46 CB        -47.5487  -21.5004   13.6324 C.3       8 UNK        -0.2001 
     47 N         -49.5679  -22.7126   12.9301 N.am      8 UNK        -0.4140 
     48 C         -50.8709  -23.0094   12.8142 C.2       8 UNK         0.5028 
     49 O         -51.7348  -22.6293   13.6039 O.2       8 UNK        -0.5428 
     50 CA        -51.2707  -23.9032   11.6270 C.3       7 UNK         0.0264 
     51 CB        -51.2710  -23.0802   10.3287 C.3       7 UNK        -0.1988 
     52 N         -50.4022  -25.0789   11.4902 N.am      7 UNK        -0.4454 
     53 C         -50.3120  -26.0477   12.4171 C.2       7 UNK         0.5027 
     54 O         -51.0638  -26.1244   13.3915 O.2       7 UNK        -0.5083 
     55 CA        -49.1453  -27.0525   12.3018 C.3       6 UNK         0.0844 
     56 C56       -49.5796  -28.4486   11.7856 C.3       14 UNK        -0.0967 
     57 S57       -49.4567  -28.6739    9.9844 S.3       14 UNK        -0.2604 
     58 C58       -50.4916  -30.1576    9.7409 C.3       14 UNK         0.0134 
     59 N         -47.9855  -26.5011   11.5941 N.am      6 UNK        -0.4116 
     60 C         -47.2064  -25.5152   12.0557 C.2       5 UNK         0.5034 
     61 O         -47.3821  -24.9825   13.1517 O.2       5 UNK        -0.5045 
     62 CA        -46.0914  -24.9840   11.1362 C.3       5 UNK         0.0224 
     63 CB        -44.8005  -24.6543   11.9144 C.3       5 UNK        -0.1978 
     64 N         -45.8088  -25.8237    9.9647 N.am      5 UNK        -0.4737 
     65 C         -45.2641  -27.0489    9.9238 C.2       4 UNK         0.5027 
     66 O         -44.9308  -27.6860   10.9225 O.2       4 UNK        -0.5211 
     67 CA        -45.0727  -27.6825    8.5311 C.3       4 UNK         0.0297 
     68 CB        -45.9332  -28.9452    8.3906 C.3       4 UNK        -0.1993 
     69 N         -45.3974  -26.7576    7.4384 N.am      4 UNK        -0.4486 
     70 C         -44.5417  -25.8563    6.9369 C.2       3 UNK         0.4961 
     71 O         -43.3581  -25.7730    7.2655 O.2       3 UNK        -0.5105 
     72 CA        -45.1198  -24.8455    5.9344 C.3       3 UNK         0.0299 
     73 CB        -45.2753  -25.4760    4.5409 C.3       3 UNK        -0.1972 
     74 N         -46.4023  -24.2911    6.3799 N.am      3 UNK        -0.4305 
     75 C         -46.5509  -23.4521    7.4183 C.2       2 UNK         0.5006 
     76 O         -45.6153  -23.0629    8.1159 O.2       2 UNK        -0.5106 
     77 CA        -47.9707  -22.9617    7.7558 C.3       2 UNK         0.0296 
     78 CB        -48.1674  -21.5119    7.2840 C.3       2 UNK        -0.2002 
     79 N         -49.0175  -23.8018    7.1732 N.am      2 UNK        -0.4032 
     80 C         -49.4448  -24.9524    7.7078 C.2       1 UNK         0.5000 
     81 O         -49.0797  -25.3745    8.8105 O.2       1 UNK        -0.5238 
     82 H82       -48.4705  -29.7153    7.0873 H         1 UNK         0.0889 
     83 H83       -48.5576  -29.5462    5.3335 H         1 UNK         0.0889 
     84 H84       -50.0372  -29.6623    6.2852 H         1 UNK         0.0889 
     85 H85       -50.9758  -27.7702    6.9704 H         1 UNK         0.3028 
     86 H86       -50.4248  -25.3710    5.8429 H         1 UNK         0.0864 
     87 H87       -52.1427  -24.3983    7.2788 H         1 UNK         0.0720 
     88 H88       -51.9641  -25.6585    8.4651 H         1 UNK         0.0720 
     89 H89       -55.2112  -27.1444    7.6241 H         1 UNK         0.0814 
     90 H90       -54.1414  -26.4111    8.7807 H         1 UNK         0.0814 
     91 H91       -51.7421  -27.7764    8.9718 H         1 UNK         0.1469 
     92 H92       -52.4661  -31.9658    9.5126 H         1 UNK         0.1381 
     93 H93       -55.5127  -29.4545    7.8527 H         1 UNK         0.1206 
     94 H94       -55.7942  -31.9047    7.8918 H         1 UNK         0.0813 
     95 H95       -54.5043  -32.9282    8.4638 H         1 UNK         0.0813 
     96 H96       -58.0034  -31.1362   10.7051 H         1 UNK         0.0638 
     97 H97       -57.2627  -30.5557    9.2433 H         1 UNK         0.0638 
     98 H98       -55.5379  -29.3160   10.6773 H         1 UNK         0.0568 
     99 H99       -58.5003  -27.2314    9.5392 H         1 UNK         0.3450 
    100 H100      -58.0039  -28.8080    8.9867 H         1 UNK         0.3450 
    101 H101      -55.3001  -29.8071   12.7715 H         1 UNK         0.2987 
    102 H102      -57.3074  -29.6167   15.5251 H         1 UNK         0.0766 
    103 H103      -56.5973  -31.8410   16.3793 H         1 UNK         0.0798 
    104 H104      -56.2419  -32.3840   14.7375 H         1 UNK         0.0798 
    105 H105      -57.8950  -32.0257   15.2139 H         1 UNK         0.0798 
    106 H106      -54.6458  -30.5882   15.3730 H         1 UNK         0.3198 
    107 H107      -53.0764  -28.9462   16.2747 H         1 UNK         0.0843 
    108 H108      -52.6803  -28.5889   13.2496 H         1 UNK         0.0831 
    109 H109      -52.6633  -30.1248   14.1067 H         1 UNK         0.0831 
    110 H110      -51.3978  -28.9500   14.4078 H         1 UNK         0.0831 
    111 H111      -52.3503  -26.6313   14.7307 H         1 UNK         0.3133 
    112 H112      -53.2976  -24.3759   15.4576 H         1 UNK         0.0566 
    113 H113      -53.0377  -22.8283   17.3942 H         1 UNK         0.0814 
    114 H114      -54.4221  -23.8891   17.6026 H         1 UNK         0.0814 
    115 H115      -52.9438  -24.2003   18.4978 H         1 UNK         0.0814 
    116 H116      -51.1128  -24.2371   15.2884 H         1 UNK         0.3091 
    117 H117      -48.4223  -24.2837   17.3914 H         1 UNK         0.0702 
    118 H118      -47.2628  -25.9874   15.9223 H         1 UNK         0.0785 
    119 H119      -48.8379  -26.6850   15.5371 H         1 UNK         0.0785 
    120 H120      -48.2371  -26.7250   17.1850 H         1 UNK         0.0785 
    121 H121      -48.5213  -24.3536   14.5278 H         1 UNK         0.2998 
    122 H122      -49.5802  -20.9749   14.0697 H         1 UNK         0.0697 
    123 H123      -46.8993  -22.3716   13.5450 H         1 UNK         0.0825 
    124 H124      -47.1175  -20.8511   14.3956 H         1 UNK         0.0825 
    125 H125      -47.5114  -20.9567   12.6883 H         1 UNK         0.0825 
    126 H126      -48.9228  -23.1046   12.2613 H         1 UNK         0.3029 
    127 H127      -52.2889  -24.2548   11.8085 H         1 UNK         0.0897 
    128 H128      -51.8407  -22.1575   10.4503 H         1 UNK         0.0792 
    129 H129      -51.7363  -23.6282    9.5145 H         1 UNK         0.0792 
    130 H130      -50.2636  -22.8015   10.0191 H         1 UNK         0.0792 
    131 H131      -49.7971  -25.1277   10.6747 H         1 UNK         0.3086 
    132 H132      -48.8163  -27.2129   13.3292 H         1 UNK         0.0583 
    133 H133      -48.9425  -29.2076   12.2425 H         1 UNK         0.1020 
    134 H134      -50.5930  -28.6915   12.1052 H         1 UNK         0.1020 
    135 H135      -49.9998  -30.7815    8.9937 H         1 UNK         0.0694 
    136 H136      -50.5089  -30.7444   10.6606 H         1 UNK         0.0694 
    137 H137      -47.8257  -26.8558   10.6612 H         1 UNK         0.2989 
    138 H138      -46.4728  -24.0434   10.7365 H         1 UNK         0.1055 
    139 H139      -44.9865  -23.9060   12.6858 H         1 UNK         0.0806 
    140 H140      -44.0328  -24.2508   11.2542 H         1 UNK         0.0806 
    141 H141      -44.3898  -25.5332   12.4118 H         1 UNK         0.0806 
    142 H142      -46.0417  -25.4083    9.0737 H         1 UNK         0.3061 
    143 H143      -44.0250  -27.9799    8.4502 H         1 UNK         0.0734 
    144 H144      -45.6639  -29.6905    9.1402 H         1 UNK         0.0832 
    145 H145      -46.9872  -28.7143    8.5274 H         1 UNK         0.0832 
    146 H146      -45.8101  -29.4077    7.4113 H         1 UNK         0.0832 
    147 H147      -46.3463  -26.7906    7.0681 H         1 UNK         0.3156 
    148 H148      -44.4100  -24.0196    5.8495 H         1 UNK         0.0589 
    149 H149      -45.9901  -26.2995    4.5422 H         1 UNK         0.0808 
    150 H150      -45.6114  -24.7416    3.8087 H         1 UNK         0.0808 
    151 H151      -44.3234  -25.8732    4.1858 H         1 UNK         0.0808 
    152 H152      -47.2249  -24.6075    5.8868 H         1 UNK         0.3098 
    153 H153      -48.0681  -22.9763    8.8434 H         1 UNK         0.0720 
    154 H154      -49.1461  -21.1298    7.5753 H         1 UNK         0.0791 
    155 H155      -48.0794  -21.4222    6.2005 H         1 UNK         0.0791 
    156 H156      -47.4198  -20.8523    7.7271 H         1 UNK         0.0791 
    157 H157      -49.3914  -23.5032    6.2832 H         1 UNK         0.3028 
@<TRIPOS>BOND
     1    1    2 1    
     2    1   82 1    
     3    1   83 1    
     4    1   84 1    
     5    2    3 2    
     6    2    4 am   BACKBONE|DICT|INTERRES
     7    4    5 1    
     8    4   85 1    
     9    5    6 1    
    10    5   80 1    
    11    5   86 1    
    12    6    7 1    
    13    6   87 1    
    14    6   88 1    
    15    7    8 1    
    16    8    9 1    
    17    8   89 1    
    18    8   90 1    
    19    9   10 ar   
    20    9   14 ar   
    21   10   11 ar   
    22   10   91 1    
    23   11   12 ar   
    24   11   58 1    
    25   12   13 ar   
    26   12   92 1    
    27   13   14 ar   
    28   13   15 1    
    29   14   93 1    
    30   15   16 1    
    31   15   94 1    
    32   15   95 1    
    33   16   17 1    
    34   17   18 1    
    35   17   96 1    
    36   17   97 1    
    37   18   19 1    
    38   18   22 1    
    39   18   98 1    
    40   19   20 am   BACKBONE|DICT|INTERRES
    41   19   21 2    
    42   20   99 1    
    43   20  100 1    
    44   22   23 am   BACKBONE|DICT|INTERRES
    45   22  101 1    
    46   23   24 2    
    47   23   25 1    
    48   25   26 1    
    49   25   27 1    
    50   25  102 1    
    51   26  103 1    
    52   26  104 1    
    53   26  105 1    
    54   27   28 am   BACKBONE|DICT|INTERRES
    55   27  106 1    
    56   28   29 2    
    57   28   30 1    
    58   30   31 1    
    59   30   32 1    
    60   30  107 1    
    61   31  108 1    
    62   31  109 1    
    63   31  110 1    
    64   32   33 am   BACKBONE|DICT|INTERRES
    65   32  111 1    
    66   33   34 2    
    67   33   35 1    
    68   35   36 1    
    69   35   37 1    
    70   35  112 1    
    71   36  113 1    
    72   36  114 1    
    73   36  115 1    
    74   37   38 am   BACKBONE|DICT|INTERRES
    75   37  116 1    
    76   38   39 2    
    77   38   40 1    
    78   40   41 1    
    79   40   42 1    
    80   40  117 1    
    81   41  118 1    
    82   41  119 1    
    83   41  120 1    
    84   42   43 am   BACKBONE|DICT|INTERRES
    85   42  121 1    
    86   43   44 2    
    87   43   45 1    
    88   45   46 1    
    89   45   47 1    
    90   45  122 1    
    91   46  123 1    
    92   46  124 1    
    93   46  125 1    
    94   47   48 am   BACKBONE|DICT|INTERRES
    95   47  126 1    
    96   48   49 2    
    97   48   50 1    
    98   50   51 1    
    99   50   52 1    
   100   50  127 1    
   101   51  128 1    
   102   51  129 1    
   103   51  130 1    
   104   52   53 am   BACKBONE|DICT|INTERRES
   105   52  131 1    
   106   53   54 2    
   107   53   55 1    
   108   55   56 1    
   109   55   59 1    
   110   55  132 1    
   111   56   57 1    
   112   56  133 1    
   113   56  134 1    
   114   57   58 1    
   115   58  135 1    
   116   58  136 1    
   117   59   60 am   BACKBONE|DICT|INTERRES
   118   59  137 1    
   119   60   61 2    
   120   60   62 1    
   121   62   63 1    
   122   62   64 1    
   123   62  138 1    
   124   63  139 1    
   125   63  140 1    
   126   63  141 1    
   127   64   65 am   BACKBONE|DICT|INTERRES
   128   64  142 1    
   129   65   66 2    
   130   65   67 1    
   131   67   68 1    
   132   67   69 1    
   133   67  143 1    
   134   68  144 1    
   135   68  145 1    
   136   68  146 1    
   137   69   70 am   BACKBONE|DICT|INTERRES
   138   69  147 1    
   139   70   71 2    
   140   70   72 1    
   141   72   73 1    
   142   72   74 1    
   143   72  148 1    
   144   73  149 1    
   145   73  150 1    
   146   73  151 1    
   147   74   75 am   BACKBONE|DICT|INTERRES
   148   74  152 1    
   149   75   76 2    
   150   75   77 1    
   151   77   78 1    
   152   77   79 1    
   153   77  153 1    
   154   78  154 1    
   155   78  155 1    
   156   78  156 1    
   157   79   80 am   BACKBONE|DICT|INTERRES
   158   79  157 1    
   159   80   81 2    
@<TRIPOS>SUBSTRUCTURE
     1 UNK         1 GROUP             0       ****    0 ROOT    
