@<TRIPOS>MOLECULE
3R207
157   159    1
SMALL
USER_CHARGES


@<TRIPOS>ATOM
      1 CA        -51.3651  -25.5815    2.6445 C.3       0 UNK        -0.1975 
      2 C         -51.0264  -26.0994    4.0339 C.2       0 UNK         0.4852 
      3 O         -50.9241  -25.3105    4.9738 O.2       0 UNK        -0.5216 
      4 N         -50.8392  -27.4201    4.1718 N.am      1 UNK        -0.4461 
      5 CA        -50.5558  -28.0979    5.4453 C.3       1 UNK         0.0864 
      6 C6        -50.7335  -29.6352    5.3524 C.3       14 UNK        -0.0898 
      7 S7        -52.3032  -30.2107    4.6024 S.3       14 UNK        -0.2598 
      8 C8        -53.6186  -29.4782    5.6408 C.3       14 UNK         0.0286 
      9 C9        -53.3428  -29.5973    7.1335 C.ar      14 UNK        -0.0844 
     10 C10       -53.1860  -28.4425    7.9020 C.ar      14 UNK        -0.0881 
     11 C11       -52.8126  -28.5257    9.2439 C.ar      14 UNK        -0.0643 
     12 C12       -52.6423  -29.7828    9.8339 C.ar      14 UNK        -0.0930 
     13 C13       -52.8551  -30.9503    9.0906 C.ar      14 UNK        -0.0827 
     14 C14       -53.2070  -30.8490    7.7405 C.ar      14 UNK        -0.1249 
     15 C15       -52.6405  -32.3256    9.7132 C.3       14 UNK         0.0141 
     16 S16       -53.5824  -32.5894   11.2511 S.3       14 UNK        -0.2313 
     17 C17       -55.3184  -32.5529   10.6732 C.3       14 UNK        -0.0915 
     18 CA        -56.2292  -31.6407   11.5399 C.3       13 UNK         0.0968 
     19 C         -56.4947  -32.2672   12.9432 C.2       13 UNK         0.5732 
     20 N         -55.9615  -31.7218   14.0301 N.am      13 UNK        -0.7310 
     21 O         -57.2059  -33.2645   13.0429 O.2       13 UNK        -0.5035 
     22 N         -55.7434  -30.2518   11.5275 N.am      13 UNK        -0.4233 
     23 C         -56.3779  -29.1895   12.0354 C.2       13 UNK         0.4989 
     24 O         -57.4868  -29.2248   12.5732 O.2       13 UNK        -0.4996 
     25 CA        -55.6489  -27.8510   11.9074 C.3       12 UNK         0.0216 
     26 CB        -56.2652  -26.9915   10.7903 C.3       12 UNK        -0.1964 
     27 N         -55.7282  -27.1406   13.1810 N.am      12 UNK        -0.4276 
     28 C         -54.6884  -26.5723   13.8010 C.2       12 UNK         0.5020 
     29 O         -53.5454  -26.5267   13.3353 O.2       12 UNK        -0.5489 
     30 CA        -54.9618  -25.9742   15.1870 C.3       11 UNK         0.0294 
     31 CB        -55.2132  -27.0868   16.2253 C.3       11 UNK        -0.2019 
     32 N         -53.7975  -25.1833   15.5724 N.am      11 UNK        -0.4493 
     33 C         -53.7205  -24.2949   16.5696 C.2       11 UNK         0.4932 
     34 O         -54.6763  -23.9839   17.2828 O.2       11 UNK        -0.5029 
     35 CA        -52.3358  -23.6558   16.8040 C.3       10 UNK         0.0280 
     36 CB        -52.1986  -22.9782   18.1839 C.3       10 UNK        -0.1976 
     37 N         -51.2400  -24.6021   16.5615 N.am      10 UNK        -0.4242 
     38 C         -50.9833  -25.7429   17.2203 C.2       10 UNK         0.5072 
     39 O         -51.5885  -26.1177   18.2256 O.2       10 UNK        -0.5224 
     40 CA        -49.8783  -26.6416   16.6391 C.3       9 UNK         0.0343 
     41 CB        -50.4768  -27.6021   15.5975 C.3       9 UNK        -0.2003 
     42 N         -48.7703  -25.8953   16.0357 N.am      9 UNK        -0.4272 
     43 C         -47.8841  -25.1617   16.7256 C.2       9 UNK         0.4988 
     44 O         -47.8884  -25.0570   17.9528 O.2       9 UNK        -0.5108 
     45 CA        -46.8096  -24.4167   15.9139 C.3       8 UNK         0.0248 
     46 CB        -45.6800  -25.3718   15.4951 C.3       8 UNK        -0.2001 
     47 N         -47.3542  -23.7441   14.7324 N.am      8 UNK        -0.4140 
     48 C         -48.1934  -22.6984   14.7738 C.2       8 UNK         0.5028 
     49 O         -48.5446  -22.1390   15.8131 O.2       8 UNK        -0.5428 
     50 CA        -48.7663  -22.2102   13.4317 C.3       7 UNK         0.0264 
     51 CB        -47.7772  -21.2740   12.7195 C.3       7 UNK        -0.1988 
     52 N         -49.1360  -23.3093   12.5371 N.am      7 UNK        -0.4454 
     53 C         -50.0747  -24.2291   12.8066 C.2       7 UNK         0.5027 
     54 O         -50.7722  -24.2196   13.8202 O.2       7 UNK        -0.5083 
     55 CA        -50.2284  -25.3774   11.7964 C.3       6 UNK         0.0844 
     56 C56       -51.1256  -24.9497   10.6103 C.3       14 UNK        -0.0967 
     57 S57       -51.2453  -26.2437    9.3346 S.3       14 UNK        -0.2604 
     58 C58       -52.5805  -27.2522   10.0409 C.3       14 UNK         0.0134 
     59 N         -48.9241  -25.8856   11.3691 N.am      6 UNK        -0.4116 
     60 C         -48.0603  -26.5462   12.1496 C.2       5 UNK         0.5034 
     61 O         -48.2620  -26.8091   13.3341 O.2       5 UNK        -0.5045 
     62 CA        -46.7206  -26.9340   11.5042 C.3       5 UNK         0.0224 
     63 CB        -46.8717  -28.2161   10.6693 C.3       5 UNK        -0.1978 
     64 N         -46.1806  -25.8637   10.6625 N.am      5 UNK        -0.4737 
     65 C         -45.8162  -24.6548   11.1127 C.2       4 UNK         0.5027 
     66 O         -45.8311  -24.3317   12.2998 O.2       4 UNK        -0.5211 
     67 CA        -45.4270  -23.6171   10.0492 C.3       4 UNK         0.0297 
     68 CB        -43.9459  -23.7614    9.6676 C.3       4 UNK        -0.1993 
     69 N         -46.2552  -23.7008    8.8427 N.am      4 UNK        -0.4486 
     70 C         -47.5762  -23.4925    8.7896 C.2       3 UNK         0.4961 
     71 O         -48.2570  -23.2115    9.7759 O.2       3 UNK        -0.5105 
     72 CA        -48.2612  -23.6314    7.4174 C.3       3 UNK         0.0299 
     73 CB        -47.9479  -22.4217    6.5169 C.3       3 UNK        -0.1972 
     74 N         -48.0097  -24.8994    6.7156 N.am      3 UNK        -0.4305 
     75 C         -46.8567  -25.4073    6.2517 C.2       2 UNK         0.5006 
     76 O         -45.7674  -24.8457    6.3786 O.2       2 UNK        -0.5106 
     77 CA        -46.8998  -26.7522    5.4953 C.3       2 UNK         0.0296 
     78 CB        -46.0340  -27.8194    6.1983 C.3       2 UNK        -0.2002 
     79 N         -48.2483  -27.2588    5.1930 N.am      2 UNK        -0.4032 
     80 C         -49.1709  -27.7467    6.0386 C.2       1 UNK         0.5000 
     81 O         -48.9784  -27.8900    7.2452 O.2       1 UNK        -0.5238 
     82 H82       -51.4147  -26.3854    1.9102 H         1 UNK         0.0889 
     83 H83       -50.6106  -24.8671    2.3161 H         1 UNK         0.0889 
     84 H84       -52.3300  -25.0756    2.6591 H         1 UNK         0.0889 
     85 H85       -50.9514  -28.0277    3.3718 H         1 UNK         0.3028 
     86 H86       -51.2801  -27.7184    6.1647 H         1 UNK         0.0864 
     87 H87       -49.9231  -30.0693    4.7637 H         1 UNK         0.0720 
     88 H88       -50.6496  -30.0828    6.3448 H         1 UNK         0.0720 
     89 H89       -54.5646  -29.9705    5.4123 H         1 UNK         0.0814 
     90 H90       -53.7426  -28.4332    5.3522 H         1 UNK         0.0814 
     91 H91       -53.3035  -27.4683    7.4467 H         1 UNK         0.1469 
     92 H92       -52.3357  -29.8558   10.8686 H         1 UNK         0.1381 
     93 H93       -53.3351  -31.7433    7.1457 H         1 UNK         0.1206 
     94 H94       -52.8980  -33.1178    9.0083 H         1 UNK         0.0813 
     95 H95       -51.5785  -32.4451    9.9309 H         1 UNK         0.0813 
     96 H96       -55.3468  -32.2116    9.6374 H         1 UNK         0.0638 
     97 H97       -55.6991  -33.5757   10.6525 H         1 UNK         0.0638 
     98 H98       -57.2057  -31.6158   11.0530 H         1 UNK         0.0568 
     99 H99       -56.1452  -32.1355   14.9301 H         1 UNK         0.3450 
    100 H100      -55.3689  -30.9117   13.9564 H         1 UNK         0.3450 
    101 H101      -54.8370  -30.1258   11.1014 H         1 UNK         0.2987 
    102 H102      -54.6078  -28.0609   11.6650 H         1 UNK         0.0766 
    103 H103      -55.7651  -26.0262   10.7104 H         1 UNK         0.0798 
    104 H104      -57.3253  -26.8024   10.9643 H         1 UNK         0.0798 
    105 H105      -56.1744  -27.4868    9.8225 H         1 UNK         0.0798 
    106 H106      -56.6243  -27.1928   13.6485 H         1 UNK         0.3198 
    107 H107      -55.8323  -25.3185   15.1194 H         1 UNK         0.0843 
    108 H108      -54.3510  -27.7487   16.3182 H         1 UNK         0.0831 
    109 H109      -56.0705  -27.7024   15.9510 H         1 UNK         0.0831 
    110 H110      -55.4216  -26.6739   17.2123 H         1 UNK         0.0831 
    111 H111      -52.9906  -25.3433   14.9775 H         1 UNK         0.3133 
    112 H112      -52.2298  -22.8786   16.0460 H         1 UNK         0.0566 
    113 H113      -51.2087  -22.5399   18.3119 H         1 UNK         0.0814 
    114 H114      -52.9263  -22.1739   18.2972 H         1 UNK         0.0814 
    115 H115      -52.3635  -23.6812   19.0009 H         1 UNK         0.0814 
    116 H116      -50.7329  -24.4396   15.6944 H         1 UNK         0.3091 
    117 H117      -49.4734  -27.2389   17.4586 H         1 UNK         0.0702 
    118 H118      -51.2971  -28.1814   16.0236 H         1 UNK         0.0785 
    119 H119      -50.8718  -27.0659   14.7334 H         1 UNK         0.0785 
    120 H120      -49.7312  -28.3114   15.2378 H         1 UNK         0.0785 
    121 H121      -48.6512  -25.9929   15.0306 H         1 UNK         0.2998 
    122 H122      -46.3783  -23.6505   16.5616 H         1 UNK         0.0697 
    123 H123      -46.0361  -26.1500   14.8196 H         1 UNK         0.0825 
    124 H124      -45.2447  -25.8670   16.3641 H         1 UNK         0.0825 
    125 H125      -44.8760  -24.8360   14.9902 H         1 UNK         0.0825 
    126 H126      -47.0518  -24.0923   13.8265 H         1 UNK         0.3029 
    127 H127      -49.6752  -21.6446   13.6483 H         1 UNK         0.0897 
    128 H128      -48.1962  -20.8859   11.7908 H         1 UNK         0.0792 
    129 H129      -46.8428  -21.7809   12.4781 H         1 UNK         0.0792 
    130 H130      -47.5304  -20.4175   13.3482 H         1 UNK         0.0792 
    131 H131      -48.6490  -23.3610   11.6450 H         1 UNK         0.3086 
    132 H132      -50.7338  -26.1930   12.3179 H         1 UNK         0.0583 
    133 H133      -52.1284  -24.6984   10.9628 H         1 UNK         0.1020 
    134 H134      -50.7405  -24.0475   10.1321 H         1 UNK         0.1020 
    135 H135      -52.3360  -27.4902   11.0768 H         1 UNK         0.0694 
    136 H136      -53.4951  -26.6603   10.0564 H         1 UNK         0.0694 
    137 H137      -48.6690  -25.6986   10.4112 H         1 UNK         0.2989 
    138 H138      -46.0077  -27.1242   12.3097 H         1 UNK         0.1055 
    139 H139      -47.2608  -29.0333   11.2785 H         1 UNK         0.0806 
    140 H140      -45.9132  -28.5430   10.2660 H         1 UNK         0.0806 
    141 H141      -47.5588  -28.0792    9.8324 H         1 UNK         0.0806 
    142 H142      -46.1342  -26.0361    9.6689 H         1 UNK         0.3061 
    143 H143      -45.5744  -22.6266   10.4840 H         1 UNK         0.0734 
    144 H144      -43.6353  -22.9741    8.9805 H         1 UNK         0.0832 
    145 H145      -43.3075  -23.6909   10.5495 H         1 UNK         0.0832 
    146 H146      -43.7416  -24.7214    9.1918 H         1 UNK         0.0832 
    147 H147      -45.7998  -23.9769    7.9740 H         1 UNK         0.3156 
    148 H148      -49.3358  -23.6206    7.6085 H         1 UNK         0.0589 
    149 H149      -46.8906  -22.3657    6.2564 H         1 UNK         0.0808 
    150 H150      -48.5192  -22.4629    5.5894 H         1 UNK         0.0808 
    151 H151      -48.2084  -21.4874    7.0161 H         1 UNK         0.0808 
    152 H152      -48.8380  -25.4612    6.5689 H         1 UNK         0.3098 
    153 H153      -46.4429  -26.5555    4.5243 H         1 UNK         0.0720 
    154 H154      -46.0394  -28.7605    5.6487 H         1 UNK         0.0791 
    155 H155      -46.3750  -28.0211    7.2140 H         1 UNK         0.0791 
    156 H156      -44.9955  -27.4931    6.2688 H         1 UNK         0.0791 
    157 H157      -48.5285  -27.1707    4.2259 H         1 UNK         0.3028 
@<TRIPOS>BOND
     1    1    2 1    
     2    1   82 1    
     3    1   83 1    
     4    1   84 1    
     5    2    3 2    
     6    2    4 am   BACKBONE|DICT|INTERRES
     7    4    5 1    
     8    4   85 1    
     9    5    6 1    
    10    5   80 1    
    11    5   86 1    
    12    6    7 1    
    13    6   87 1    
    14    6   88 1    
    15    7    8 1    
    16    8    9 1    
    17    8   89 1    
    18    8   90 1    
    19    9   10 ar   
    20    9   14 ar   
    21   10   11 ar   
    22   10   91 1    
    23   11   12 ar   
    24   11   58 1    
    25   12   13 ar   
    26   12   92 1    
    27   13   14 ar   
    28   13   15 1    
    29   14   93 1    
    30   15   16 1    
    31   15   94 1    
    32   15   95 1    
    33   16   17 1    
    34   17   18 1    
    35   17   96 1    
    36   17   97 1    
    37   18   19 1    
    38   18   22 1    
    39   18   98 1    
    40   19   20 am   BACKBONE|DICT|INTERRES
    41   19   21 2    
    42   20   99 1    
    43   20  100 1    
    44   22   23 am   BACKBONE|DICT|INTERRES
    45   22  101 1    
    46   23   24 2    
    47   23   25 1    
    48   25   26 1    
    49   25   27 1    
    50   25  102 1    
    51   26  103 1    
    52   26  104 1    
    53   26  105 1    
    54   27   28 am   BACKBONE|DICT|INTERRES
    55   27  106 1    
    56   28   29 2    
    57   28   30 1    
    58   30   31 1    
    59   30   32 1    
    60   30  107 1    
    61   31  108 1    
    62   31  109 1    
    63   31  110 1    
    64   32   33 am   BACKBONE|DICT|INTERRES
    65   32  111 1    
    66   33   34 2    
    67   33   35 1    
    68   35   36 1    
    69   35   37 1    
    70   35  112 1    
    71   36  113 1    
    72   36  114 1    
    73   36  115 1    
    74   37   38 am   BACKBONE|DICT|INTERRES
    75   37  116 1    
    76   38   39 2    
    77   38   40 1    
    78   40   41 1    
    79   40   42 1    
    80   40  117 1    
    81   41  118 1    
    82   41  119 1    
    83   41  120 1    
    84   42   43 am   BACKBONE|DICT|INTERRES
    85   42  121 1    
    86   43   44 2    
    87   43   45 1    
    88   45   46 1    
    89   45   47 1    
    90   45  122 1    
    91   46  123 1    
    92   46  124 1    
    93   46  125 1    
    94   47   48 am   BACKBONE|DICT|INTERRES
    95   47  126 1    
    96   48   49 2    
    97   48   50 1    
    98   50   51 1    
    99   50   52 1    
   100   50  127 1    
   101   51  128 1    
   102   51  129 1    
   103   51  130 1    
   104   52   53 am   BACKBONE|DICT|INTERRES
   105   52  131 1    
   106   53   54 2    
   107   53   55 1    
   108   55   56 1    
   109   55   59 1    
   110   55  132 1    
   111   56   57 1    
   112   56  133 1    
   113   56  134 1    
   114   57   58 1    
   115   58  135 1    
   116   58  136 1    
   117   59   60 am   BACKBONE|DICT|INTERRES
   118   59  137 1    
   119   60   61 2    
   120   60   62 1    
   121   62   63 1    
   122   62   64 1    
   123   62  138 1    
   124   63  139 1    
   125   63  140 1    
   126   63  141 1    
   127   64   65 am   BACKBONE|DICT|INTERRES
   128   64  142 1    
   129   65   66 2    
   130   65   67 1    
   131   67   68 1    
   132   67   69 1    
   133   67  143 1    
   134   68  144 1    
   135   68  145 1    
   136   68  146 1    
   137   69   70 am   BACKBONE|DICT|INTERRES
   138   69  147 1    
   139   70   71 2    
   140   70   72 1    
   141   72   73 1    
   142   72   74 1    
   143   72  148 1    
   144   73  149 1    
   145   73  150 1    
   146   73  151 1    
   147   74   75 am   BACKBONE|DICT|INTERRES
   148   74  152 1    
   149   75   76 2    
   150   75   77 1    
   151   77   78 1    
   152   77   79 1    
   153   77  153 1    
   154   78  154 1    
   155   78  155 1    
   156   78  156 1    
   157   79   80 am   BACKBONE|DICT|INTERRES
   158   79  157 1    
   159   80   81 2    
@<TRIPOS>SUBSTRUCTURE
     1 UNK         1 GROUP             0       ****    0 ROOT    
