@<TRIPOS>MOLECULE
3R207
157   159    1
SMALL
USER_CHARGES


@<TRIPOS>ATOM
      1 CA        -47.0435  -26.7967    2.5619 C.3       0 UNK        -0.1975 
      2 C         -47.6616  -26.6491    3.9441 C.2       0 UNK         0.4852 
      3 O         -47.0334  -27.0243    4.9330 O.2       0 UNK        -0.5216 
      4 N         -48.8792  -26.0907    4.0122 N.am      1 UNK        -0.4461 
      5 CA        -49.6961  -25.8869    5.2178 C.3       1 UNK         0.0864 
      6 C6        -50.3516  -27.2074    5.7302 C.3       14 UNK        -0.0898 
      7 S7        -52.1436  -27.0152    6.0336 S.3       14 UNK        -0.2598 
      8 C8        -52.1849  -26.3316    7.7197 C.3       14 UNK         0.0286 
      9 C9        -52.3854  -27.4023    8.7791 C.ar      14 UNK        -0.0844 
     10 C10       -51.3091  -28.1799    9.2136 C.ar      14 UNK        -0.0881 
     11 C11       -51.4873  -29.1591   10.1974 C.ar      14 UNK        -0.0643 
     12 C12       -52.7565  -29.3423   10.7565 C.ar      14 UNK        -0.0930 
     13 C13       -53.8422  -28.5714   10.3289 C.ar      14 UNK        -0.0827 
     14 C14       -53.6495  -27.6049    9.3382 C.ar      14 UNK        -0.1249 
     15 C15       -55.2333  -28.7981   10.9033 C.3       14 UNK         0.0141 
     16 S16       -55.6917  -27.4818   12.0697 S.3       14 UNK        -0.2313 
     17 C17       -57.4679  -27.8222   12.3094 C.3       14 UNK        -0.0915 
     18 CA        -57.8601  -27.9419   13.8107 C.3       13 UNK         0.0968 
     19 C         -59.4025  -27.8978   14.0451 C.2       13 UNK         0.5732 
     20 N         -59.9269  -28.5141   15.0982 N.am      13 UNK        -0.7310 
     21 O         -60.1373  -27.2689   13.2866 O.2       13 UNK        -0.5035 
     22 N         -57.1634  -29.0387   14.5075 N.am      13 UNK        -0.4233 
     23 C         -57.3272  -30.3536   14.2944 C.2       13 UNK         0.4989 
     24 O         -58.0859  -30.8226   13.4441 O.2       13 UNK        -0.4996 
     25 CA        -56.5304  -31.3033   15.2154 C.3       12 UNK         0.0216 
     26 CB        -56.4092  -32.7374   14.6539 C.3       12 UNK        -0.1964 
     27 N         -55.2206  -30.7592   15.5972 N.am      12 UNK        -0.4276 
     28 C         -54.1907  -30.4966   14.7806 C.2       12 UNK         0.5020 
     29 O         -54.1539  -30.8009   13.5887 O.2       12 UNK        -0.5489 
     30 CA        -53.0164  -29.7204   15.4014 C.3       11 UNK         0.0294 
     31 CB        -51.6621  -30.2780   14.9310 C.3       11 UNK        -0.2019 
     32 N         -53.0841  -28.2927   15.0795 N.am      11 UNK        -0.4493 
     33 C         -54.0619  -27.4499   15.4452 C.2       11 UNK         0.4932 
     34 O         -55.0556  -27.7851   16.0947 O.2       11 UNK        -0.5029 
     35 CA        -53.8624  -25.9794   15.0352 C.3       10 UNK         0.0280 
     36 CB        -54.9483  -25.0328   15.5881 C.3       10 UNK        -0.1976 
     37 N         -52.5170  -25.5094   15.3769 N.am      10 UNK        -0.4242 
     38 C         -51.9621  -25.4191   16.5961 C.2       10 UNK         0.5072 
     39 O         -52.5573  -25.6357   17.6523 O.2       10 UNK        -0.5224 
     40 CA        -50.4710  -25.0421   16.6456 C.3       9 UNK         0.0343 
     41 CB        -49.6031  -26.3117   16.6458 C.3       9 UNK        -0.2003 
     42 N         -50.0665  -24.1768   15.5351 N.am      9 UNK        -0.4272 
     43 C         -50.3900  -22.8799   15.4275 C.2       9 UNK         0.4988 
     44 O         -51.0131  -22.2531   16.2849 O.2       9 UNK        -0.5108 
     45 CA        -49.9466  -22.1613   14.1439 C.3       8 UNK         0.0248 
     46 CB        -48.5336  -21.5793   14.3106 C.3       8 UNK        -0.2001 
     47 N         -49.9788  -23.0433   12.9751 N.am      8 UNK        -0.4140 
     48 C         -51.0998  -23.3921   12.3233 C.2       8 UNK         0.5028 
     49 O         -52.2227  -22.9862   12.6224 O.2       8 UNK        -0.5428 
     50 CA        -50.9398  -24.3605   11.1359 C.3       7 UNK         0.0264 
     51 CB        -50.5208  -23.5553    9.8932 C.3       7 UNK        -0.1988 
     52 N         -49.9519  -25.4153   11.3805 N.am      7 UNK        -0.4454 
     53 C         -49.9631  -26.2754   12.4113 C.2       7 UNK         0.5027 
     54 O         -50.9068  -26.3877   13.1955 O.2       7 UNK        -0.5083 
     55 CA        -48.6727  -27.0775   12.6941 C.3       6 UNK         0.0844 
     56 C56       -48.8769  -28.6052   12.5478 C.3       14 UNK        -0.0967 
     57 S57       -48.7494  -29.2217   10.8353 S.3       14 UNK        -0.2604 
     58 C58       -50.3402  -30.0797   10.6005 C.3       14 UNK         0.0134 
     59 N         -47.4795  -26.5971   11.9862 N.am      6 UNK        -0.4116 
     60 C         -46.9226  -25.3838   12.0858 C.2       5 UNK         0.5034 
     61 O         -47.3712  -24.4950   12.8118 O.2       5 UNK        -0.5045 
     62 CA        -45.7042  -25.0740   11.1965 C.3       5 UNK         0.0224 
     63 CB        -44.3937  -25.1905   11.9980 C.3       5 UNK        -0.1978 
     64 N         -45.6316  -25.8280    9.9323 N.am      5 UNK        -0.4737 
     65 C         -45.4140  -27.1389    9.7357 C.2       4 UNK         0.5027 
     66 O         -45.2919  -27.9482   10.6545 O.2       4 UNK        -0.5211 
     67 CA        -45.3496  -27.6543    8.2833 C.3       4 UNK         0.0297 
     68 CB        -46.5728  -28.5293    7.9658 C.3       4 UNK        -0.1993 
     69 N         -45.2582  -26.5926    7.2797 N.am      4 UNK        -0.4486 
     70 C         -44.1810  -25.8250    7.0656 C.2       3 UNK         0.4961 
     71 O         -43.1045  -25.9766    7.6434 O.2       3 UNK        -0.5105 
     72 CA        -44.3405  -24.6684    6.0631 C.3       3 UNK         0.0299 
     73 CB        -43.9239  -25.1156    4.6530 C.3       3 UNK        -0.1972 
     74 N         -45.6979  -24.1115    6.0244 N.am      3 UNK        -0.4305 
     75 C         -46.3006  -23.4828    7.0459 C.2       2 UNK         0.5006 
     76 O         -45.7800  -23.3120    8.1483 O.2       2 UNK        -0.5106 
     77 CA        -47.7346  -22.9787    6.8092 C.3       2 UNK         0.0296 
     78 CB        -47.7188  -21.5606    6.2167 C.3       2 UNK        -0.2002 
     79 N         -48.5201  -23.8644    5.9452 N.am      2 UNK        -0.4032 
     80 C         -48.9367  -25.0874    6.3047 C.2       1 UNK         0.5000 
     81 O         -48.7046  -25.5806    7.4108 O.2       1 UNK        -0.5238 
     82 H82       -47.7622  -26.5876    1.7698 H         1 UNK         0.0889 
     83 H83       -46.6764  -27.8134    2.4234 H         1 UNK         0.0889 
     84 H84       -46.2034  -26.1125    2.4488 H         1 UNK         0.0889 
     85 H85       -49.3181  -25.7945    3.1509 H         1 UNK         0.3028 
     86 H86       -50.4952  -25.2222    4.8852 H         1 UNK         0.0864 
     87 H87       -49.8531  -27.6270    6.6036 H         1 UNK         0.0720 
     88 H88       -50.2641  -27.9851    4.9700 H         1 UNK         0.0720 
     89 H89       -52.9843  -25.5913    7.7777 H         1 UNK         0.0814 
     90 H90       -51.2640  -25.7937    7.9202 H         1 UNK         0.0814 
     91 H91       -50.3320  -28.0305    8.7770 H         1 UNK         0.1469 
     92 H92       -52.9064  -30.1051   11.5071 H         1 UNK         0.1381 
     93 H93       -54.4884  -27.0092    9.0046 H         1 UNK         0.1206 
     94 H94       -55.2963  -29.7636   11.4072 H         1 UNK         0.0813 
     95 H95       -55.9561  -28.8279   10.0866 H         1 UNK         0.0813 
     96 H96       -57.7577  -28.7223   11.7657 H         1 UNK         0.0638 
     97 H97       -58.0045  -26.9992   11.8346 H         1 UNK         0.0638 
     98 H98       -57.5038  -27.0345   14.2985 H         1 UNK         0.0568 
     99 H99       -60.9224  -28.4710   15.2485 H         1 UNK         0.3450 
    100 H100      -59.3396  -29.0177   15.7426 H         1 UNK         0.3450 
    101 H101      -56.4943  -28.7387   15.2104 H         1 UNK         0.2987 
    102 H102      -57.1066  -31.3680   16.1395 H         1 UNK         0.0766 
    103 H103      -55.8389  -33.3801   15.3243 H         1 UNK         0.0798 
    104 H104      -55.9226  -32.7530   13.6783 H         1 UNK         0.0798 
    105 H105      -57.3929  -33.1920   14.5300 H         1 UNK         0.0798 
    106 H106      -55.1528  -30.4286   16.5509 H         1 UNK         0.3198 
    107 H107      -53.0609  -29.8206   16.4879 H         1 UNK         0.0843 
    108 H108      -51.5567  -30.2141   13.8480 H         1 UNK         0.0831 
    109 H109      -51.5610  -31.3295   15.2028 H         1 UNK         0.0831 
    110 H110      -50.8282  -29.7434   15.3863 H         1 UNK         0.0831 
    111 H111      -52.3356  -27.9206   14.5099 H         1 UNK         0.3133 
    112 H112      -53.9218  -25.9483   13.9466 H         1 UNK         0.0566 
    113 H113      -54.7729  -24.0043   15.2727 H         1 UNK         0.0814 
    114 H114      -54.9877  -25.0489   16.6775 H         1 UNK         0.0814 
    115 H115      -55.9348  -25.3201   15.2236 H         1 UNK         0.0814 
    116 H116      -51.8979  -25.3978   14.5798 H         1 UNK         0.3091 
    117 H117      -50.2919  -24.5056   17.5801 H         1 UNK         0.0702 
    118 H118      -48.5406  -26.0703   16.6810 H         1 UNK         0.0785 
    119 H119      -49.7831  -26.9262   15.7635 H         1 UNK         0.0785 
    120 H120      -49.8234  -26.9294   17.5175 H         1 UNK         0.0785 
    121 H121      -49.5399  -24.6025   14.7871 H         1 UNK         0.2998 
    122 H122      -50.6356  -21.3314   13.9713 H         1 UNK         0.0697 
    123 H123      -47.7923  -22.3580   14.4945 H         1 UNK         0.0825 
    124 H124      -48.4945  -20.8874   15.1530 H         1 UNK         0.0825 
    125 H125      -48.2250  -21.0264   13.4232 H         1 UNK         0.0825 
    126 H126      -49.0928  -23.4482   12.6882 H         1 UNK         0.3029 
    127 H127      -51.9015  -24.8430   10.9472 H         1 UNK         0.0897 
    128 H128      -51.3057  -22.8569    9.5999 H         1 UNK         0.0792 
    129 H129      -50.3203  -24.1957    9.0395 H         1 UNK         0.0792 
    130 H130      -49.6171  -22.9713   10.0741 H         1 UNK         0.0792 
    131 H131      -49.1428  -25.4216   10.7769 H         1 UNK         0.3086 
    132 H132      -48.4661  -26.8981   13.7506 H         1 UNK         0.0583 
    133 H133      -48.1116  -29.1221   13.1289 H         1 UNK         0.1020 
    134 H134      -49.8251  -28.9124   12.9894 H         1 UNK         0.1020 
    135 H135      -50.2117  -30.8183    9.8084 H         1 UNK         0.0694 
    136 H136      -50.5843  -30.6429   11.5024 H         1 UNK         0.0694 
    137 H137      -47.0100  -27.2760   11.3953 H         1 UNK         0.2989 
    138 H138      -45.8108  -24.0286   10.9008 H         1 UNK         0.1055 
    139 H139      -44.4122  -24.5352   12.8699 H         1 UNK         0.0806 
    140 H140      -43.5336  -24.9012   11.3939 H         1 UNK         0.0806 
    141 H141      -44.2238  -26.2046   12.3608 H         1 UNK         0.0806 
    142 H142      -45.7378  -25.2535    9.1030 H         1 UNK         0.3061 
    143 H143      -44.4557  -28.2758    8.2004 H         1 UNK         0.0734 
    144 H144      -46.5237  -28.9314    6.9537 H         1 UNK         0.0832 
    145 H145      -46.6326  -29.3789    8.6469 H         1 UNK         0.0832 
    146 H146      -47.5041  -27.9689    8.0581 H         1 UNK         0.0832 
    147 H147      -46.0773  -26.4519    6.6955 H         1 UNK         0.3156 
    148 H148      -43.6678  -23.8674    6.3769 H         1 UNK         0.0589 
    149 H149      -44.5394  -25.9399    4.2924 H         1 UNK         0.0808 
    150 H150      -43.9961  -24.2983    3.9353 H         1 UNK         0.0808 
    151 H151      -42.8888  -25.4601    4.6465 H         1 UNK         0.0808 
    152 H152      -46.2113  -24.2275    5.1638 H         1 UNK         0.3098 
    153 H153      -48.2289  -22.9322    7.7821 H         1 UNK         0.0720 
    154 H154      -48.7277  -21.1578    6.1249 H         1 UNK         0.0791 
    155 H155      -47.2557  -21.5374    5.2294 H         1 UNK         0.0791 
    156 H156      -47.1570  -20.8779    6.8561 H         1 UNK         0.0791 
    157 H157      -48.7381  -23.5274    5.0183 H         1 UNK         0.3028 
@<TRIPOS>BOND
     1    1    2 1    
     2    1   82 1    
     3    1   83 1    
     4    1   84 1    
     5    2    3 2    
     6    2    4 am   BACKBONE|DICT|INTERRES
     7    4    5 1    
     8    4   85 1    
     9    5    6 1    
    10    5   80 1    
    11    5   86 1    
    12    6    7 1    
    13    6   87 1    
    14    6   88 1    
    15    7    8 1    
    16    8    9 1    
    17    8   89 1    
    18    8   90 1    
    19    9   10 ar   
    20    9   14 ar   
    21   10   11 ar   
    22   10   91 1    
    23   11   12 ar   
    24   11   58 1    
    25   12   13 ar   
    26   12   92 1    
    27   13   14 ar   
    28   13   15 1    
    29   14   93 1    
    30   15   16 1    
    31   15   94 1    
    32   15   95 1    
    33   16   17 1    
    34   17   18 1    
    35   17   96 1    
    36   17   97 1    
    37   18   19 1    
    38   18   22 1    
    39   18   98 1    
    40   19   20 am   BACKBONE|DICT|INTERRES
    41   19   21 2    
    42   20   99 1    
    43   20  100 1    
    44   22   23 am   BACKBONE|DICT|INTERRES
    45   22  101 1    
    46   23   24 2    
    47   23   25 1    
    48   25   26 1    
    49   25   27 1    
    50   25  102 1    
    51   26  103 1    
    52   26  104 1    
    53   26  105 1    
    54   27   28 am   BACKBONE|DICT|INTERRES
    55   27  106 1    
    56   28   29 2    
    57   28   30 1    
    58   30   31 1    
    59   30   32 1    
    60   30  107 1    
    61   31  108 1    
    62   31  109 1    
    63   31  110 1    
    64   32   33 am   BACKBONE|DICT|INTERRES
    65   32  111 1    
    66   33   34 2    
    67   33   35 1    
    68   35   36 1    
    69   35   37 1    
    70   35  112 1    
    71   36  113 1    
    72   36  114 1    
    73   36  115 1    
    74   37   38 am   BACKBONE|DICT|INTERRES
    75   37  116 1    
    76   38   39 2    
    77   38   40 1    
    78   40   41 1    
    79   40   42 1    
    80   40  117 1    
    81   41  118 1    
    82   41  119 1    
    83   41  120 1    
    84   42   43 am   BACKBONE|DICT|INTERRES
    85   42  121 1    
    86   43   44 2    
    87   43   45 1    
    88   45   46 1    
    89   45   47 1    
    90   45  122 1    
    91   46  123 1    
    92   46  124 1    
    93   46  125 1    
    94   47   48 am   BACKBONE|DICT|INTERRES
    95   47  126 1    
    96   48   49 2    
    97   48   50 1    
    98   50   51 1    
    99   50   52 1    
   100   50  127 1    
   101   51  128 1    
   102   51  129 1    
   103   51  130 1    
   104   52   53 am   BACKBONE|DICT|INTERRES
   105   52  131 1    
   106   53   54 2    
   107   53   55 1    
   108   55   56 1    
   109   55   59 1    
   110   55  132 1    
   111   56   57 1    
   112   56  133 1    
   113   56  134 1    
   114   57   58 1    
   115   58  135 1    
   116   58  136 1    
   117   59   60 am   BACKBONE|DICT|INTERRES
   118   59  137 1    
   119   60   61 2    
   120   60   62 1    
   121   62   63 1    
   122   62   64 1    
   123   62  138 1    
   124   63  139 1    
   125   63  140 1    
   126   63  141 1    
   127   64   65 am   BACKBONE|DICT|INTERRES
   128   64  142 1    
   129   65   66 2    
   130   65   67 1    
   131   67   68 1    
   132   67   69 1    
   133   67  143 1    
   134   68  144 1    
   135   68  145 1    
   136   68  146 1    
   137   69   70 am   BACKBONE|DICT|INTERRES
   138   69  147 1    
   139   70   71 2    
   140   70   72 1    
   141   72   73 1    
   142   72   74 1    
   143   72  148 1    
   144   73  149 1    
   145   73  150 1    
   146   73  151 1    
   147   74   75 am   BACKBONE|DICT|INTERRES
   148   74  152 1    
   149   75   76 2    
   150   75   77 1    
   151   77   78 1    
   152   77   79 1    
   153   77  153 1    
   154   78  154 1    
   155   78  155 1    
   156   78  156 1    
   157   79   80 am   BACKBONE|DICT|INTERRES
   158   79  157 1    
   159   80   81 2    
@<TRIPOS>SUBSTRUCTURE
     1 UNK         1 GROUP             0       ****    0 ROOT    
