@<TRIPOS>MOLECULE
3R207
157   159    1
SMALL
USER_CHARGES


@<TRIPOS>ATOM
      1 CA        -45.9515  -29.0659    8.5096 C.3       0 UNK        -0.1975 
      2 C         -46.7746  -28.8418    7.2511 C.2       0 UNK         0.4852 
      3 O         -46.2103  -28.6976    6.1649 O.2       0 UNK        -0.5216 
      4 N         -48.1046  -28.8154    7.3963 N.am      1 UNK        -0.4461 
      5 CA        -49.0600  -28.4820    6.3326 C.3       1 UNK         0.0864 
      6 C6        -50.4314  -29.1721    6.5562 C.3       14 UNK        -0.0898 
      7 S7        -50.2675  -30.9887    6.5413 S.3       14 UNK        -0.2598 
      8 C8        -51.6434  -31.5055    7.6183 C.3       14 UNK         0.0286 
      9 C9        -51.4566  -31.1070    9.0784 C.ar      14 UNK        -0.0844 
     10 C10       -50.2911  -31.4500    9.7702 C.ar      14 UNK        -0.0881 
     11 C11       -50.1431  -31.1240   11.1205 C.ar      14 UNK        -0.0643 
     12 C12       -51.1767  -30.4487   11.7794 C.ar      14 UNK        -0.0930 
     13 C13       -52.3582  -30.1053   11.1089 C.ar      14 UNK        -0.0827 
     14 C14       -52.4826  -30.4385    9.7528 C.ar      14 UNK        -0.1249 
     15 C15       -53.4643  -29.3973   11.9036 C.3       14 UNK         0.0141 
     16 S16       -55.0503  -29.1052   11.0404 S.3       14 UNK        -0.2313 
     17 C17       -54.6241  -27.7585    9.8788 C.3       14 UNK        -0.0915 
     18 CA        -55.3597  -26.4112   10.1188 C.3       13 UNK         0.0968 
     19 C         -56.8982  -26.5249    9.9155 C.2       13 UNK         0.5732 
     20 N         -57.3515  -26.5884    8.6702 N.am      13 UNK        -0.7310 
     21 O         -57.6796  -26.5862   10.8630 O.2       13 UNK        -0.5035 
     22 N         -54.9687  -25.7925   11.3924 N.am      13 UNK        -0.4233 
     23 C         -55.2186  -24.5210   11.7392 C.2       13 UNK         0.4989 
     24 O         -55.7778  -23.7089   10.9987 O.2       13 UNK        -0.4996 
     25 CA        -54.7422  -24.0767   13.1384 C.3       12 UNK         0.0216 
     26 CB        -55.4341  -22.7916   13.6438 C.3       12 UNK        -0.1964 
     27 N         -54.8151  -25.1612   14.1241 N.am      12 UNK        -0.4276 
     28 C         -55.9088  -25.7552   14.6180 C.2       12 UNK         0.5020 
     29 O         -57.0571  -25.3729   14.3907 O.2       12 UNK        -0.5489 
     30 CA        -55.7175  -26.9948   15.5191 C.3       11 UNK         0.0294 
     31 CB        -56.0492  -28.2791   14.7356 C.3       11 UNK        -0.2019 
     32 N         -54.4220  -27.1414   16.2080 N.am      11 UNK        -0.4493 
     33 C         -53.1934  -27.2671   15.6875 C.2       11 UNK         0.4932 
     34 O         -52.9351  -27.1609   14.4880 O.2       11 UNK        -0.5029 
     35 CA        -52.0694  -27.5868   16.6755 C.3       10 UNK         0.0280 
     36 CB        -51.6917  -29.0744   16.5809 C.3       10 UNK        -0.1976 
     37 N         -50.8988  -26.7743   16.3542 N.am      10 UNK        -0.4242 
     38 C         -50.4469  -25.7608   17.1031 C.2       10 UNK         0.5072 
     39 O         -50.9628  -25.4065   18.1647 O.2       10 UNK        -0.5224 
     40 CA        -49.1988  -25.0165   16.6000 C.3       9 UNK         0.0343 
     41 CB        -47.9289  -25.8331   16.8889 C.3       9 UNK        -0.2003 
     42 N         -49.2419  -24.6715   15.1786 N.am      9 UNK        -0.4272 
     43 C         -50.1068  -23.8116   14.6179 C.2       9 UNK         0.4988 
     44 O         -51.0087  -23.2391   15.2295 O.2       9 UNK        -0.5108 
     45 CA        -49.9183  -23.5328   13.1200 C.3       8 UNK         0.0248 
     46 CB        -48.7285  -22.5843   12.8945 C.3       8 UNK        -0.2001 
     47 N         -49.7103  -24.7874   12.3994 N.am      8 UNK        -0.4140 
     48 C         -50.7058  -25.5372   11.9070 C.2       8 UNK         0.5028 
     49 O         -51.8673  -25.1486   11.8072 O.2       8 UNK        -0.5428 
     50 CA        -50.3737  -26.9699   11.4668 C.3       7 UNK         0.0264 
     51 CB        -50.4843  -27.1550    9.9464 C.3       7 UNK        -0.1988 
     52 N         -49.0613  -27.4237   11.9136 N.am      7 UNK        -0.4454 
     53 C         -48.7963  -27.8699   13.1501 C.2       7 UNK         0.5027 
     54 O         -49.6288  -27.9217   14.0541 O.2       7 UNK        -0.5083 
     55 CA        -47.3398  -28.2836   13.4462 C.3       6 UNK         0.0844 
     56 C56       -47.1241  -29.8076   13.2689 C.3       14 UNK        -0.0967 
     57 S57       -47.4727  -30.4513   11.5879 S.3       14 UNK        -0.2604 
     58 C58       -48.8933  -31.5631   11.8733 C.3       14 UNK         0.0134 
     59 N         -46.3551  -27.4806   12.7123 N.am      6 UNK        -0.4116 
     60 C         -46.2401  -26.1474   12.8088 C.2       5 UNK         0.5034 
     61 O         -46.9427  -25.4594   13.5526 O.2       5 UNK        -0.5045 
     62 CA        -45.2282  -25.4397   11.8872 C.3       5 UNK         0.0224 
     63 CB        -44.2907  -26.3979   11.1176 C.3       5 UNK        -0.1978 
     64 N         -45.9018  -24.5240   10.9541 N.am      5 UNK        -0.4737 
     65 C         -46.8797  -24.8380   10.0916 C.2       4 UNK         0.5027 
     66 O         -47.3412  -25.9749    9.9675 O.2       4 UNK        -0.5211 
     67 CA        -47.4063  -23.6898    9.2185 C.3       4 UNK         0.0297 
     68 CB        -46.4907  -23.4883    8.0001 C.3       4 UNK        -0.1993 
     69 N         -48.7515  -24.0034    8.7406 N.am      4 UNK        -0.4486 
     70 C         -49.8517  -23.2634    8.9395 C.2       3 UNK         0.4961 
     71 O         -49.8464  -22.1835    9.5320 O.2       3 UNK        -0.5105 
     72 CA        -51.1835  -23.8176    8.3797 C.3       3 UNK         0.0299 
     73 CB        -52.2877  -22.7451    8.2675 C.3       3 UNK        -0.1972 
     74 N         -51.0257  -24.5466    7.1139 N.am      3 UNK        -0.4305 
     75 C         -50.5178  -24.0714    5.9652 C.2       2 UNK         0.5006 
     76 O         -50.2461  -22.8838    5.7793 O.2       2 UNK        -0.5106 
     77 CA        -50.2491  -25.0950    4.8350 C.3       2 UNK         0.0296 
     78 CB        -49.0661  -24.6604    3.9430 C.3       2 UNK        -0.2002 
     79 N         -50.0500  -26.4930    5.2625 N.am      2 UNK        -0.4032 
     80 C         -49.1842  -26.9478    6.1842 C.2       1 UNK         0.5000 
     81 O         -48.5170  -26.2017    6.9040 O.2       1 UNK        -0.5238 
     82 H82       -45.7974  -30.1312    8.6785 H         1 UNK         0.0889 
     83 H83       -46.4511  -28.6438    9.3812 H         1 UNK         0.0889 
     84 H84       -44.9772  -28.5868    8.4179 H         1 UNK         0.0889 
     85 H85       -48.5012  -28.9284    8.3171 H         1 UNK         0.3028 
     86 H86       -48.6593  -28.8452    5.3835 H         1 UNK         0.0864 
     87 H87       -51.1434  -28.9117    5.7719 H         1 UNK         0.0720 
     88 H88       -50.8796  -28.8485    7.4958 H         1 UNK         0.0720 
     89 H89       -51.7382  -32.5907    7.5657 H         1 UNK         0.0814 
     90 H90       -52.5725  -31.0979    7.2167 H         1 UNK         0.0814 
     91 H91       -49.5017  -31.9842    9.2591 H         1 UNK         0.1469 
     92 H92       -51.0666  -30.1996   12.8265 H         1 UNK         0.1381 
     93 H93       -53.3847  -30.1981    9.2108 H         1 UNK         0.1206 
     94 H94       -53.1004  -28.4396   12.2675 H         1 UNK         0.0813 
     95 H95       -53.6792  -29.9938   12.7912 H         1 UNK         0.0813 
     96 H96       -53.5492  -27.5919    9.9152 H         1 UNK         0.0638 
     97 H97       -54.8247  -28.1171    8.8680 H         1 UNK         0.0638 
     98 H98       -55.0055  -25.7260    9.3458 H         1 UNK         0.0568 
     99 H99       -56.7248  -26.5506    7.8820 H         1 UNK         0.3450 
    100 H100      -58.3438  -26.6748    8.5166 H         1 UNK         0.3450 
    101 H101      -54.5018  -26.3917   12.0558 H         1 UNK         0.2987 
    102 H102      -53.6830  -23.8409   13.0369 H         1 UNK         0.0766 
    103 H103      -56.5179  -22.9009   13.6871 H         1 UNK         0.0798 
    104 H104      -55.0822  -22.5165   14.6381 H         1 UNK         0.0798 
    105 H105      -55.2217  -21.9510   12.9821 H         1 UNK         0.0798 
    106 H106      -53.9341  -25.6355   14.3141 H         1 UNK         0.3198 
    107 H107      -56.4595  -26.8980   16.3136 H         1 UNK         0.0843 
    108 H108      -57.0314  -28.2119   14.2652 H         1 UNK         0.0831 
    109 H109      -56.0610  -29.1521   15.3878 H         1 UNK         0.0831 
    110 H110      -55.3251  -28.4623   13.9437 H         1 UNK         0.0831 
    111 H111      -54.4956  -27.2013   17.2149 H         1 UNK         0.3133 
    112 H112      -52.4145  -27.3864   17.6918 H         1 UNK         0.0566 
    113 H113      -50.8787  -29.3207   17.2639 H         1 UNK         0.0814 
    114 H114      -52.5392  -29.7100   16.8403 H         1 UNK         0.0814 
    115 H115      -51.3759  -29.3485   15.5732 H         1 UNK         0.0814 
    116 H116      -50.4430  -26.9972   15.4708 H         1 UNK         0.3091 
    117 H117      -49.1286  -24.0801   17.1574 H         1 UNK         0.0702 
    118 H118      -47.0307  -25.2904   16.5931 H         1 UNK         0.0785 
    119 H119      -47.9342  -26.7861   16.3599 H         1 UNK         0.0785 
    120 H120      -47.8402  -26.0521   17.9539 H         1 UNK         0.0785 
    121 H121      -48.4959  -25.0510   14.6030 H         1 UNK         0.2998 
    122 H122      -50.8172  -23.0366   12.7471 H         1 UNK         0.0697 
    123 H123      -47.7875  -23.0059   13.2470 H         1 UNK         0.0825 
    124 H124      -48.8798  -21.6430   13.4243 H         1 UNK         0.0825 
    125 H125      -48.6103  -22.3410   11.8407 H         1 UNK         0.0825 
    126 H126      -48.7840  -25.1916   12.4494 H         1 UNK         0.3029 
    127 H127      -51.1210  -27.6053   11.9363 H         1 UNK         0.0897 
    128 H128      -50.3421  -28.2010    9.6781 H         1 UNK         0.0792 
    129 H129      -49.7465  -26.5665    9.4062 H         1 UNK         0.0792 
    130 H130      -51.4658  -26.8576    9.5831 H         1 UNK         0.0792 
    131 H131      -48.3045  -27.3353   11.2431 H         1 UNK         0.3086 
    132 H132      -47.1702  -28.0660   14.5023 H         1 UNK         0.0583 
    133 H133      -46.0902  -30.0574   13.5121 H         1 UNK         0.1020 
    134 H134      -47.7186  -30.3437   14.0099 H         1 UNK         0.1020 
    135 H135      -48.6123  -32.5653   11.5464 H         1 UNK         0.0694 
    136 H136      -49.1160  -31.6568   12.9363 H         1 UNK         0.0694 
    137 H137      -45.7743  -27.9740   12.0508 H         1 UNK         0.2989 
    138 H138      -44.6088  -24.8248   12.5423 H         1 UNK         0.1055 
    139 H139      -43.7437  -27.0520   11.7981 H         1 UNK         0.0806 
    140 H140      -43.5457  -25.8384   10.5517 H         1 UNK         0.0806 
    141 H141      -44.8307  -27.0250   10.4089 H         1 UNK         0.0806 
    142 H142      -45.6003  -23.5603   11.0016 H         1 UNK         0.3061 
    143 H143      -47.4120  -22.7749    9.8133 H         1 UNK         0.0734 
    144 H144      -46.8542  -22.6825    7.3621 H         1 UNK         0.0832 
    145 H145      -45.4764  -23.2292    8.3060 H         1 UNK         0.0832 
    146 H146      -46.4285  -24.3921    7.3918 H         1 UNK         0.0832 
    147 H147      -48.8158  -24.8826    8.2294 H         1 UNK         0.3156 
    148 H148      -51.5307  -24.5486    9.1084 H         1 UNK         0.0589 
    149 H149      -51.9964  -21.9307    7.6037 H         1 UNK         0.0808 
    150 H150      -53.2181  -23.1707    7.8917 H         1 UNK         0.0808 
    151 H151      -52.5058  -22.3082    9.2429 H         1 UNK         0.0808 
    152 H152      -51.2169  -25.5367    7.1534 H         1 UNK         0.3098 
    153 H153      -51.1474  -25.0924    4.2158 H         1 UNK         0.0720 
    154 H154      -48.9039  -25.3639    3.1264 H         1 UNK         0.0791 
    155 H155      -48.1396  -24.5908    4.5146 H         1 UNK         0.0791 
    156 H156      -49.2460  -23.6837    3.4920 H         1 UNK         0.0791 
    157 H157      -50.5795  -27.1753    4.7372 H         1 UNK         0.3028 
@<TRIPOS>BOND
     1    1    2 1    
     2    1   82 1    
     3    1   83 1    
     4    1   84 1    
     5    2    3 2    
     6    2    4 am   BACKBONE|DICT|INTERRES
     7    4    5 1    
     8    4   85 1    
     9    5    6 1    
    10    5   80 1    
    11    5   86 1    
    12    6    7 1    
    13    6   87 1    
    14    6   88 1    
    15    7    8 1    
    16    8    9 1    
    17    8   89 1    
    18    8   90 1    
    19    9   10 ar   
    20    9   14 ar   
    21   10   11 ar   
    22   10   91 1    
    23   11   12 ar   
    24   11   58 1    
    25   12   13 ar   
    26   12   92 1    
    27   13   14 ar   
    28   13   15 1    
    29   14   93 1    
    30   15   16 1    
    31   15   94 1    
    32   15   95 1    
    33   16   17 1    
    34   17   18 1    
    35   17   96 1    
    36   17   97 1    
    37   18   19 1    
    38   18   22 1    
    39   18   98 1    
    40   19   20 am   BACKBONE|DICT|INTERRES
    41   19   21 2    
    42   20   99 1    
    43   20  100 1    
    44   22   23 am   BACKBONE|DICT|INTERRES
    45   22  101 1    
    46   23   24 2    
    47   23   25 1    
    48   25   26 1    
    49   25   27 1    
    50   25  102 1    
    51   26  103 1    
    52   26  104 1    
    53   26  105 1    
    54   27   28 am   BACKBONE|DICT|INTERRES
    55   27  106 1    
    56   28   29 2    
    57   28   30 1    
    58   30   31 1    
    59   30   32 1    
    60   30  107 1    
    61   31  108 1    
    62   31  109 1    
    63   31  110 1    
    64   32   33 am   BACKBONE|DICT|INTERRES
    65   32  111 1    
    66   33   34 2    
    67   33   35 1    
    68   35   36 1    
    69   35   37 1    
    70   35  112 1    
    71   36  113 1    
    72   36  114 1    
    73   36  115 1    
    74   37   38 am   BACKBONE|DICT|INTERRES
    75   37  116 1    
    76   38   39 2    
    77   38   40 1    
    78   40   41 1    
    79   40   42 1    
    80   40  117 1    
    81   41  118 1    
    82   41  119 1    
    83   41  120 1    
    84   42   43 am   BACKBONE|DICT|INTERRES
    85   42  121 1    
    86   43   44 2    
    87   43   45 1    
    88   45   46 1    
    89   45   47 1    
    90   45  122 1    
    91   46  123 1    
    92   46  124 1    
    93   46  125 1    
    94   47   48 am   BACKBONE|DICT|INTERRES
    95   47  126 1    
    96   48   49 2    
    97   48   50 1    
    98   50   51 1    
    99   50   52 1    
   100   50  127 1    
   101   51  128 1    
   102   51  129 1    
   103   51  130 1    
   104   52   53 am   BACKBONE|DICT|INTERRES
   105   52  131 1    
   106   53   54 2    
   107   53   55 1    
   108   55   56 1    
   109   55   59 1    
   110   55  132 1    
   111   56   57 1    
   112   56  133 1    
   113   56  134 1    
   114   57   58 1    
   115   58  135 1    
   116   58  136 1    
   117   59   60 am   BACKBONE|DICT|INTERRES
   118   59  137 1    
   119   60   61 2    
   120   60   62 1    
   121   62   63 1    
   122   62   64 1    
   123   62  138 1    
   124   63  139 1    
   125   63  140 1    
   126   63  141 1    
   127   64   65 am   BACKBONE|DICT|INTERRES
   128   64  142 1    
   129   65   66 2    
   130   65   67 1    
   131   67   68 1    
   132   67   69 1    
   133   67  143 1    
   134   68  144 1    
   135   68  145 1    
   136   68  146 1    
   137   69   70 am   BACKBONE|DICT|INTERRES
   138   69  147 1    
   139   70   71 2    
   140   70   72 1    
   141   72   73 1    
   142   72   74 1    
   143   72  148 1    
   144   73  149 1    
   145   73  150 1    
   146   73  151 1    
   147   74   75 am   BACKBONE|DICT|INTERRES
   148   74  152 1    
   149   75   76 2    
   150   75   77 1    
   151   77   78 1    
   152   77   79 1    
   153   77  153 1    
   154   78  154 1    
   155   78  155 1    
   156   78  156 1    
   157   79   80 am   BACKBONE|DICT|INTERRES
   158   79  157 1    
   159   80   81 2    
@<TRIPOS>SUBSTRUCTURE
     1 UNK         1 GROUP             0       ****    0 ROOT    
