@<TRIPOS>MOLECULE
3R207
157   159    1
SMALL
USER_CHARGES


@<TRIPOS>ATOM
      1 CA        -48.9283  -25.1744    2.0900 C.3       0 UNK        -0.1975 
      2 C         -48.7384  -25.5347    3.5562 C.2       0 UNK         0.4852 
      3 O         -48.1472  -24.7557    4.3056 O.2       0 UNK        -0.5216 
      4 N         -49.2427  -26.7036    3.9715 N.am      1 UNK        -0.4461 
      5 CA        -49.1123  -27.2363    5.3311 C.3       1 UNK         0.0864 
      6 C6        -50.0807  -28.4217    5.5739 C.3       14 UNK        -0.0898 
      7 S7        -51.8105  -27.8649    5.7317 S.3       14 UNK        -0.2598 
      8 C8        -52.1331  -28.2957    7.4701 C.3       14 UNK         0.0286 
      9 C9        -53.4723  -27.7582    7.9507 C.ar      14 UNK        -0.0844 
     10 C10       -53.5863  -26.4213    8.3425 C.ar      14 UNK        -0.0881 
     11 C11       -54.8029  -25.9204    8.8155 C.ar      14 UNK        -0.0643 
     12 C12       -55.9129  -26.7660    8.8852 C.ar      14 UNK        -0.0930 
     13 C13       -55.8119  -28.1067    8.5015 C.ar      14 UNK        -0.0827 
     14 C14       -54.5891  -28.5970    8.0310 C.ar      14 UNK        -0.1249 
     15 C15       -57.0313  -29.0165    8.5792 C.3       14 UNK         0.0141 
     16 S16       -56.9353  -30.2132    9.9504 S.3       14 UNK        -0.2313 
     17 C17       -57.0275  -29.1383   11.4254 C.3       14 UNK        -0.0915 
     18 CA        -56.2866  -29.6553   12.6969 C.3       13 UNK         0.0968 
     19 C         -56.9467  -30.8876   13.3905 C.2       13 UNK         0.5732 
     20 N         -56.2091  -31.6855   14.1546 N.am      13 UNK        -0.7310 
     21 O         -58.1524  -31.0996   13.2808 O.2       13 UNK        -0.5035 
     22 N         -54.8190  -29.6884   12.5560 N.am      13 UNK        -0.4233 
     23 C         -54.0645  -30.6426   11.9899 C.2       13 UNK         0.4989 
     24 O         -54.4946  -31.6749   11.4759 O.2       13 UNK        -0.4996 
     25 CA        -52.5440  -30.4210   12.0338 C.3       12 UNK         0.0216 
     26 CB        -52.0951  -29.6284   10.7962 C.3       12 UNK        -0.1964 
     27 N         -52.0679  -29.7506   13.2493 N.am      12 UNK        -0.4276 
     28 C         -52.2069  -30.2171   14.5013 C.2       12 UNK         0.5020 
     29 O         -52.8046  -31.2569   14.7823 O.2       12 UNK        -0.5489 
     30 CA        -51.5829  -29.3854   15.6341 C.3       11 UNK         0.0294 
     31 CB        -50.1580  -29.8727   15.9429 C.3       11 UNK        -0.2019 
     32 N         -51.5379  -27.9624   15.3020 N.am      11 UNK        -0.4493 
     33 C         -52.5178  -27.0857   15.5471 C.2       11 UNK         0.4932 
     34 O         -53.5570  -27.3714   16.1438 O.2       11 UNK        -0.5029 
     35 CA        -52.3038  -25.6594   15.0029 C.3       10 UNK         0.0280 
     36 CB        -53.2224  -24.6160   15.6764 C.3       10 UNK        -0.1976 
     37 N         -50.8978  -25.2247   15.0249 N.am      10 UNK        -0.4242 
     38 C         -50.1242  -25.0647   16.1109 C.2       10 UNK         0.5072 
     39 O         -50.5266  -25.2165   17.2651 O.2       10 UNK        -0.5224 
     40 CA        -48.6466  -24.6975   15.9007 C.3       9 UNK         0.0343 
     41 CB        -47.7742  -25.9647   15.9697 C.3       9 UNK        -0.2003 
     42 N         -48.3782  -23.9742   14.6522 N.am      9 UNK        -0.4272 
     43 C         -47.3426  -23.1427   14.4721 C.2       9 UNK         0.4988 
     44 O         -46.5465  -22.8379   15.3618 O.2       9 UNK        -0.5108 
     45 CA        -47.1462  -22.5472   13.0696 C.3       8 UNK         0.0248 
     46 CB        -46.5339  -23.5859   12.1157 C.3       8 UNK        -0.2001 
     47 N         -48.3965  -22.0545   12.4933 N.am      8 UNK        -0.4140 
     48 C         -48.7352  -20.7622   12.3903 C.2       8 UNK         0.5028 
     49 O         -48.0621  -19.8395   12.8525 O.2       8 UNK        -0.5428 
     50 CA        -50.0174  -20.4196   11.6068 C.3       7 UNK         0.0264 
     51 CB        -49.6596  -19.8460   10.2251 C.3       7 UNK        -0.1988 
     52 N         -50.9159  -21.5620   11.4226 N.am      7 UNK        -0.4454 
     53 C         -51.7627  -22.0099   12.3588 C.2       7 UNK         0.5027 
     54 O         -51.8970  -21.4861   13.4649 O.2       7 UNK        -0.5083 
     55 CA        -52.5857  -23.2678   12.0136 C.3       6 UNK         0.0844 
     56 C56       -53.9458  -22.8756   11.3865 C.3       14 UNK        -0.0967 
     57 S57       -54.9940  -24.3365   11.0667 S.3       14 UNK        -0.2604 
     58 C58       -54.9230  -24.4683    9.2504 C.3       14 UNK         0.0134 
     59 N         -51.8693  -24.2668   11.2054 N.am      6 UNK        -0.4116 
     60 C         -50.6887  -24.8323   11.4889 C.2       5 UNK         0.5034 
     61 O         -49.9798  -24.4983   12.4403 O.2       5 UNK        -0.5045 
     62 CA        -50.2184  -25.9338   10.5251 C.3       5 UNK         0.0224 
     63 CB        -49.7865  -25.3136    9.1861 C.3       5 UNK        -0.1978 
     64 N         -49.1221  -26.7625   11.0487 N.am      5 UNK        -0.4737 
     65 C         -49.2099  -27.5660   12.1211 C.2       4 UNK         0.5027 
     66 O         -50.2179  -27.6408   12.8251 O.2       4 UNK        -0.5211 
     67 CA        -48.0216  -28.4890   12.4564 C.3       4 UNK         0.0297 
     68 CB        -48.3969  -29.9552   12.1824 C.3       4 UNK        -0.1993 
     69 N         -46.8065  -28.1772   11.7056 N.am      4 UNK        -0.4486 
     70 C         -45.8900  -27.2679   12.0601 C.2       3 UNK         0.4961 
     71 O         -45.9231  -26.6512   13.1236 O.2       3 UNK        -0.5105 
     72 CA        -44.7392  -26.9894   11.0661 C.3       3 UNK         0.0299 
     73 CB        -43.4115  -27.5323   11.6198 C.3       3 UNK        -0.1972 
     74 N         -44.9375  -27.5120    9.7043 N.am      3 UNK        -0.4305 
     75 C         -45.9415  -27.1733    8.8842 C.2       2 UNK         0.5006 
     76 O         -46.8349  -26.3849    9.2047 O.2       2 UNK        -0.5106 
     77 CA        -46.0019  -27.8679    7.5137 C.3       2 UNK         0.0296 
     78 CB        -45.8980  -29.4042    7.6388 C.3       2 UNK        -0.2002 
     79 N         -47.2753  -27.4967    6.9058 N.am      2 UNK        -0.4032 
     80 C         -47.6605  -27.6599    5.6371 C.2       1 UNK         0.5000 
     81 O         -46.9550  -28.1560    4.7539 O.2       1 UNK        -0.5238 
     82 H82       -49.4784  -25.9440    1.5487 H         1 UNK         0.0889 
     83 H83       -47.9599  -25.0467    1.6070 H         1 UNK         0.0889 
     84 H84       -49.4797  -24.2386    2.0019 H         1 UNK         0.0889 
     85 H85       -49.7080  -27.3078    3.3097 H         1 UNK         0.3028 
     86 H86       -49.3718  -26.4302    6.0211 H         1 UNK         0.0864 
     87 H87       -50.0172  -29.1463    4.7599 H         1 UNK         0.0720 
     88 H88       -49.8089  -28.9722    6.4772 H         1 UNK         0.0720 
     89 H89       -51.3361  -27.8990    8.1003 H         1 UNK         0.0814 
     90 H90       -52.0981  -29.3809    7.5770 H         1 UNK         0.0814 
     91 H91       -52.7259  -25.7723    8.2694 H         1 UNK         0.1469 
     92 H92       -56.8541  -26.3785    9.2508 H         1 UNK         0.1381 
     93 H93       -54.5082  -29.6340    7.7348 H         1 UNK         0.1206 
     94 H94       -57.9471  -28.4319    8.6800 H         1 UNK         0.0813 
     95 H95       -57.1254  -29.5665    7.6419 H         1 UNK         0.0813 
     96 H96       -58.0817  -28.9641   11.6467 H         1 UNK         0.0638 
     97 H97       -56.6250  -28.1583   11.1718 H         1 UNK         0.0638 
     98 H98       -56.4391  -28.8725   13.4406 H         1 UNK         0.0568 
     99 H99       -56.6449  -32.4698   14.6126 H         1 UNK         0.3450 
    100 H100      -55.2167  -31.5274   14.2563 H         1 UNK         0.3450 
    101 H101      -54.3339  -28.9074   12.9705 H         1 UNK         0.2987 
    102 H102      -52.0701  -31.4042   11.9995 H         1 UNK         0.0766 
    103 H103      -51.0102  -29.5649   10.7296 H         1 UNK         0.0798 
    104 H104      -52.4959  -28.6140   10.7998 H         1 UNK         0.0798 
    105 H105      -52.4444  -30.1130    9.8839 H         1 UNK         0.0798 
    106 H106      -51.5225  -28.9016   13.1133 H         1 UNK         0.3198 
    107 H107      -52.1927  -29.5317   16.5286 H         1 UNK         0.0843 
    108 H108      -49.4860  -29.7293   15.0969 H         1 UNK         0.0831 
    109 H109      -50.1534  -30.9357   16.1884 H         1 UNK         0.0831 
    110 H110      -49.7365  -29.3416   16.7965 H         1 UNK         0.0831 
    111 H111      -50.7711  -27.6564   14.7114 H         1 UNK         0.3133 
    112 H112      -52.5810  -25.7213   13.9509 H         1 UNK         0.0566 
    113 H113      -53.0243  -23.6083   15.3120 H         1 UNK         0.0814 
    114 H114      -54.2720  -24.8340   15.4758 H         1 UNK         0.0814 
    115 H115      -53.0956  -24.6064   16.7593 H         1 UNK         0.0814 
    116 H116      -50.4797  -25.0963   14.1081 H         1 UNK         0.3091 
    117 H117      -48.3766  -24.0501   16.7379 H         1 UNK         0.0702 
    118 H118      -47.9549  -26.5193   16.8915 H         1 UNK         0.0785 
    119 H119      -46.7119  -25.7213   15.9412 H         1 UNK         0.0785 
    120 H120      -47.9828  -26.6356   15.1367 H         1 UNK         0.0785 
    121 H121      -48.9818  -24.1678   13.8570 H         1 UNK         0.2998 
    122 H122      -46.4292  -21.7283   13.1606 H         1 UNK         0.0697 
    123 H123      -47.2001  -24.4348   11.9563 H         1 UNK         0.0825 
    124 H124      -45.5970  -23.9750   12.5162 H         1 UNK         0.0825 
    125 H125      -46.3131  -23.1498   11.1415 H         1 UNK         0.0825 
    126 H126      -49.0422  -22.7582   12.1563 H         1 UNK         0.3029 
    127 H127      -50.5429  -19.6442   12.1693 H         1 UNK         0.0897 
    128 H128      -50.5514  -19.5342    9.6810 H         1 UNK         0.0792 
    129 H129      -49.1262  -20.5726    9.6107 H         1 UNK         0.0792 
    130 H130      -49.0186  -18.9683   10.3205 H         1 UNK         0.0792 
    131 H131      -50.8707  -22.0426   10.5357 H         1 UNK         0.3086 
    132 H132      -52.8048  -23.7467   12.9647 H         1 UNK         0.0583 
    133 H133      -54.4972  -22.2217   12.0657 H         1 UNK         0.1020 
    134 H134      -53.8068  -22.2989   10.4702 H         1 UNK         0.1020 
    135 H135      -55.8260  -24.0277    8.8249 H         1 UNK         0.0694 
    136 H136      -54.0870  -23.8914    8.8531 H         1 UNK         0.0694 
    137 H137      -52.3907  -24.6166   10.4167 H         1 UNK         0.2989 
    138 H138      -51.0682  -26.5962   10.3491 H         1 UNK         0.1055 
    139 H139      -50.5769  -24.7082    8.7417 H         1 UNK         0.0806 
    140 H140      -49.5335  -26.0851    8.4612 H         1 UNK         0.0806 
    141 H141      -48.9154  -24.6677    9.3068 H         1 UNK         0.0806 
    142 H142      -48.2422  -26.7111   10.5447 H         1 UNK         0.3061 
    143 H143      -47.8208  -28.3863   13.5242 H         1 UNK         0.0734 
    144 H144      -47.6007  -30.6312   12.4945 H         1 UNK         0.0832 
    145 H145      -49.2937  -30.2466   12.7290 H         1 UNK         0.0832 
    146 H146      -48.5909  -30.1332   11.1240 H         1 UNK         0.0832 
    147 H147      -46.6885  -28.6423   10.8183 H         1 UNK         0.3156 
    148 H148      -44.6531  -25.9040   10.9846 H         1 UNK         0.0589 
    149 H149      -43.4233  -28.6199   11.7014 H         1 UNK         0.0808 
    150 H150      -42.5702  -27.2499   10.9866 H         1 UNK         0.0808 
    151 H151      -43.2102  -27.1338   12.6155 H         1 UNK         0.0808 
    152 H152      -44.2480  -28.1726    9.3747 H         1 UNK         0.3098 
    153 H153      -45.1866  -27.4849    6.8971 H         1 UNK         0.0720 
    154 H154      -45.9873  -29.8910    6.6677 H         1 UNK         0.0791 
    155 H155      -46.6789  -29.8098    8.2834 H         1 UNK         0.0791 
    156 H156      -44.9366  -29.7109    8.0514 H         1 UNK         0.0791 
    157 H157      -47.8784  -27.0073    7.5559 H         1 UNK         0.3028 
@<TRIPOS>BOND
     1    1    2 1    
     2    1   82 1    
     3    1   83 1    
     4    1   84 1    
     5    2    3 2    
     6    2    4 am   BACKBONE|DICT|INTERRES
     7    4    5 1    
     8    4   85 1    
     9    5    6 1    
    10    5   80 1    
    11    5   86 1    
    12    6    7 1    
    13    6   87 1    
    14    6   88 1    
    15    7    8 1    
    16    8    9 1    
    17    8   89 1    
    18    8   90 1    
    19    9   10 ar   
    20    9   14 ar   
    21   10   11 ar   
    22   10   91 1    
    23   11   12 ar   
    24   11   58 1    
    25   12   13 ar   
    26   12   92 1    
    27   13   14 ar   
    28   13   15 1    
    29   14   93 1    
    30   15   16 1    
    31   15   94 1    
    32   15   95 1    
    33   16   17 1    
    34   17   18 1    
    35   17   96 1    
    36   17   97 1    
    37   18   19 1    
    38   18   22 1    
    39   18   98 1    
    40   19   20 am   BACKBONE|DICT|INTERRES
    41   19   21 2    
    42   20   99 1    
    43   20  100 1    
    44   22   23 am   BACKBONE|DICT|INTERRES
    45   22  101 1    
    46   23   24 2    
    47   23   25 1    
    48   25   26 1    
    49   25   27 1    
    50   25  102 1    
    51   26  103 1    
    52   26  104 1    
    53   26  105 1    
    54   27   28 am   BACKBONE|DICT|INTERRES
    55   27  106 1    
    56   28   29 2    
    57   28   30 1    
    58   30   31 1    
    59   30   32 1    
    60   30  107 1    
    61   31  108 1    
    62   31  109 1    
    63   31  110 1    
    64   32   33 am   BACKBONE|DICT|INTERRES
    65   32  111 1    
    66   33   34 2    
    67   33   35 1    
    68   35   36 1    
    69   35   37 1    
    70   35  112 1    
    71   36  113 1    
    72   36  114 1    
    73   36  115 1    
    74   37   38 am   BACKBONE|DICT|INTERRES
    75   37  116 1    
    76   38   39 2    
    77   38   40 1    
    78   40   41 1    
    79   40   42 1    
    80   40  117 1    
    81   41  118 1    
    82   41  119 1    
    83   41  120 1    
    84   42   43 am   BACKBONE|DICT|INTERRES
    85   42  121 1    
    86   43   44 2    
    87   43   45 1    
    88   45   46 1    
    89   45   47 1    
    90   45  122 1    
    91   46  123 1    
    92   46  124 1    
    93   46  125 1    
    94   47   48 am   BACKBONE|DICT|INTERRES
    95   47  126 1    
    96   48   49 2    
    97   48   50 1    
    98   50   51 1    
    99   50   52 1    
   100   50  127 1    
   101   51  128 1    
   102   51  129 1    
   103   51  130 1    
   104   52   53 am   BACKBONE|DICT|INTERRES
   105   52  131 1    
   106   53   54 2    
   107   53   55 1    
   108   55   56 1    
   109   55   59 1    
   110   55  132 1    
   111   56   57 1    
   112   56  133 1    
   113   56  134 1    
   114   57   58 1    
   115   58  135 1    
   116   58  136 1    
   117   59   60 am   BACKBONE|DICT|INTERRES
   118   59  137 1    
   119   60   61 2    
   120   60   62 1    
   121   62   63 1    
   122   62   64 1    
   123   62  138 1    
   124   63  139 1    
   125   63  140 1    
   126   63  141 1    
   127   64   65 am   BACKBONE|DICT|INTERRES
   128   64  142 1    
   129   65   66 2    
   130   65   67 1    
   131   67   68 1    
   132   67   69 1    
   133   67  143 1    
   134   68  144 1    
   135   68  145 1    
   136   68  146 1    
   137   69   70 am   BACKBONE|DICT|INTERRES
   138   69  147 1    
   139   70   71 2    
   140   70   72 1    
   141   72   73 1    
   142   72   74 1    
   143   72  148 1    
   144   73  149 1    
   145   73  150 1    
   146   73  151 1    
   147   74   75 am   BACKBONE|DICT|INTERRES
   148   74  152 1    
   149   75   76 2    
   150   75   77 1    
   151   77   78 1    
   152   77   79 1    
   153   77  153 1    
   154   78  154 1    
   155   78  155 1    
   156   78  156 1    
   157   79   80 am   BACKBONE|DICT|INTERRES
   158   79  157 1    
   159   80   81 2    
@<TRIPOS>SUBSTRUCTURE
     1 UNK         1 GROUP             0       ****    0 ROOT    
