@<TRIPOS>MOLECULE
3R207
157   159    1
SMALL
USER_CHARGES


@<TRIPOS>ATOM
      1 CA        -50.8051  -26.5409    4.4477 C.3       0 UNK        -0.1975 
      2 C         -49.7109  -26.3270    5.4825 C.2       0 UNK         0.4852 
      3 O         -49.3046  -25.1900    5.7151 O.2       0 UNK        -0.5216 
      4 N         -49.2320  -27.4132    6.1055 N.am      1 UNK        -0.4461 
      5 CA        -48.2160  -27.3885    7.1688 C.3       1 UNK         0.0864 
      6 C6        -48.3603  -28.5892    8.1403 C.3       14 UNK        -0.0898 
      7 S7        -49.7740  -28.3585    9.2724 S.3       14 UNK        -0.2598 
      8 C8        -51.1058  -29.2599    8.4190 C.3       14 UNK         0.0286 
      9 C9        -52.4313  -28.5225    8.5404 C.ar      14 UNK        -0.0844 
     10 C10       -52.5928  -27.2797    7.9215 C.ar      14 UNK        -0.0881 
     11 C11       -53.8000  -26.5809    8.0151 C.ar      14 UNK        -0.0643 
     12 C12       -54.8603  -27.1533    8.7245 C.ar      14 UNK        -0.0930 
     13 C13       -54.7229  -28.4063    9.3310 C.ar      14 UNK        -0.0827 
     14 C14       -53.5021  -29.0837    9.2426 C.ar      14 UNK        -0.1249 
     15 C15       -55.9103  -29.0366   10.0461 C.3       14 UNK         0.0141 
     16 S16       -55.8932  -28.6838   11.8302 S.3       14 UNK        -0.2313 
     17 C17       -54.7815  -29.9877   12.4599 C.3       14 UNK        -0.0915 
     18 CA        -55.3503  -30.7131   13.7086 C.3       13 UNK         0.0968 
     19 C         -54.4467  -31.9024   14.1501 C.2       13 UNK         0.5732 
     20 N         -54.0711  -32.0354   15.4180 N.am      13 UNK        -0.7310 
     21 O         -54.0897  -32.7400   13.3249 O.2       13 UNK        -0.5035 
     22 N         -55.6407  -29.7710   14.7996 N.am      13 UNK        -0.4233 
     23 C         -56.6949  -29.8600   15.6195 C.2       13 UNK         0.4989 
     24 O         -57.5798  -30.7106   15.5036 O.2       13 UNK        -0.4996 
     25 CA        -56.7739  -28.8275   16.7628 C.3       12 UNK         0.0216 
     26 CB        -57.7330  -29.2580   17.8934 C.3       12 UNK        -0.1964 
     27 N         -55.4657  -28.4561   17.3164 N.am      12 UNK        -0.4276 
     28 C         -54.5464  -29.2709   17.8615 C.2       12 UNK         0.5020 
     29 O         -54.6879  -30.4919   17.9457 O.2       12 UNK        -0.5489 
     30 CA        -53.2370  -28.6318   18.3672 C.3       11 UNK         0.0294 
     31 CB        -52.0124  -29.4848   17.9869 C.3       11 UNK        -0.2019 
     32 N         -53.0550  -27.2849   17.8250 N.am      11 UNK        -0.4493 
     33 C         -53.3141  -26.1382   18.4684 C.2       11 UNK         0.4932 
     34 O         -53.6509  -26.0773   19.6505 O.2       11 UNK        -0.5029 
     35 CA        -53.2165  -24.8375   17.6468 C.3       10 UNK         0.0280 
     36 CB        -51.8894  -24.1183   17.9342 C.3       10 UNK        -0.1976 
     37 N         -53.3556  -25.0579   16.2020 N.am      10 UNK        -0.4242 
     38 C         -54.4986  -25.4349   15.6036 C.2       10 UNK         0.5072 
     39 O         -55.5640  -25.5701   16.2057 O.2       10 UNK        -0.5224 
     40 CA        -54.4390  -25.8023   14.1086 C.3       9 UNK         0.0343 
     41 CB        -54.8212  -24.5987   13.2351 C.3       9 UNK        -0.2003 
     42 N         -53.1329  -26.3205   13.6934 N.am      9 UNK        -0.4272 
     43 C         -52.5804  -27.4450   14.1764 C.2       9 UNK         0.4988 
     44 O         -53.1668  -28.1976   14.9548 O.2       9 UNK        -0.5108 
     45 CA        -51.1265  -27.7720   13.7851 C.3       8 UNK         0.0248 
     46 CB        -51.0840  -28.8945   12.7371 C.3       8 UNK        -0.2001 
     47 N         -50.3633  -26.6233   13.2914 N.am      8 UNK        -0.4140 
     48 C         -50.1038  -25.5035   13.9833 C.2       8 UNK         0.5028 
     49 O         -50.4631  -25.3196   15.1464 O.2       8 UNK        -0.5428 
     50 CA        -49.3827  -24.3750   13.2276 C.3       7 UNK         0.0264 
     51 CB        -47.8640  -24.4602   13.4459 C.3       7 UNK        -0.1988 
     52 N         -49.6625  -24.3756   11.7889 N.am      7 UNK        -0.4454 
     53 C         -50.8602  -24.1897   11.2191 C.2       7 UNK         0.5027 
     54 O         -51.8788  -23.9802   11.8796 O.2       7 UNK        -0.5083 
     55 CA        -50.9450  -24.2834    9.6730 C.3       6 UNK         0.0844 
     56 C56       -52.3384  -23.8406    9.1495 C.3       14 UNK        -0.0967 
     57 S57       -52.5415  -24.1327    7.3595 S.3       14 UNK        -0.2604 
     58 C58       -53.9979  -25.2349    7.3192 C.3       14 UNK         0.0134 
     59 N         -49.8570  -23.5837    8.9671 N.am      6 UNK        -0.4116 
     60 C         -48.5635  -23.9327    8.9368 C.2       5 UNK         0.5034 
     61 O         -48.1089  -24.8744    9.5914 O.2       5 UNK        -0.5045 
     62 CA        -47.6379  -23.1146    8.0103 C.3       5 UNK         0.0224 
     63 CB        -47.8049  -21.5901    8.1972 C.3       5 UNK        -0.1978 
     64 N         -46.2275  -23.5145    8.1319 N.am      5 UNK        -0.4737 
     65 C         -45.4328  -23.3917    9.2082 C.2       4 UNK         0.5027 
     66 O         -45.7445  -22.7807   10.2315 O.2       4 UNK        -0.5211 
     67 CA        -44.0573  -24.0827    9.1566 C.3       4 UNK         0.0297 
     68 CB        -44.0572  -25.3330   10.0523 C.3       4 UNK        -0.1993 
     69 N         -43.6456  -24.4655    7.8033 N.am      4 UNK        -0.4486 
     70 C         -43.1234  -23.6192    6.9041 C.2       3 UNK         0.4961 
     71 O         -42.9101  -22.4285    7.1345 O.2       3 UNK        -0.5105 
     72 CA        -42.7687  -24.1828    5.5136 C.3       3 UNK         0.0299 
     73 CB        -41.2528  -24.4144    5.4018 C.3       3 UNK        -0.1972 
     74 N         -43.4683  -25.4237    5.1631 N.am      3 UNK        -0.4305 
     75 C         -44.7884  -25.5328    4.9616 C.2       2 UNK         0.5006 
     76 O         -45.5688  -24.5836    5.0630 O.2       2 UNK        -0.5106 
     77 CA        -45.3406  -26.9284    4.5965 C.3       2 UNK         0.0296 
     78 CB        -44.3300  -28.0846    4.7829 C.3       2 UNK        -0.2002 
     79 N         -46.5904  -27.2146    5.3105 N.am      2 UNK        -0.4032 
     80 C         -46.7721  -27.2228    6.6412 C.2       1 UNK         0.5000 
     81 O         -45.8517  -27.0784    7.4489 O.2       1 UNK        -0.5238 
     82 H82       -51.0914  -27.5892    4.3649 H         1 UNK         0.0889 
     83 H83       -50.4686  -26.2004    3.4690 H         1 UNK         0.0889 
     84 H84       -51.6920  -25.9692    4.7208 H         1 UNK         0.0889 
     85 H85       -49.5823  -28.3263    5.8535 H         1 UNK         0.3028 
     86 H86       -48.3904  -26.4882    7.7510 H         1 UNK         0.0864 
     87 H87       -47.4780  -28.6859    8.7761 H         1 UNK         0.0720 
     88 H88       -48.4458  -29.5339    7.6011 H         1 UNK         0.0720 
     89 H89       -51.1754  -30.2654    8.8367 H         1 UNK         0.0814 
     90 H90       -50.8709  -29.3829    7.3619 H         1 UNK         0.0814 
     91 H91       -51.7677  -26.8520    7.3732 H         1 UNK         0.1469 
     92 H92       -55.8048  -26.6305    8.7904 H         1 UNK         0.1381 
     93 H93       -53.3902  -30.0524    9.7091 H         1 UNK         0.1206 
     94 H94       -56.8405  -28.6477    9.6290 H         1 UNK         0.0813 
     95 H95       -55.9362  -30.1129    9.8704 H         1 UNK         0.0813 
     96 H96       -54.5948  -30.7101   11.6645 H         1 UNK         0.0638 
     97 H97       -53.8198  -29.5335   12.6815 H         1 UNK         0.0638 
     98 H98       -56.2864  -31.1771   13.3934 H         1 UNK         0.0568 
     99 H99       -53.4928  -32.8190   15.6740 H         1 UNK         0.3450 
    100 H100      -54.3781  -31.3860   16.1335 H         1 UNK         0.3450 
    101 H101      -54.9162  -29.0830   14.9807 H         1 UNK         0.2987 
    102 H102      -57.1808  -27.9197   16.3147 H         1 UNK         0.0766 
    103 H103      -58.7448  -29.4089   17.5149 H         1 UNK         0.0798 
    104 H104      -57.4160  -30.1928   18.3572 H         1 UNK         0.0798 
    105 H105      -57.7920  -28.4994   18.6738 H         1 UNK         0.0798 
    106 H106      -55.2457  -27.4689   17.2559 H         1 UNK         0.3198 
    107 H107      -53.2994  -28.5932   19.4567 H         1 UNK         0.0843 
    108 H108      -52.0666  -30.4742   18.4429 H         1 UNK         0.0831 
    109 H109      -51.0857  -29.0240   18.3289 H         1 UNK         0.0831 
    110 H110      -51.9384  -29.6285   16.9083 H         1 UNK         0.0831 
    111 H111      -52.8250  -27.2471   16.8390 H         1 UNK         0.3133 
    112 H112      -54.0310  -24.1841   17.9664 H         1 UNK         0.0566 
    113 H113      -51.8085  -23.1888   17.3705 H         1 UNK         0.0814 
    114 H114      -51.8061  -23.8644   18.9918 H         1 UNK         0.0814 
    115 H115      -51.0296  -24.7402   17.6825 H         1 UNK         0.0814 
    116 H116      -52.5016  -25.0110   15.6547 H         1 UNK         0.3091 
    117 H117      -55.1744  -26.5911   13.9383 H         1 UNK         0.0702 
    118 H118      -54.8219  -24.8614   12.1768 H         1 UNK         0.0785 
    119 H119      -54.1326  -23.7644   13.3740 H         1 UNK         0.0785 
    120 H120      -55.8217  -24.2409   13.4816 H         1 UNK         0.0785 
    121 H121      -52.5945  -25.7353   13.0660 H         1 UNK         0.2998 
    122 H122      -50.6255  -28.1290   14.6872 H         1 UNK         0.0697 
    123 H123      -51.6193  -28.6189   11.8270 H         1 UNK         0.0825 
    124 H124      -51.5389  -29.8064   13.1255 H         1 UNK         0.0825 
    125 H125      -50.0596  -29.1447   12.4602 H         1 UNK         0.0825 
    126 H126      -50.0306  -26.6769   12.3394 H         1 UNK         0.3029 
    127 H127      -49.7398  -23.4273   13.6361 H         1 UNK         0.0897 
    128 H128      -47.3480  -23.6236   12.9735 H         1 UNK         0.0792 
    129 H129      -47.6198  -24.4337   14.5089 H         1 UNK         0.0792 
    130 H130      -47.4480  -25.3818   13.0365 H         1 UNK         0.0792 
    131 H131      -48.8834  -24.5742   11.1614 H         1 UNK         0.3086 
    132 H132      -50.8379  -25.3454    9.4424 H         1 UNK         0.0583 
    133 H133      -53.1330  -24.3699    9.6796 H         1 UNK         0.1020 
    134 H134      -52.5034  -22.7802    9.3490 H         1 UNK         0.1020 
    135 H135      -54.8430  -24.7005    7.7563 H         1 UNK         0.0694 
    136 H136      -54.2588  -25.4231    6.2771 H         1 UNK         0.0694 
    137 H137      -50.1524  -22.8070    8.3946 H         1 UNK         0.2989 
    138 H138      -47.9253  -23.3609    6.9872 H         1 UNK         0.1055 
    139 H139      -47.0744  -21.0377    7.6060 H         1 UNK         0.0806 
    140 H140      -47.6853  -21.2906    9.2390 H         1 UNK         0.0806 
    141 H141      -48.7909  -21.2551    7.8745 H         1 UNK         0.0806 
    142 H142      -45.8656  -24.0454    7.3494 H         1 UNK         0.3061 
    143 H143      -43.3243  -23.3802    9.5594 H         1 UNK         0.0734 
    144 H144      -44.3053  -25.0735   11.0824 H         1 UNK         0.0832 
    145 H145      -44.7922  -26.0671    9.7195 H         1 UNK         0.0832 
    146 H146      -43.0796  -25.8149   10.0665 H         1 UNK         0.0832 
    147 H147      -43.8196  -25.4233    7.5291 H         1 UNK         0.3156 
    148 H148      -43.0509  -23.4258    4.7789 H         1 UNK         0.0589 
    149 H149      -40.9081  -25.1787    6.0997 H         1 UNK         0.0808 
    150 H150      -40.9702  -24.7240    4.3954 H         1 UNK         0.0808 
    151 H151      -40.7005  -23.4998    5.6228 H         1 UNK         0.0808 
    152 H152      -42.9006  -26.2538    5.0694 H         1 UNK         0.3098 
    153 H153      -45.5980  -26.8815    3.5375 H         1 UNK         0.0720 
    154 H154      -44.7842  -29.0426    4.5292 H         1 UNK         0.0791 
    155 H155      -43.9701  -28.1563    5.8101 H         1 UNK         0.0791 
    156 H156      -43.4637  -27.9672    4.1306 H         1 UNK         0.0791 
    157 H157      -47.4150  -27.2968    4.7338 H         1 UNK         0.3028 
@<TRIPOS>BOND
     1    1    2 1    
     2    1   82 1    
     3    1   83 1    
     4    1   84 1    
     5    2    3 2    
     6    2    4 am   BACKBONE|DICT|INTERRES
     7    4    5 1    
     8    4   85 1    
     9    5    6 1    
    10    5   80 1    
    11    5   86 1    
    12    6    7 1    
    13    6   87 1    
    14    6   88 1    
    15    7    8 1    
    16    8    9 1    
    17    8   89 1    
    18    8   90 1    
    19    9   10 ar   
    20    9   14 ar   
    21   10   11 ar   
    22   10   91 1    
    23   11   12 ar   
    24   11   58 1    
    25   12   13 ar   
    26   12   92 1    
    27   13   14 ar   
    28   13   15 1    
    29   14   93 1    
    30   15   16 1    
    31   15   94 1    
    32   15   95 1    
    33   16   17 1    
    34   17   18 1    
    35   17   96 1    
    36   17   97 1    
    37   18   19 1    
    38   18   22 1    
    39   18   98 1    
    40   19   20 am   BACKBONE|DICT|INTERRES
    41   19   21 2    
    42   20   99 1    
    43   20  100 1    
    44   22   23 am   BACKBONE|DICT|INTERRES
    45   22  101 1    
    46   23   24 2    
    47   23   25 1    
    48   25   26 1    
    49   25   27 1    
    50   25  102 1    
    51   26  103 1    
    52   26  104 1    
    53   26  105 1    
    54   27   28 am   BACKBONE|DICT|INTERRES
    55   27  106 1    
    56   28   29 2    
    57   28   30 1    
    58   30   31 1    
    59   30   32 1    
    60   30  107 1    
    61   31  108 1    
    62   31  109 1    
    63   31  110 1    
    64   32   33 am   BACKBONE|DICT|INTERRES
    65   32  111 1    
    66   33   34 2    
    67   33   35 1    
    68   35   36 1    
    69   35   37 1    
    70   35  112 1    
    71   36  113 1    
    72   36  114 1    
    73   36  115 1    
    74   37   38 am   BACKBONE|DICT|INTERRES
    75   37  116 1    
    76   38   39 2    
    77   38   40 1    
    78   40   41 1    
    79   40   42 1    
    80   40  117 1    
    81   41  118 1    
    82   41  119 1    
    83   41  120 1    
    84   42   43 am   BACKBONE|DICT|INTERRES
    85   42  121 1    
    86   43   44 2    
    87   43   45 1    
    88   45   46 1    
    89   45   47 1    
    90   45  122 1    
    91   46  123 1    
    92   46  124 1    
    93   46  125 1    
    94   47   48 am   BACKBONE|DICT|INTERRES
    95   47  126 1    
    96   48   49 2    
    97   48   50 1    
    98   50   51 1    
    99   50   52 1    
   100   50  127 1    
   101   51  128 1    
   102   51  129 1    
   103   51  130 1    
   104   52   53 am   BACKBONE|DICT|INTERRES
   105   52  131 1    
   106   53   54 2    
   107   53   55 1    
   108   55   56 1    
   109   55   59 1    
   110   55  132 1    
   111   56   57 1    
   112   56  133 1    
   113   56  134 1    
   114   57   58 1    
   115   58  135 1    
   116   58  136 1    
   117   59   60 am   BACKBONE|DICT|INTERRES
   118   59  137 1    
   119   60   61 2    
   120   60   62 1    
   121   62   63 1    
   122   62   64 1    
   123   62  138 1    
   124   63  139 1    
   125   63  140 1    
   126   63  141 1    
   127   64   65 am   BACKBONE|DICT|INTERRES
   128   64  142 1    
   129   65   66 2    
   130   65   67 1    
   131   67   68 1    
   132   67   69 1    
   133   67  143 1    
   134   68  144 1    
   135   68  145 1    
   136   68  146 1    
   137   69   70 am   BACKBONE|DICT|INTERRES
   138   69  147 1    
   139   70   71 2    
   140   70   72 1    
   141   72   73 1    
   142   72   74 1    
   143   72  148 1    
   144   73  149 1    
   145   73  150 1    
   146   73  151 1    
   147   74   75 am   BACKBONE|DICT|INTERRES
   148   74  152 1    
   149   75   76 2    
   150   75   77 1    
   151   77   78 1    
   152   77   79 1    
   153   77  153 1    
   154   78  154 1    
   155   78  155 1    
   156   78  156 1    
   157   79   80 am   BACKBONE|DICT|INTERRES
   158   79  157 1    
   159   80   81 2    
@<TRIPOS>SUBSTRUCTURE
     1 UNK         1 GROUP             0       ****    0 ROOT    
