@<TRIPOS>MOLECULE
3R207
157   159    1
SMALL
USER_CHARGES


@<TRIPOS>ATOM
      1 CA        -52.0395  -29.5000    9.8419 C.3       0 UNK        -0.1975 
      2 C         -50.7579  -29.4614    9.0276 C.2       0 UNK         0.4852 
      3 O         -49.7972  -30.1543    9.3643 O.2       0 UNK        -0.5216 
      4 N         -50.7547  -28.6689    7.9499 N.am      1 UNK        -0.4461 
      5 CA        -49.6508  -28.5585    6.9905 C.3       1 UNK         0.0864 
      6 C6        -50.1248  -28.7030    5.5153 C.3       14 UNK        -0.0898 
      7 S7        -51.2599  -30.1106    5.2556 S.3       14 UNK        -0.2598 
      8 C8        -52.7864  -29.2737    4.7143 C.3       14 UNK         0.0286 
      9 C9        -53.3366  -28.2974    5.7487 C.ar      14 UNK        -0.0844 
     10 C10       -53.1480  -26.9211    5.5849 C.ar      14 UNK        -0.0881 
     11 C11       -53.6995  -26.0088    6.4880 C.ar      14 UNK        -0.0643 
     12 C12       -54.4617  -26.4914    7.5581 C.ar      14 UNK        -0.0930 
     13 C13       -54.6510  -27.8655    7.7456 C.ar      14 UNK        -0.0827 
     14 C14       -54.0808  -28.7632    6.8369 C.ar      14 UNK        -0.1249 
     15 C15       -55.5291  -28.3829    8.8816 C.3       14 UNK         0.0141 
     16 S16       -55.1731  -27.5831   10.4801 S.3       14 UNK        -0.2313 
     17 C17       -56.4620  -28.3129   11.5425 C.3       14 UNK        -0.0915 
     18 CA        -55.9088  -29.2371   12.6589 C.3       13 UNK         0.0968 
     19 C         -55.3491  -30.5850   12.1125 C.2       13 UNK         0.5732 
     20 N         -54.1455  -31.0162   12.4713 N.am      13 UNK        -0.7310 
     21 O         -56.0338  -31.2686   11.3549 O.2       13 UNK        -0.5035 
     22 N         -55.0057  -28.5104   13.5663 N.am      13 UNK        -0.4233 
     23 C         -54.8612  -28.7822   14.8691 C.2       13 UNK         0.4989 
     24 O         -55.5318  -29.6287   15.4642 O.2       13 UNK        -0.4996 
     25 CA        -53.7837  -27.9791   15.6309 C.3       12 UNK         0.0216 
     26 CB        -53.4880  -28.5668   17.0262 C.3       12 UNK        -0.1964 
     27 N         -52.5265  -27.7938   14.8915 N.am      12 UNK        -0.4276 
     28 C         -51.7845  -28.7382   14.2910 C.2       12 UNK         0.5020 
     29 O         -52.0970  -29.9268   14.2206 O.2       12 UNK        -0.5489 
     30 CA        -50.4714  -28.2717   13.6531 C.3       11 UNK         0.0294 
     31 CB        -50.7419  -27.3603   12.4471 C.3       11 UNK        -0.2019 
     32 N         -49.6554  -27.5513   14.6254 N.am      11 UNK        -0.4493 
     33 C         -48.7089  -28.0979   15.3987 C.2       11 UNK         0.4932 
     34 O         -48.3635  -29.2780   15.3346 O.2       11 UNK        -0.5029 
     35 CA        -48.0289  -27.1718   16.4261 C.3       10 UNK         0.0280 
     36 CB        -46.7478  -26.5594   15.8371 C.3       10 UNK        -0.1976 
     37 N         -48.9101  -26.0980   16.8928 N.am      10 UNK        -0.4242 
     38 C         -49.9839  -26.2840   17.6742 C.2       10 UNK         0.5072 
     39 O         -50.2633  -27.3614   18.2000 O.2       10 UNK        -0.5224 
     40 CA        -50.9171  -25.0777   17.9015 C.3       9 UNK         0.0343 
     41 CB        -50.6918  -24.4813   19.3004 C.3       9 UNK        -0.2003 
     42 N         -50.7991  -24.0099   16.9000 N.am      9 UNK        -0.4272 
     43 C         -51.0839  -24.1330   15.5963 C.2       9 UNK         0.4988 
     44 O         -51.4363  -25.1912   15.0701 O.2       9 UNK        -0.5108 
     45 CA        -50.8505  -22.8773   14.7390 C.3       8 UNK         0.0248 
     46 CB        -49.3655  -22.7767   14.3632 C.3       8 UNK        -0.2001 
     47 N         -51.6475  -22.8577   13.5101 N.am      8 UNK        -0.4140 
     48 C         -52.9861  -22.7935   13.4596 C.2       8 UNK         0.5028 
     49 O         -53.7030  -22.7137   14.4591 O.2       8 UNK        -0.5428 
     50 CA        -53.6511  -22.7733   12.0698 C.3       7 UNK         0.0264 
     51 CB        -54.2372  -21.3832   11.7703 C.3       7 UNK        -0.1988 
     52 N         -52.7494  -23.1451   10.9778 N.am      7 UNK        -0.4454 
     53 C         -52.3899  -24.3998   10.6751 C.2       7 UNK         0.5027 
     54 O         -52.7970  -25.3787   11.2952 O.2       7 UNK        -0.5083 
     55 CA        -51.4376  -24.6015    9.4688 C.3       6 UNK         0.0844 
     56 C56       -51.7049  -23.6590    8.2562 C.3       14 UNK        -0.0967 
     57 S57       -53.4487  -23.4816    7.7320 S.3       14 UNK        -0.2604 
     58 C58       -53.5344  -24.5121    6.2289 C.3       14 UNK         0.0134 
     59 N         -50.0133  -24.5772    9.8424 N.am      6 UNK        -0.4116 
     60 C         -49.3558  -23.5831   10.4639 C.2       5 UNK         0.5034 
     61 O         -49.9122  -22.6231   10.9995 O.2       5 UNK        -0.5045 
     62 CA        -47.8148  -23.6111   10.4032 C.3       5 UNK         0.0224 
     63 CB        -47.1290  -22.6813   11.4278 C.3       5 UNK        -0.1978 
     64 N         -47.2151  -24.9465   10.4292 N.am      5 UNK        -0.4737 
     65 C         -47.2435  -25.8450   11.4243 C.2       4 UNK         0.5027 
     66 O         -47.8445  -25.6692   12.4822 O.2       4 UNK        -0.5211 
     67 CA        -46.4490  -27.1510   11.2142 C.3       4 UNK         0.0297 
     68 CB        -47.2923  -28.3962   11.5273 C.3       4 UNK        -0.1993 
     69 N         -45.9441  -27.2681    9.8453 N.am      4 UNK        -0.4486 
     70 C         -44.6821  -27.0396    9.4592 C.2       3 UNK         0.4961 
     71 O         -43.7606  -26.7807   10.2330 O.2       3 UNK        -0.5105 
     72 CA        -44.4014  -27.0862    7.9448 C.3       3 UNK         0.0299 
     73 CB        -43.8665  -28.4696    7.5421 C.3       3 UNK        -0.1972 
     74 N         -45.5702  -26.7605    7.1194 N.am      3 UNK        -0.4305 
     75 C         -46.1825  -25.5670    7.0923 C.2       2 UNK         0.5006 
     76 O         -45.8081  -24.5919    7.7418 O.2       2 UNK        -0.5106 
     77 CA        -47.4622  -25.4555    6.2484 C.3       2 UNK         0.0296 
     78 CB        -47.1299  -25.0008    4.8193 C.3       2 UNK        -0.2002 
     79 N         -48.2381  -26.6990    6.2001 N.am      2 UNK        -0.4032 
     80 C         -48.8641  -27.2544    7.2489 C.2       1 UNK         0.5000 
     81 O         -48.8177  -26.7740    8.3854 O.2       1 UNK        -0.5238 
     82 H82       -52.5059  -28.5166    9.8698 H         1 UNK         0.0889 
     83 H83       -51.8387  -29.8142   10.8658 H         1 UNK         0.0889 
     84 H84       -52.7458  -30.2046    9.4040 H         1 UNK         0.0889 
     85 H85       -51.5817  -28.1342    7.7231 H         1 UNK         0.3028 
     86 H86       -48.9396  -29.3673    7.1694 H         1 UNK         0.0864 
     87 H87       -50.5969  -27.7865    5.1627 H         1 UNK         0.0720 
     88 H88       -49.2679  -28.8668    4.8596 H         1 UNK         0.0720 
     89 H89       -53.5411  -30.0311    4.4973 H         1 UNK         0.0814 
     90 H90       -52.5957  -28.7633    3.7689 H         1 UNK         0.0814 
     91 H91       -52.5933  -26.5550    4.7316 H         1 UNK         0.1469 
     92 H92       -54.9287  -25.7959    8.2413 H         1 UNK         0.1381 
     93 H93       -54.2382  -29.8267    6.9570 H         1 UNK         0.1206 
     94 H94       -55.4105  -29.4613    8.9991 H         1 UNK         0.0813 
     95 H95       -56.5728  -28.2083    8.6174 H         1 UNK         0.0813 
     96 H96       -57.1939  -28.8434   10.9308 H         1 UNK         0.0638 
     97 H97       -57.0125  -27.4885   11.9981 H         1 UNK         0.0638 
     98 H98       -56.7803  -29.5334   13.2454 H         1 UNK         0.0568 
     99 H99       -53.8204  -31.8976   12.1102 H         1 UNK         0.3450 
    100 H100      -53.5633  -30.4999   13.1246 H         1 UNK         0.3450 
    101 H101      -54.4096  -27.8190   13.1342 H         1 UNK         0.2987 
    102 H102      -54.1999  -26.9811   15.7755 H         1 UNK         0.0766 
    103 H103      -54.3952  -28.6376   17.6275 H         1 UNK         0.0798 
    104 H104      -52.7889  -27.9409   17.5785 H         1 UNK         0.0798 
    105 H105      -53.0599  -29.5676   16.9579 H         1 UNK         0.0798 
    106 H106      -52.1731  -26.8366   14.8702 H         1 UNK         0.3198 
    107 H107      -49.9438  -29.1593   13.2972 H         1 UNK         0.0843 
    108 H108      -50.9052  -26.3270   12.7500 H         1 UNK         0.0831 
    109 H109      -51.6257  -27.6750   11.8960 H         1 UNK         0.0831 
    110 H110      -49.9115  -27.3585   11.7463 H         1 UNK         0.0831 
    111 H111      -49.8998  -26.5794   14.7709 H         1 UNK         0.3133 
    112 H112      -47.7490  -27.7823   17.2872 H         1 UNK         0.0566 
    113 H113      -46.2029  -25.9827   16.5845 H         1 UNK         0.0814 
    114 H114      -46.9644  -25.9002   14.9959 H         1 UNK         0.0814 
    115 H115      -46.0745  -27.3373   15.4744 H         1 UNK         0.0814 
    116 H116      -48.7396  -25.1733   16.5269 H         1 UNK         0.3091 
    117 H117      -51.9405  -25.4559   17.8535 H         1 UNK         0.0702 
    118 H118      -51.4125  -23.6927   19.5174 H         1 UNK         0.0785 
    119 H119      -49.6904  -24.0616   19.4041 H         1 UNK         0.0785 
    120 H120      -50.8073  -25.2428   20.0732 H         1 UNK         0.0785 
    121 H121      -50.4959  -23.1094   17.2433 H         1 UNK         0.2998 
    122 H122      -51.1272  -21.9992   15.3258 H         1 UNK         0.0697 
    123 H123      -49.1679  -21.8950   13.7530 H         1 UNK         0.0825 
    124 H124      -49.0441  -23.6539   13.8006 H         1 UNK         0.0825 
    125 H125      -48.7323  -22.7049   15.2482 H         1 UNK         0.0825 
    126 H126      -51.1367  -22.9065   12.6349 H         1 UNK         0.3029 
    127 H127      -54.4737  -23.4916   12.0973 H         1 UNK         0.0897 
    128 H128      -53.4610  -20.6179   11.7311 H         1 UNK         0.0792 
    129 H129      -54.9504  -21.0852   12.5401 H         1 UNK         0.0792 
    130 H130      -54.7685  -21.3737   10.8183 H         1 UNK         0.0792 
    131 H131      -52.3362  -22.3901   10.4493 H         1 UNK         0.3086 
    132 H132      -51.6243  -25.6187    9.1194 H         1 UNK         0.0583 
    133 H133      -51.3391  -22.6547    8.4752 H         1 UNK         0.1020 
    134 H134      -51.1116  -23.9958    7.4047 H         1 UNK         0.1020 
    135 H135      -54.3917  -24.1803    5.6421 H         1 UNK         0.0694 
    136 H136      -52.6535  -24.3200    5.6143 H         1 UNK         0.0694 
    137 H137      -49.4637  -25.3483    9.4695 H         1 UNK         0.2989 
    138 H138      -47.5783  -23.2090    9.4169 H         1 UNK         0.1055 
    139 H139      -47.2500  -23.0372   12.4492 H         1 UNK         0.0806 
    140 H140      -47.5318  -21.6688   11.3824 H         1 UNK         0.0806 
    141 H141      -46.0595  -22.6069   11.2313 H         1 UNK         0.0806 
    142 H142      -46.6783  -25.1814    9.6029 H         1 UNK         0.3061 
    143 H143      -45.6186  -27.1252   11.9223 H         1 UNK         0.0734 
    144 H144      -48.1324  -28.4964   10.8404 H         1 UNK         0.0832 
    145 H145      -46.6953  -29.3050   11.4551 H         1 UNK         0.0832 
    146 H146      -47.6904  -28.3554   12.5407 H         1 UNK         0.0832 
    147 H147      -46.6429  -27.4462    9.1363 H         1 UNK         0.3156 
    148 H148      -43.6276  -26.3455    7.7325 H         1 UNK         0.0589 
    149 H149      -44.6042  -29.2547    7.7120 H         1 UNK         0.0808 
    150 H150      -42.9786  -28.7276    8.1212 H         1 UNK         0.0808 
    151 H151      -43.5821  -28.4954    6.4902 H         1 UNK         0.0808 
    152 H152      -45.9397  -27.5022    6.5434 H         1 UNK         0.3098 
    153 H153      -48.0904  -24.6909    6.7100 H         1 UNK         0.0720 
    154 H154      -48.0350  -24.8320    4.2360 H         1 UNK         0.0791 
    155 H155      -46.5209  -25.7347    4.2907 H         1 UNK         0.0791 
    156 H156      -46.5737  -24.0622    4.8283 H         1 UNK         0.0791 
    157 H157      -48.3166  -27.1440    5.2976 H         1 UNK         0.3028 
@<TRIPOS>BOND
     1    1    2 1    
     2    1   82 1    
     3    1   83 1    
     4    1   84 1    
     5    2    3 2    
     6    2    4 am   BACKBONE|DICT|INTERRES
     7    4    5 1    
     8    4   85 1    
     9    5    6 1    
    10    5   80 1    
    11    5   86 1    
    12    6    7 1    
    13    6   87 1    
    14    6   88 1    
    15    7    8 1    
    16    8    9 1    
    17    8   89 1    
    18    8   90 1    
    19    9   10 ar   
    20    9   14 ar   
    21   10   11 ar   
    22   10   91 1    
    23   11   12 ar   
    24   11   58 1    
    25   12   13 ar   
    26   12   92 1    
    27   13   14 ar   
    28   13   15 1    
    29   14   93 1    
    30   15   16 1    
    31   15   94 1    
    32   15   95 1    
    33   16   17 1    
    34   17   18 1    
    35   17   96 1    
    36   17   97 1    
    37   18   19 1    
    38   18   22 1    
    39   18   98 1    
    40   19   20 am   BACKBONE|DICT|INTERRES
    41   19   21 2    
    42   20   99 1    
    43   20  100 1    
    44   22   23 am   BACKBONE|DICT|INTERRES
    45   22  101 1    
    46   23   24 2    
    47   23   25 1    
    48   25   26 1    
    49   25   27 1    
    50   25  102 1    
    51   26  103 1    
    52   26  104 1    
    53   26  105 1    
    54   27   28 am   BACKBONE|DICT|INTERRES
    55   27  106 1    
    56   28   29 2    
    57   28   30 1    
    58   30   31 1    
    59   30   32 1    
    60   30  107 1    
    61   31  108 1    
    62   31  109 1    
    63   31  110 1    
    64   32   33 am   BACKBONE|DICT|INTERRES
    65   32  111 1    
    66   33   34 2    
    67   33   35 1    
    68   35   36 1    
    69   35   37 1    
    70   35  112 1    
    71   36  113 1    
    72   36  114 1    
    73   36  115 1    
    74   37   38 am   BACKBONE|DICT|INTERRES
    75   37  116 1    
    76   38   39 2    
    77   38   40 1    
    78   40   41 1    
    79   40   42 1    
    80   40  117 1    
    81   41  118 1    
    82   41  119 1    
    83   41  120 1    
    84   42   43 am   BACKBONE|DICT|INTERRES
    85   42  121 1    
    86   43   44 2    
    87   43   45 1    
    88   45   46 1    
    89   45   47 1    
    90   45  122 1    
    91   46  123 1    
    92   46  124 1    
    93   46  125 1    
    94   47   48 am   BACKBONE|DICT|INTERRES
    95   47  126 1    
    96   48   49 2    
    97   48   50 1    
    98   50   51 1    
    99   50   52 1    
   100   50  127 1    
   101   51  128 1    
   102   51  129 1    
   103   51  130 1    
   104   52   53 am   BACKBONE|DICT|INTERRES
   105   52  131 1    
   106   53   54 2    
   107   53   55 1    
   108   55   56 1    
   109   55   59 1    
   110   55  132 1    
   111   56   57 1    
   112   56  133 1    
   113   56  134 1    
   114   57   58 1    
   115   58  135 1    
   116   58  136 1    
   117   59   60 am   BACKBONE|DICT|INTERRES
   118   59  137 1    
   119   60   61 2    
   120   60   62 1    
   121   62   63 1    
   122   62   64 1    
   123   62  138 1    
   124   63  139 1    
   125   63  140 1    
   126   63  141 1    
   127   64   65 am   BACKBONE|DICT|INTERRES
   128   64  142 1    
   129   65   66 2    
   130   65   67 1    
   131   67   68 1    
   132   67   69 1    
   133   67  143 1    
   134   68  144 1    
   135   68  145 1    
   136   68  146 1    
   137   69   70 am   BACKBONE|DICT|INTERRES
   138   69  147 1    
   139   70   71 2    
   140   70   72 1    
   141   72   73 1    
   142   72   74 1    
   143   72  148 1    
   144   73  149 1    
   145   73  150 1    
   146   73  151 1    
   147   74   75 am   BACKBONE|DICT|INTERRES
   148   74  152 1    
   149   75   76 2    
   150   75   77 1    
   151   77   78 1    
   152   77   79 1    
   153   77  153 1    
   154   78  154 1    
   155   78  155 1    
   156   78  156 1    
   157   79   80 am   BACKBONE|DICT|INTERRES
   158   79  157 1    
   159   80   81 2    
@<TRIPOS>SUBSTRUCTURE
     1 UNK         1 GROUP             0       ****    0 ROOT    
