@<TRIPOS>MOLECULE
3R207
157   159    1
SMALL
USER_CHARGES


@<TRIPOS>ATOM
      1 CA        -46.2836  -26.2584   10.4152 C.3       0 UNK        -0.1975 
      2 C         -46.8421  -27.3167    9.4769 C.2       0 UNK         0.4852 
      3 O         -46.4581  -28.4844    9.5670 O.2       0 UNK        -0.5216 
      4 N         -47.7584  -26.9242    8.5820 N.am      1 UNK        -0.4461 
      5 CA        -48.4575  -27.8051    7.6328 C.3       1 UNK         0.0864 
      6 C6        -49.7904  -27.1881    7.1362 C.3       14 UNK        -0.0898 
      7 S7        -51.0248  -27.0057    8.4602 S.3       14 UNK        -0.2598 
      8 C8        -52.5611  -26.9886    7.4831 C.3       14 UNK         0.0286 
      9 C9        -53.6327  -26.1604    8.1721 C.ar      14 UNK        -0.0844 
     10 C10       -53.4909  -24.7722    8.2298 C.ar      14 UNK        -0.0881 
     11 C11       -54.4403  -23.9807    8.8843 C.ar      14 UNK        -0.0643 
     12 C12       -55.5694  -24.5957    9.4342 C.ar      14 UNK        -0.0930 
     13 C13       -55.7418  -25.9817    9.3559 C.ar      14 UNK        -0.0827 
     14 C14       -54.7616  -26.7632    8.7356 C.ar      14 UNK        -0.1249 
     15 C15       -57.0033  -26.6210    9.9195 C.3       14 UNK         0.0141 
     16 S16       -56.7841  -27.1503   11.6465 S.3       14 UNK        -0.2313 
     17 C17       -56.0705  -28.8168   11.4475 C.3       14 UNK        -0.0915 
     18 CA        -56.6167  -29.7980   12.5197 C.3       13 UNK         0.0968 
     19 C         -56.2970  -31.2794   12.1557 C.2       13 UNK         0.5732 
     20 N         -55.6179  -32.0580   12.9905 N.am      13 UNK        -0.7310 
     21 O         -56.6892  -31.7415   11.0868 O.2       13 UNK        -0.5035 
     22 N         -56.1857  -29.3946   13.8660 N.am      13 UNK        -0.4233 
     23 C         -56.7931  -29.7202   15.0134 C.2       13 UNK         0.4989 
     24 O         -57.8710  -30.3144   15.0746 O.2       13 UNK        -0.4996 
     25 CA        -56.0415  -29.3313   16.3063 C.3       12 UNK         0.0216 
     26 CB        -56.5229  -30.1209   17.5422 C.3       12 UNK        -0.1964 
     27 N         -54.5780  -29.4230   16.1654 N.am      12 UNK        -0.4276 
     28 C         -53.8795  -30.5164   15.8169 C.2       12 UNK         0.5020 
     29 O         -54.3920  -31.6193   15.6230 O.2       12 UNK        -0.5489 
     30 CA        -52.3733  -30.3610   15.5609 C.3       11 UNK         0.0294 
     31 CB        -52.1076  -30.2850   14.0477 C.3       11 UNK        -0.2019 
     32 N         -51.7645  -29.1996   16.2102 N.am      11 UNK        -0.4493 
     33 C         -51.4469  -29.1356   17.5105 C.2       11 UNK         0.4932 
     34 O         -51.7205  -30.0161   18.3263 O.2       11 UNK        -0.5029 
     35 CA        -50.6764  -27.8923   17.9771 C.3       10 UNK         0.0280 
     36 CB        -49.1867  -28.0223   17.6179 C.3       10 UNK        -0.1976 
     37 N         -51.2135  -26.6765   17.3663 N.am      10 UNK        -0.4242 
     38 C         -51.9346  -25.7497   18.0111 C.2       10 UNK         0.5072 
     39 O         -52.1825  -25.7871   19.2174 O.2       10 UNK        -0.5224 
     40 CA        -52.4790  -24.5714   17.1794 C.3       9 UNK         0.0343 
     41 CB        -51.5394  -23.3596   17.2893 C.3       9 UNK        -0.2003 
     42 N         -52.6994  -24.8784   15.7632 N.am      9 UNK        -0.4272 
     43 C         -53.5604  -25.7953   15.3004 C.2       9 UNK         0.4988 
     44 O         -54.2661  -26.5036   16.0176 O.2       9 UNK        -0.5108 
     45 CA        -53.6186  -25.9879   13.7771 C.3       8 UNK         0.0248 
     46 CB        -54.5090  -24.9030   13.1511 C.3       8 UNK        -0.2001 
     47 N         -52.3299  -25.9985   13.0755 N.am      8 UNK        -0.4140 
     48 C         -51.1767  -26.5810   13.4396 C.2       8 UNK         0.5028 
     49 O         -50.9916  -27.1342   14.5242 O.2       8 UNK        -0.5428 
     50 CA        -50.0369  -26.5724   12.4061 C.3       7 UNK         0.0264 
     51 CB        -49.8529  -27.9887   11.8379 C.3       7 UNK        -0.1988 
     52 N         -50.2673  -25.6340   11.3009 N.am      7 UNK        -0.4454 
     53 C         -50.1122  -24.3067   11.3898 C.2       7 UNK         0.5027 
     54 O         -49.6935  -23.7332   12.3974 O.2       7 UNK        -0.5083 
     55 CA        -50.5578  -23.4705   10.1737 C.3       6 UNK         0.0844 
     56 C56       -51.8813  -22.7301   10.4996 C.3       14 UNK        -0.0967 
     57 S57       -52.5597  -21.8577    9.0462 S.3       14 UNK        -0.2604 
     58 C58       -54.2855  -22.4637    8.9991 C.3       14 UNK         0.0134 
     59 N         -49.5005  -22.5340    9.7941 N.am      6 UNK        -0.4116 
     60 C         -48.3069  -22.8683    9.2893 C.2       5 UNK         0.5034 
     61 O         -47.9969  -24.0152    8.9579 O.2       5 UNK        -0.5045 
     62 CA        -47.2978  -21.7084    9.1924 C.3       5 UNK         0.0224 
     63 CB        -46.9316  -21.1903   10.5965 C.3       5 UNK        -0.1978 
     64 N         -46.0514  -22.0444    8.5020 N.am      5 UNK        -0.4737 
     65 C         -45.8994  -22.2174    7.1839 C.2       4 UNK         0.5027 
     66 O         -46.8298  -22.2038    6.3762 O.2       4 UNK        -0.5211 
     67 CA        -44.4522  -22.3389    6.6587 C.3       4 UNK         0.0297 
     68 CB        -43.3582  -22.1630    7.7401 C.3       4 UNK        -0.1993 
     69 N         -44.2230  -23.5651    5.8894 N.am      4 UNK        -0.4486 
     70 C         -44.3116  -24.8223    6.3398 C.2       3 UNK         0.4961 
     71 O         -44.6450  -25.1344    7.4861 O.2       3 UNK        -0.5105 
     72 CA        -43.9115  -25.9207    5.3488 C.3       3 UNK         0.0299 
     73 CB        -42.3786  -26.0520    5.2602 C.3       3 UNK        -0.1972 
     74 N         -44.5015  -27.1674    5.8148 N.am      3 UNK        -0.4305 
     75 C         -44.6851  -28.2830    5.1023 C.2       2 UNK         0.5006 
     76 O         -44.2905  -28.4361    3.9455 O.2       2 UNK        -0.5106 
     77 CA        -45.4622  -29.4184    5.7933 C.3       2 UNK         0.0296 
     78 CB        -44.4949  -30.3823    6.4992 C.3       2 UNK        -0.2002 
     79 N         -46.4606  -28.9412    6.7571 N.am      2 UNK        -0.4032 
     80 C         -47.5429  -28.2105    6.4540 C.2       1 UNK         0.5000 
     81 O         -47.8204  -27.8584    5.3049 O.2       1 UNK        -0.5238 
     82 H82       -45.5256  -26.6829   11.0727 H         1 UNK         0.0889 
     83 H83       -47.0785  -25.8421   11.0337 H         1 UNK         0.0889 
     84 H84       -45.8267  -25.4462    9.8507 H         1 UNK         0.0889 
     85 H85       -47.9951  -25.9355    8.5397 H         1 UNK         0.3028 
     86 H86       -48.7076  -28.7316    8.1550 H         1 UNK         0.0864 
     87 H87       -49.6191  -26.2110    6.6799 H         1 UNK         0.0720 
     88 H88       -50.2319  -27.8189    6.3617 H         1 UNK         0.0720 
     89 H89       -52.8974  -28.0138    7.3212 H         1 UNK         0.0814 
     90 H90       -52.3717  -26.5640    6.4959 H         1 UNK         0.0814 
     91 H91       -52.6237  -24.3149    7.7747 H         1 UNK         0.1469 
     92 H92       -56.3217  -23.9925    9.9244 H         1 UNK         0.1381 
     93 H93       -54.8847  -27.8362    8.6820 H         1 UNK         0.1206 
     94 H94       -57.3187  -27.4599    9.2979 H         1 UNK         0.0813 
     95 H95       -57.8245  -25.9035    9.8834 H         1 UNK         0.0813 
     96 H96       -54.9827  -28.7447   11.4999 H         1 UNK         0.0638 
     97 H97       -56.3043  -29.1771   10.4445 H         1 UNK         0.0638 
     98 H98       -57.7063  -29.7345   12.4941 H         1 UNK         0.0568 
     99 H99       -55.3040  -31.7315   13.8985 H         1 UNK         0.3450 
    100 H100      -55.4379  -33.0116   12.7212 H         1 UNK         0.3450 
    101 H101      -55.3071  -28.9052   13.9167 H         1 UNK         0.2987 
    102 H102      -56.2690  -28.2788   16.4806 H         1 UNK         0.0766 
    103 H103      -57.5838  -29.9490   17.7280 H         1 UNK         0.0798 
    104 H104      -55.9846  -29.8172   18.4400 H         1 UNK         0.0798 
    105 H105      -56.3852  -31.1953   17.4160 H         1 UNK         0.0798 
    106 H106      -54.0838  -28.5420   16.2703 H         1 UNK         0.3198 
    107 H107      -51.8872  -31.2610   15.9443 H         1 UNK         0.0843 
    108 H108      -52.5554  -29.3971   13.6002 H         1 UNK         0.0831 
    109 H109      -52.5213  -31.1531   13.5320 H         1 UNK         0.0831 
    110 H110      -51.0389  -30.2661   13.8359 H         1 UNK         0.0831 
    111 H111      -51.4764  -28.4371   15.5966 H         1 UNK         0.3133 
    112 H112      -50.7549  -27.8422   19.0651 H         1 UNK         0.0566 
    113 H113      -48.6143  -27.1764   17.9985 H         1 UNK         0.0814 
    114 H114      -49.0314  -28.0721   16.5391 H         1 UNK         0.0814 
    115 H115      -48.7573  -28.9260   18.0526 H         1 UNK         0.0814 
    116 H116      -51.0919  -26.5858   16.3609 H         1 UNK         0.3091 
    117 H117      -53.4448  -24.2947   17.6073 H         1 UNK         0.0702 
    118 H118      -51.9578  -22.4853   16.7901 H         1 UNK         0.0785 
    119 H119      -50.5631  -23.5650   16.8482 H         1 UNK         0.0785 
    120 H120      -51.3748  -23.0862   18.3327 H         1 UNK         0.0785 
    121 H121      -52.1440  -24.3649   15.0944 H         1 UNK         0.2998 
    122 H122      -54.0818  -26.9579   13.5898 H         1 UNK         0.0697 
    123 H123      -54.0909  -23.9047   13.2856 H         1 UNK         0.0825 
    124 H124      -55.5033  -24.9047   13.6004 H         1 UNK         0.0825 
    125 H125      -54.6405  -25.0667   12.0823 H         1 UNK         0.0825 
    126 H126      -52.3459  -25.6020   12.1489 H         1 UNK         0.3029 
    127 H127      -49.1206  -26.2856   12.9267 H         1 UNK         0.0897 
    128 H128      -50.7631  -28.3568   11.3622 H         1 UNK         0.0792 
    129 H129      -49.5891  -28.6930   12.6277 H         1 UNK         0.0792 
    130 H130      -49.0550  -28.0259   11.0996 H         1 UNK         0.0792 
    131 H131      -50.5888  -26.0360   10.4266 H         1 UNK         0.3086 
    132 H132      -50.7274  -24.1405    9.3292 H         1 UNK         0.0583 
    133 H133      -52.6287  -23.4301   10.8767 H         1 UNK         0.1020 
    134 H134      -51.7315  -22.0008   11.2987 H         1 UNK         0.1020 
    135 H135      -54.7927  -22.1054    9.8965 H         1 UNK         0.0694 
    136 H136      -54.7922  -22.0002    8.1519 H         1 UNK         0.0694 
    137 H137      -49.6678  -21.5705   10.0414 H         1 UNK         0.2989 
    138 H138      -47.7795  -20.9017    8.6349 H         1 UNK         0.1055 
    139 H139      -46.4691  -21.9699   11.2038 H         1 UNK         0.0806 
    140 H140      -47.8093  -20.8368   11.1389 H         1 UNK         0.0806 
    141 H141      -46.2368  -20.3516   10.5423 H         1 UNK         0.0806 
    142 H142      -45.2279  -22.1214    9.0801 H         1 UNK         0.3061 
    143 H143      -44.3319  -21.5173    5.9507 H         1 UNK         0.0734 
    144 H144      -43.3980  -22.9426    8.5018 H         1 UNK         0.0832 
    145 H145      -42.3634  -22.1929    7.2954 H         1 UNK         0.0832 
    146 H146      -43.4479  -21.1987    8.2424 H         1 UNK         0.0832 
    147 H147      -43.9744  -23.4256    4.9195 H         1 UNK         0.3156 
    148 H148      -44.3236  -25.6773    4.3672 H         1 UNK         0.0589 
    149 H149      -41.9422  -26.3083    6.2265 H         1 UNK         0.0808 
    150 H150      -42.0824  -26.8202    4.5458 H         1 UNK         0.0808 
    151 H151      -41.9214  -25.1173    4.9333 H         1 UNK         0.0808 
    152 H152      -44.8742  -27.1069    6.7552 H         1 UNK         0.3098 
    153 H153      -45.9914  -29.9725    5.0153 H         1 UNK         0.0720 
    154 H154      -45.0232  -31.2398    6.9165 H         1 UNK         0.0791 
    155 H155      -43.9569  -29.8913    7.3113 H         1 UNK         0.0791 
    156 H156      -43.7509  -30.7696    5.8015 H         1 UNK         0.0791 
    157 H157      -46.2907  -29.1289    7.7420 H         1 UNK         0.3028 
@<TRIPOS>BOND
     1    1    2 1    
     2    1   82 1    
     3    1   83 1    
     4    1   84 1    
     5    2    3 2    
     6    2    4 am   BACKBONE|DICT|INTERRES
     7    4    5 1    
     8    4   85 1    
     9    5    6 1    
    10    5   80 1    
    11    5   86 1    
    12    6    7 1    
    13    6   87 1    
    14    6   88 1    
    15    7    8 1    
    16    8    9 1    
    17    8   89 1    
    18    8   90 1    
    19    9   10 ar   
    20    9   14 ar   
    21   10   11 ar   
    22   10   91 1    
    23   11   12 ar   
    24   11   58 1    
    25   12   13 ar   
    26   12   92 1    
    27   13   14 ar   
    28   13   15 1    
    29   14   93 1    
    30   15   16 1    
    31   15   94 1    
    32   15   95 1    
    33   16   17 1    
    34   17   18 1    
    35   17   96 1    
    36   17   97 1    
    37   18   19 1    
    38   18   22 1    
    39   18   98 1    
    40   19   20 am   BACKBONE|DICT|INTERRES
    41   19   21 2    
    42   20   99 1    
    43   20  100 1    
    44   22   23 am   BACKBONE|DICT|INTERRES
    45   22  101 1    
    46   23   24 2    
    47   23   25 1    
    48   25   26 1    
    49   25   27 1    
    50   25  102 1    
    51   26  103 1    
    52   26  104 1    
    53   26  105 1    
    54   27   28 am   BACKBONE|DICT|INTERRES
    55   27  106 1    
    56   28   29 2    
    57   28   30 1    
    58   30   31 1    
    59   30   32 1    
    60   30  107 1    
    61   31  108 1    
    62   31  109 1    
    63   31  110 1    
    64   32   33 am   BACKBONE|DICT|INTERRES
    65   32  111 1    
    66   33   34 2    
    67   33   35 1    
    68   35   36 1    
    69   35   37 1    
    70   35  112 1    
    71   36  113 1    
    72   36  114 1    
    73   36  115 1    
    74   37   38 am   BACKBONE|DICT|INTERRES
    75   37  116 1    
    76   38   39 2    
    77   38   40 1    
    78   40   41 1    
    79   40   42 1    
    80   40  117 1    
    81   41  118 1    
    82   41  119 1    
    83   41  120 1    
    84   42   43 am   BACKBONE|DICT|INTERRES
    85   42  121 1    
    86   43   44 2    
    87   43   45 1    
    88   45   46 1    
    89   45   47 1    
    90   45  122 1    
    91   46  123 1    
    92   46  124 1    
    93   46  125 1    
    94   47   48 am   BACKBONE|DICT|INTERRES
    95   47  126 1    
    96   48   49 2    
    97   48   50 1    
    98   50   51 1    
    99   50   52 1    
   100   50  127 1    
   101   51  128 1    
   102   51  129 1    
   103   51  130 1    
   104   52   53 am   BACKBONE|DICT|INTERRES
   105   52  131 1    
   106   53   54 2    
   107   53   55 1    
   108   55   56 1    
   109   55   59 1    
   110   55  132 1    
   111   56   57 1    
   112   56  133 1    
   113   56  134 1    
   114   57   58 1    
   115   58  135 1    
   116   58  136 1    
   117   59   60 am   BACKBONE|DICT|INTERRES
   118   59  137 1    
   119   60   61 2    
   120   60   62 1    
   121   62   63 1    
   122   62   64 1    
   123   62  138 1    
   124   63  139 1    
   125   63  140 1    
   126   63  141 1    
   127   64   65 am   BACKBONE|DICT|INTERRES
   128   64  142 1    
   129   65   66 2    
   130   65   67 1    
   131   67   68 1    
   132   67   69 1    
   133   67  143 1    
   134   68  144 1    
   135   68  145 1    
   136   68  146 1    
   137   69   70 am   BACKBONE|DICT|INTERRES
   138   69  147 1    
   139   70   71 2    
   140   70   72 1    
   141   72   73 1    
   142   72   74 1    
   143   72  148 1    
   144   73  149 1    
   145   73  150 1    
   146   73  151 1    
   147   74   75 am   BACKBONE|DICT|INTERRES
   148   74  152 1    
   149   75   76 2    
   150   75   77 1    
   151   77   78 1    
   152   77   79 1    
   153   77  153 1    
   154   78  154 1    
   155   78  155 1    
   156   78  156 1    
   157   79   80 am   BACKBONE|DICT|INTERRES
   158   79  157 1    
   159   80   81 2    
@<TRIPOS>SUBSTRUCTURE
     1 UNK         1 GROUP             0       ****    0 ROOT    
