@<TRIPOS>MOLECULE
3R207
157   159    1
SMALL
USER_CHARGES


@<TRIPOS>ATOM
      1 CA        -48.6065  -29.7238    5.8111 C.3       0 UNK        -0.1975 
      2 C         -48.8420  -28.4513    5.0121 C.2       0 UNK         0.4852 
      3 O         -48.5262  -28.4045    3.8224 O.2       0 UNK        -0.5216 
      4 N         -49.3712  -27.4058    5.6606 N.am      1 UNK        -0.4461 
      5 CA        -49.6180  -26.0851    5.0718 C.3       1 UNK         0.0864 
      6 C6        -50.7416  -25.3147    5.8129 C.3       14 UNK        -0.0898 
      7 S7        -52.3822  -26.0653    5.5379 S.3       14 UNK        -0.2598 
      8 C8        -53.2535  -25.6498    7.0924 C.3       14 UNK         0.0286 
      9 C9        -53.0442  -26.6200    8.2590 C.ar      14 UNK        -0.0844 
     10 C10       -52.0000  -27.5510    8.2942 C.ar      14 UNK        -0.0881 
     11 C11       -51.8396  -28.4182    9.3766 C.ar      14 UNK        -0.0643 
     12 C12       -52.7426  -28.3603   10.4430 C.ar      14 UNK        -0.0930 
     13 C13       -53.7985  -27.4427   10.4215 C.ar      14 UNK        -0.0827 
     14 C14       -53.9355  -26.5727    9.3352 C.ar      14 UNK        -0.1249 
     15 C15       -54.8139  -27.4047   11.5525 C.3       14 UNK         0.0141 
     16 S16       -56.1515  -28.5939   11.2330 S.3       14 UNK        -0.2313 
     17 C17       -57.5456  -27.9125   12.1963 C.3       14 UNK        -0.0915 
     18 CA        -57.3164  -27.7724   13.7324 C.3       13 UNK         0.0968 
     19 C         -58.5814  -27.2502   14.4761 C.2       13 UNK         0.5732 
     20 N         -58.8623  -27.6902   15.6970 N.am      13 UNK        -0.7310 
     21 O         -59.3068  -26.4069   13.9538 O.2       13 UNK        -0.5035 
     22 N         -56.6801  -28.9380   14.3672 N.am      13 UNK        -0.4233 
     23 C         -57.0781  -30.2169   14.3222 C.2       13 UNK         0.4989 
     24 O         -58.1008  -30.5980   13.7508 O.2       13 UNK        -0.4996 
     25 CA        -56.2007  -31.2492   15.0672 C.3       12 UNK         0.0216 
     26 CB        -56.0769  -32.5807   14.2955 C.3       12 UNK        -0.1964 
     27 N         -54.8803  -30.7326   15.4650 N.am      12 UNK        -0.4276 
     28 C         -53.8689  -30.3585   14.6658 C.2       12 UNK         0.5020 
     29 O         -53.8494  -30.5025   13.4430 O.2       12 UNK        -0.5489 
     30 CA        -52.7078  -29.6235   15.3562 C.3       11 UNK         0.0294 
     31 CB        -51.3427  -30.1322   14.8658 C.3       11 UNK        -0.2019 
     32 N         -52.7906  -28.1789   15.1288 N.am      11 UNK        -0.4493 
     33 C         -53.7671  -27.3726   15.5675 C.2       11 UNK         0.4932 
     34 O         -54.7487  -27.7691   16.1983 O.2       11 UNK        -0.5029 
     35 CA        -53.6055  -25.8747   15.2482 C.3       10 UNK         0.0280 
     36 CB        -54.6711  -24.9882   15.9257 C.3       10 UNK        -0.1976 
     37 N         -52.2514  -25.3986   15.5484 N.am      10 UNK        -0.4242 
     38 C         -51.6137  -25.4211   16.7296 C.2       10 UNK         0.5072 
     39 O         -52.1358  -25.7600   17.7925 O.2       10 UNK        -0.5224 
     40 CA        -50.1231  -25.0328   16.7295 C.3       9 UNK         0.0343 
     41 CB        -49.2539  -26.2979   16.8245 C.3       9 UNK        -0.2003 
     42 N         -49.7182  -24.2649   15.5488 N.am      9 UNK        -0.4272 
     43 C         -50.0307  -22.9789   15.3347 C.2       9 UNK         0.4988 
     44 O         -50.6320  -22.2747   16.1465 O.2       9 UNK        -0.5108 
     45 CA        -49.6330  -22.3873   13.9716 C.3       8 UNK         0.0248 
     46 CB        -48.1489  -21.9869   13.9613 C.3       8 UNK        -0.2001 
     47 N         -49.9054  -23.2949   12.8536 N.am      8 UNK        -0.4140 
     48 C         -51.1223  -23.7280   12.4904 C.2       8 UNK         0.5028 
     49 O         -52.1682  -23.3866   13.0411 O.2       8 UNK        -0.5428 
     50 CA        -51.1780  -24.7500   11.3468 C.3       7 UNK         0.0264 
     51 CB        -51.0346  -24.0595    9.9812 C.3       7 UNK        -0.1988 
     52 N         -50.1481  -25.7769   11.4946 N.am      7 UNK        -0.4454 
     53 C         -50.1810  -26.7577   12.4086 C.2       7 UNK         0.5027 
     54 O         -51.1065  -26.9259   13.2036 O.2       7 UNK        -0.5083 
     55 CA        -48.9523  -27.6857   12.4858 C.3       6 UNK         0.0844 
     56 C56       -49.1196  -28.9657   11.6335 C.3       14 UNK        -0.0967 
     57 S57       -49.1108  -28.7028    9.8245 S.3       14 UNK        -0.2604 
     58 C58       -50.7111  -29.4383    9.3509 C.3       14 UNK         0.0134 
     59 N         -47.6954  -26.9842   12.2112 N.am      6 UNK        -0.4116 
     60 C         -47.1733  -26.0441   13.0108 C.2       5 UNK         0.5034 
     61 O         -47.6947  -25.6686   14.0601 O.2       5 UNK        -0.5045 
     62 CA        -45.8717  -25.3786   12.5431 C.3       5 UNK         0.0224 
     63 CB        -44.6614  -26.2723   12.8560 C.3       5 UNK        -0.1978 
     64 N         -45.8617  -25.0215   11.1222 N.am      5 UNK        -0.4737 
     65 C         -46.7346  -24.2155   10.5078 C.2       4 UNK         0.5027 
     66 O         -47.7315  -23.7519   11.0599 O.2       4 UNK        -0.5211 
     67 CA        -46.4592  -23.8520    9.0379 C.3       4 UNK         0.0297 
     68 CB        -45.4609  -22.6831    8.9464 C.3       4 UNK        -0.1993 
     69 N         -46.0529  -24.9632    8.1646 N.am      4 UNK        -0.4486 
     70 C         -44.9549  -25.7368    8.2146 C.2       3 UNK         0.4961 
     71 O         -44.0928  -25.6570    9.0902 O.2       3 UNK        -0.5105 
     72 CA        -44.7851  -26.7930    7.1052 C.3       3 UNK         0.0299 
     73 CB        -45.3256  -28.1511    7.5837 C.3       3 UNK        -0.1972 
     74 N         -45.4452  -26.4324    5.8490 N.am      3 UNK        -0.4305 
     75 C         -45.1260  -25.3858    5.0723 C.2       2 UNK         0.5006 
     76 O         -44.1411  -24.6702    5.2569 O.2       2 UNK        -0.5106 
     77 CA        -46.0832  -25.0616    3.9078 C.3       2 UNK         0.0296 
     78 CB        -45.4969  -25.5573    2.5759 C.3       2 UNK        -0.2002 
     79 N         -47.4367  -25.6085    4.0704 N.am      2 UNK        -0.4032 
     80 C         -48.2915  -25.3045    5.0586 C.2       1 UNK         0.5000 
     81 O         -48.0286  -24.5212    5.9736 O.2       1 UNK        -0.5238 
     82 H82       -49.3706  -30.4632    5.5731 H         1 UNK         0.0889 
     83 H83       -48.6282  -29.5389    6.8842 H         1 UNK         0.0889 
     84 H84       -47.6331  -30.1481    5.5660 H         1 UNK         0.0889 
     85 H85       -49.5633  -27.4839    6.6477 H         1 UNK         0.3028 
     86 H86       -49.9340  -26.2081    4.0329 H         1 UNK         0.0864 
     87 H87       -50.7968  -24.2825    5.4614 H         1 UNK         0.0720 
     88 H88       -50.5309  -25.2613    6.8821 H         1 UNK         0.0720 
     89 H89       -54.3195  -25.6091    6.8633 H         1 UNK         0.0814 
     90 H90       -52.9729  -24.6438    7.4072 H         1 UNK         0.0814 
     91 H91       -51.3066  -27.6208    7.4743 H         1 UNK         0.1469 
     92 H92       -52.6394  -29.0378   11.2803 H         1 UNK         0.1381 
     93 H93       -54.7538  -25.8655    9.3202 H         1 UNK         0.1206 
     94 H94       -54.3325  -27.6501   12.4999 H         1 UNK         0.0813 
     95 H95       -55.2232  -26.3987   11.6564 H         1 UNK         0.0813 
     96 H96       -58.4091  -28.5517   12.0056 H         1 UNK         0.0638 
     97 H97       -57.7971  -26.9417   11.7657 H         1 UNK         0.0638 
     98 H98       -56.5900  -26.9706   13.8630 H         1 UNK         0.0568 
     99 H99       -59.6771  -27.3370   16.1731 H         1 UNK         0.3450 
    100 H100      -58.2657  -28.3648   16.1475 H         1 UNK         0.3450 
    101 H101      -55.8736  -28.7161   14.9417 H         1 UNK         0.2987 
    102 H102      -56.7270  -31.4626   15.9987 H         1 UNK         0.0766 
    103 H103      -55.4546  -33.2960   14.8331 H         1 UNK         0.0798 
    104 H104      -55.6452  -32.4367   13.3046 H         1 UNK         0.0798 
    105 H105      -57.0542  -33.0443   14.1560 H         1 UNK         0.0798 
    106 H106      -54.7893  -30.5219   16.4505 H         1 UNK         0.3198 
    107 H107      -52.7635  -29.7983   16.4328 H         1 UNK         0.0843 
    108 H108      -51.2226  -29.9757   13.7949 H         1 UNK         0.0831 
    109 H109      -51.2352  -31.2013   15.0527 H         1 UNK         0.0831 
    110 H110      -50.5215  -29.6270   15.3746 H         1 UNK         0.0831 
    111 H111      -52.0729  -27.7669   14.5346 H         1 UNK         0.3133 
    112 H112      -53.7296  -25.7734   14.1691 H         1 UNK         0.0566 
    113 H113      -54.5374  -23.9393   15.6607 H         1 UNK         0.0814 
    114 H114      -55.6758  -25.2759   15.6142 H         1 UNK         0.0814 
    115 H115      -54.6343  -25.0674   17.0126 H         1 UNK         0.0814 
    116 H116      -51.7151  -25.1130   14.7399 H         1 UNK         0.3091 
    117 H117      -49.9402  -24.4233   17.6169 H         1 UNK         0.0702 
    118 H118      -48.1942  -26.0481   16.8812 H         1 UNK         0.0785 
    119 H119      -49.3985  -26.9501   15.9620 H         1 UNK         0.0785 
    120 H120      -49.4990  -26.8765   17.7163 H         1 UNK         0.0785 
    121 H121      -49.1455  -24.7536   14.8641 H         1 UNK         0.2998 
    122 H122      -50.2296  -21.4863   13.8147 H         1 UNK         0.0697 
    123 H123      -47.4965  -22.8502   14.0949 H         1 UNK         0.0825 
    124 H124      -47.9286  -21.2828   14.7648 H         1 UNK         0.0825 
    125 H125      -47.8749  -21.5050   13.0225 H         1 UNK         0.0825 
    126 H126      -49.1033  -23.5895   12.2990 H         1 UNK         0.3029 
    127 H127      -52.1531  -25.2403   11.3800 H         1 UNK         0.0897 
    128 H128      -51.0495  -24.7864    9.1711 H         1 UNK         0.0792 
    129 H129      -50.1074  -23.4919    9.9011 H         1 UNK         0.0792 
    130 H130      -51.8580  -23.3652    9.8105 H         1 UNK         0.0792 
    131 H131      -49.3316  -25.6922   10.9070 H         1 UNK         0.3086 
    132 H132      -48.8977  -28.0165   13.5257 H         1 UNK         0.0583 
    133 H133      -48.3114  -29.6604   11.8676 H         1 UNK         0.1020 
    134 H134      -50.0318  -29.4859   11.9247 H         1 UNK         0.1020 
    135 H135      -50.6213  -29.8430    8.3420 H         1 UNK         0.0694 
    136 H136      -50.9448  -30.2933    9.9869 H         1 UNK         0.0694 
    137 H137      -47.2185  -27.2211   11.3536 H         1 UNK         0.2989 
    138 H138      -45.7645  -24.4510   13.1091 H         1 UNK         0.1055 
    139 H139      -44.6378  -26.5439   13.9125 H         1 UNK         0.0806 
    140 H140      -43.7244  -25.7612   12.6337 H         1 UNK         0.0806 
    141 H141      -44.6811  -27.1983   12.2799 H         1 UNK         0.0806 
    142 H142      -45.0720  -25.3433   10.5640 H         1 UNK         0.3061 
    143 H143      -47.4078  -23.4996    8.6288 H         1 UNK         0.0734 
    144 H144      -45.3362  -22.3505    7.9158 H         1 UNK         0.0832 
    145 H145      -45.8107  -21.8263    9.5240 H         1 UNK         0.0832 
    146 H146      -44.4778  -22.9545    9.3321 H         1 UNK         0.0832 
    147 H147      -46.6847  -25.1064    7.3828 H         1 UNK         0.3156 
    148 H148      -43.7165  -26.8958    6.9054 H         1 UNK         0.0589 
    149 H149      -46.3953  -28.1115    7.7947 H         1 UNK         0.0808 
    150 H150      -45.1572  -28.9313    6.8412 H         1 UNK         0.0808 
    151 H151      -44.8264  -28.4675    8.5008 H         1 UNK         0.0808 
    152 H152      -46.2518  -26.9787    5.5883 H         1 UNK         0.3098 
    153 H153      -46.1729  -23.9744    3.8605 H         1 UNK         0.0720 
    154 H154      -46.1146  -25.2510    1.7313 H         1 UNK         0.0791 
    155 H155      -45.4102  -26.6445    2.5529 H         1 UNK         0.0791 
    156 H156      -44.4996  -25.1469    2.4103 H         1 UNK         0.0791 
    157 H157      -47.7149  -26.3315    3.4173 H         1 UNK         0.3028 
@<TRIPOS>BOND
     1    1    2 1    
     2    1   82 1    
     3    1   83 1    
     4    1   84 1    
     5    2    3 2    
     6    2    4 am   BACKBONE|DICT|INTERRES
     7    4    5 1    
     8    4   85 1    
     9    5    6 1    
    10    5   80 1    
    11    5   86 1    
    12    6    7 1    
    13    6   87 1    
    14    6   88 1    
    15    7    8 1    
    16    8    9 1    
    17    8   89 1    
    18    8   90 1    
    19    9   10 ar   
    20    9   14 ar   
    21   10   11 ar   
    22   10   91 1    
    23   11   12 ar   
    24   11   58 1    
    25   12   13 ar   
    26   12   92 1    
    27   13   14 ar   
    28   13   15 1    
    29   14   93 1    
    30   15   16 1    
    31   15   94 1    
    32   15   95 1    
    33   16   17 1    
    34   17   18 1    
    35   17   96 1    
    36   17   97 1    
    37   18   19 1    
    38   18   22 1    
    39   18   98 1    
    40   19   20 am   BACKBONE|DICT|INTERRES
    41   19   21 2    
    42   20   99 1    
    43   20  100 1    
    44   22   23 am   BACKBONE|DICT|INTERRES
    45   22  101 1    
    46   23   24 2    
    47   23   25 1    
    48   25   26 1    
    49   25   27 1    
    50   25  102 1    
    51   26  103 1    
    52   26  104 1    
    53   26  105 1    
    54   27   28 am   BACKBONE|DICT|INTERRES
    55   27  106 1    
    56   28   29 2    
    57   28   30 1    
    58   30   31 1    
    59   30   32 1    
    60   30  107 1    
    61   31  108 1    
    62   31  109 1    
    63   31  110 1    
    64   32   33 am   BACKBONE|DICT|INTERRES
    65   32  111 1    
    66   33   34 2    
    67   33   35 1    
    68   35   36 1    
    69   35   37 1    
    70   35  112 1    
    71   36  113 1    
    72   36  114 1    
    73   36  115 1    
    74   37   38 am   BACKBONE|DICT|INTERRES
    75   37  116 1    
    76   38   39 2    
    77   38   40 1    
    78   40   41 1    
    79   40   42 1    
    80   40  117 1    
    81   41  118 1    
    82   41  119 1    
    83   41  120 1    
    84   42   43 am   BACKBONE|DICT|INTERRES
    85   42  121 1    
    86   43   44 2    
    87   43   45 1    
    88   45   46 1    
    89   45   47 1    
    90   45  122 1    
    91   46  123 1    
    92   46  124 1    
    93   46  125 1    
    94   47   48 am   BACKBONE|DICT|INTERRES
    95   47  126 1    
    96   48   49 2    
    97   48   50 1    
    98   50   51 1    
    99   50   52 1    
   100   50  127 1    
   101   51  128 1    
   102   51  129 1    
   103   51  130 1    
   104   52   53 am   BACKBONE|DICT|INTERRES
   105   52  131 1    
   106   53   54 2    
   107   53   55 1    
   108   55   56 1    
   109   55   59 1    
   110   55  132 1    
   111   56   57 1    
   112   56  133 1    
   113   56  134 1    
   114   57   58 1    
   115   58  135 1    
   116   58  136 1    
   117   59   60 am   BACKBONE|DICT|INTERRES
   118   59  137 1    
   119   60   61 2    
   120   60   62 1    
   121   62   63 1    
   122   62   64 1    
   123   62  138 1    
   124   63  139 1    
   125   63  140 1    
   126   63  141 1    
   127   64   65 am   BACKBONE|DICT|INTERRES
   128   64  142 1    
   129   65   66 2    
   130   65   67 1    
   131   67   68 1    
   132   67   69 1    
   133   67  143 1    
   134   68  144 1    
   135   68  145 1    
   136   68  146 1    
   137   69   70 am   BACKBONE|DICT|INTERRES
   138   69  147 1    
   139   70   71 2    
   140   70   72 1    
   141   72   73 1    
   142   72   74 1    
   143   72  148 1    
   144   73  149 1    
   145   73  150 1    
   146   73  151 1    
   147   74   75 am   BACKBONE|DICT|INTERRES
   148   74  152 1    
   149   75   76 2    
   150   75   77 1    
   151   77   78 1    
   152   77   79 1    
   153   77  153 1    
   154   78  154 1    
   155   78  155 1    
   156   78  156 1    
   157   79   80 am   BACKBONE|DICT|INTERRES
   158   79  157 1    
   159   80   81 2    
@<TRIPOS>SUBSTRUCTURE
     1 UNK         1 GROUP             0       ****    0 ROOT    
