@<TRIPOS>MOLECULE
3R207
157   159    1
SMALL
USER_CHARGES


@<TRIPOS>ATOM
      1 CA        -47.6187  -26.5397    3.7845 C.3       0 UNK        -0.1975 
      2 C         -47.3523  -27.5827    4.8599 C.2       0 UNK         0.4852 
      3 O         -46.3286  -28.2630    4.8036 O.2       0 UNK        -0.5216 
      4 N         -48.2806  -27.7030    5.8186 N.am      1 UNK        -0.4461 
      5 CA        -48.2675  -28.5882    6.9887 C.3       1 UNK         0.0864 
      6 C6        -48.0803  -30.0904    6.6426 C.3       14 UNK        -0.0898 
      7 S7        -48.6190  -31.2121    7.9807 S.3       14 UNK        -0.2598 
      8 C8        -50.3607  -31.5292    7.5461 C.3       14 UNK         0.0286 
      9 C9        -51.2158  -30.2888    7.7539 C.ar      14 UNK        -0.0844 
     10 C10       -51.5645  -29.4824    6.6667 C.ar      14 UNK        -0.0881 
     11 C11       -52.2842  -28.3008    6.8628 C.ar      14 UNK        -0.0643 
     12 C12       -52.7002  -27.9531    8.1529 C.ar      14 UNK        -0.0930 
     13 C13       -52.3742  -28.7629    9.2451 C.ar      14 UNK        -0.0827 
     14 C14       -51.6273  -29.9266    9.0398 C.ar      14 UNK        -0.1249 
     15 C15       -52.8269  -28.3874   10.6480 C.3       14 UNK         0.0141 
     16 S16       -54.4165  -29.1821   11.0353 S.3       14 UNK        -0.2313 
     17 C17       -54.6002  -28.8342   12.8172 C.3       14 UNK        -0.0915 
     18 CA        -55.7645  -27.8647   13.1604 C.3       13 UNK         0.0968 
     19 C         -57.1686  -28.5178   12.9528 C.2       13 UNK         0.5732 
     20 N         -57.9173  -28.8509   13.9998 N.am      13 UNK        -0.7310 
     21 O         -57.6032  -28.7034   11.8191 O.2       13 UNK        -0.5035 
     22 N         -55.5699  -27.3027   14.5042 N.am      13 UNK        -0.4233 
     23 C         -56.2034  -26.2256   14.9862 C.2       13 UNK         0.4989 
     24 O         -56.8844  -25.4691   14.2926 O.2       13 UNK        -0.4996 
     25 CA        -56.0517  -25.9519   16.4974 C.3       12 UNK         0.0216 
     26 CB        -57.3032  -25.2822   17.1034 C.3       12 UNK        -0.1964 
     27 N         -55.6564  -27.1319   17.2850 N.am      12 UNK        -0.4276 
     28 C         -56.3343  -28.2821   17.4398 C.2       12 UNK         0.5020 
     29 O         -57.4186  -28.4981   16.8967 O.2       12 UNK        -0.5489 
     30 CA        -55.6834  -29.4069   18.2750 C.3       11 UNK         0.0294 
     31 CB        -55.7861  -30.7616   17.5495 C.3       11 UNK        -0.2019 
     32 N         -54.2730  -29.1531   18.5825 N.am      11 UNK        -0.4493 
     33 C         -53.8118  -28.5044   19.6609 C.2       11 UNK         0.4932 
     34 O         -54.5271  -28.1062   20.5798 O.2       11 UNK        -0.5029 
     35 CA        -52.2963  -28.2108   19.6965 C.3       10 UNK         0.0280 
     36 CB        -51.5580  -29.3021   20.4882 C.3       10 UNK        -0.1976 
     37 N         -51.6791  -28.0691   18.3677 N.am      10 UNK        -0.4242 
     38 C         -52.0503  -27.1688   17.4457 C.2       10 UNK         0.5072 
     39 O         -52.9425  -26.3400   17.6409 O.2       10 UNK        -0.5224 
     40 CA        -51.3700  -27.2624   16.0653 C.3       9 UNK         0.0343 
     41 CB        -51.5583  -28.6590   15.4420 C.3       9 UNK        -0.2003 
     42 N         -51.9175  -26.2707   15.1371 N.am      9 UNK        -0.4272 
     43 C         -51.6064  -24.9701   15.1282 C.2       9 UNK         0.4988 
     44 O         -50.7215  -24.4608   15.8200 O.2       9 UNK        -0.5108 
     45 CA        -52.4344  -24.0853   14.1819 C.3       8 UNK         0.0248 
     46 CB        -53.1709  -22.9805   14.9585 C.3       8 UNK        -0.2001 
     47 N         -51.5815  -23.4817   13.1596 N.am      8 UNK        -0.4140 
     48 C         -51.0127  -24.1677   12.1610 C.2       8 UNK         0.5028 
     49 O         -51.2020  -25.3714   11.9666 O.2       8 UNK        -0.5428 
     50 CA        -50.0576  -23.3727   11.2507 C.3       7 UNK         0.0264 
     51 CB        -48.6904  -23.1865   11.9295 C.3       7 UNK        -0.1988 
     52 N         -49.8554  -24.0165    9.9507 N.am      7 UNK        -0.4454 
     53 C         -50.8076  -24.1606    9.0172 C.2       7 UNK         0.5027 
     54 O         -51.9406  -23.6850    9.1238 O.2       7 UNK        -0.5083 
     55 CA        -50.4083  -24.9492    7.7487 C.3       6 UNK         0.0844 
     56 C56       -51.5428  -24.9835    6.6835 C.3       14 UNK        -0.0967 
     57 S57       -51.2460  -26.2114    5.3689 S.3       14 UNK        -0.2604 
     58 C58       -52.5936  -27.4018    5.6753 C.3       14 UNK         0.0134 
     59 N         -49.1135  -24.4777    7.2331 N.am      6 UNK        -0.4116 
     60 C         -48.8601  -23.2552    6.7384 C.2       5 UNK         0.5034 
     61 O         -49.7259  -22.4023    6.5404 O.2       5 UNK        -0.5045 
     62 CA        -47.3996  -22.8917    6.4293 C.3       5 UNK         0.0224 
     63 CB        -46.9662  -21.6506    7.2318 C.3       5 UNK        -0.1978 
     64 N         -46.4551  -23.9751    6.7147 N.am      5 UNK        -0.4737 
     65 C         -45.4490  -24.3379    5.9053 C.2       4 UNK         0.5027 
     66 O         -45.3069  -23.9008    4.7626 O.2       4 UNK        -0.5211 
     67 CA        -44.4230  -25.3488    6.4618 C.3       4 UNK         0.0297 
     68 CB        -43.0043  -25.1316    5.8937 C.3       4 UNK        -0.1993 
     69 N         -44.4067  -25.4061    7.9295 N.am      4 UNK        -0.4486 
     70 C         -44.0981  -24.4150    8.7844 C.2       3 UNK         0.4961 
     71 O         -43.6277  -23.3329    8.4321 O.2       3 UNK        -0.5105 
     72 CA        -44.3918  -24.6497   10.2838 C.3       3 UNK         0.0299 
     73 CB        -44.9294  -23.3734   10.9652 C.3       3 UNK        -0.1972 
     74 N         -45.2797  -25.7901   10.5557 N.am      3 UNK        -0.4305 
     75 C         -46.5446  -25.9524   10.1429 C.2       2 UNK         0.5006 
     76 O         -47.1867  -25.1186    9.4943 O.2       2 UNK        -0.5106 
     77 CA        -47.1792  -27.3168   10.4540 C.3       2 UNK         0.0296 
     78 CB        -48.1681  -27.2016   11.6222 C.3       2 UNK        -0.2002 
     79 N         -47.8710  -27.8685    9.2877 N.am      2 UNK        -0.4032 
     80 C         -47.3115  -28.0896    8.0881 C.2       1 UNK         0.5000 
     81 O         -46.1152  -27.9071    7.8493 O.2       1 UNK        -0.5238 
     82 H82       -48.3266  -25.7821    4.1210 H         1 UNK         0.0889 
     83 H83       -48.0231  -27.0160    2.8919 H         1 UNK         0.0889 
     84 H84       -46.6937  -26.0334    3.5099 H         1 UNK         0.0889 
     85 H85       -49.1096  -27.1255    5.7449 H         1 UNK         0.3028 
     86 H86       -49.2690  -28.4665    7.3931 H         1 UNK         0.0864 
     87 H87       -48.6385  -30.3395    5.7391 H         1 UNK         0.0720 
     88 H88       -47.0350  -30.3054    6.4136 H         1 UNK         0.0720 
     89 H89       -50.7392  -32.3395    8.1709 H         1 UNK         0.0814 
     90 H90       -50.4267  -31.8833    6.5161 H         1 UNK         0.0814 
     91 H91       -51.2384  -29.7510    5.6709 H         1 UNK         0.1469 
     92 H92       -53.2760  -27.0522    8.3116 H         1 UNK         0.1381 
     93 H93       -51.3617  -30.5502    9.8828 H         1 UNK         0.1206 
     94 H94       -52.9248  -27.3045   10.7441 H         1 UNK         0.0813 
     95 H95       -52.0722  -28.6952   11.3736 H         1 UNK         0.0813 
     96 H96       -53.6571  -28.4174   13.1724 H         1 UNK         0.0638 
     97 H97       -54.7208  -29.7821   13.3449 H         1 UNK         0.0638 
     98 H98       -55.7112  -27.0273   12.4619 H         1 UNK         0.0568 
     99 H99       -58.8227  -29.2604   13.8358 H         1 UNK         0.3450 
    100 H100      -57.6143  -28.6811   14.9537 H         1 UNK         0.3450 
    101 H101      -55.0677  -27.8810   15.1584 H         1 UNK         0.2987 
    102 H102      -55.2276  -25.2435   16.5879 H         1 UNK         0.0766 
    103 H103      -57.5108  -24.3266   16.6203 H         1 UNK         0.0798 
    104 H104      -57.1700  -25.0823   18.1666 H         1 UNK         0.0798 
    105 H105      -58.1916  -25.9038   16.9874 H         1 UNK         0.0798 
    106 H106      -54.7445  -27.0441   17.7272 H         1 UNK         0.3198 
    107 H107      -56.2497  -29.4787   19.2061 H         1 UNK         0.0843 
    108 H108      -55.2838  -30.7431   16.5815 H         1 UNK         0.0831 
    109 H109      -56.8270  -31.0346   17.3702 H         1 UNK         0.0831 
    110 H110      -55.3451  -31.5635   18.1420 H         1 UNK         0.0831 
    111 H111      -53.6003  -29.4569   17.8939 H         1 UNK         0.3133 
    112 H112      -52.1632  -27.2617   20.2199 H         1 UNK         0.0566 
    113 H113      -50.5018  -29.0604   20.6095 H         1 UNK         0.0814 
    114 H114      -51.6275  -30.2746   19.9992 H         1 UNK         0.0814 
    115 H115      -51.9791  -29.4105   21.4889 H         1 UNK         0.0814 
    116 H116      -50.9367  -28.7166   18.1434 H         1 UNK         0.3091 
    117 H117      -50.3025  -27.0738   16.1972 H         1 UNK         0.0702 
    118 H118      -51.1458  -28.6999   14.4332 H         1 UNK         0.0785 
    119 H119      -52.6100  -28.9411   15.3835 H         1 UNK         0.0785 
    120 H120      -51.0460  -29.4282   16.0208 H         1 UNK         0.0785 
    121 H121      -52.6419  -26.5901   14.5130 H         1 UNK         0.2998 
    122 H122      -53.1868  -24.6997   13.6815 H         1 UNK         0.0697 
    123 H123      -52.4762  -22.2984   15.4504 H         1 UNK         0.0825 
    124 H124      -53.8078  -23.4077   15.7338 H         1 UNK         0.0825 
    125 H125      -53.8117  -22.3923   14.3013 H         1 UNK         0.0825 
    126 H126      -51.3498  -22.5064   13.2810 H         1 UNK         0.3029 
    127 H127      -50.4974  -22.3890   11.0719 H         1 UNK         0.0897 
    128 H128      -48.1968  -24.1411   12.1136 H         1 UNK         0.0792 
    129 H129      -48.7902  -22.6820   12.8913 H         1 UNK         0.0792 
    130 H130      -48.0270  -22.5779   11.3156 H         1 UNK         0.0792 
    131 H131      -48.9400  -24.4268    9.7866 H         1 UNK         0.3086 
    132 H132      -50.2468  -25.9734    8.0889 H         1 UNK         0.0583 
    133 H133      -52.5032  -25.2028    7.1504 H         1 UNK         0.1020 
    134 H134      -51.6778  -24.0064    6.2191 H         1 UNK         0.1020 
    135 H135      -53.5366  -26.8738    5.8251 H         1 UNK         0.0694 
    136 H136      -52.7305  -28.0104    4.7800 H         1 UNK         0.0694 
    137 H137      -48.3238  -25.0806    7.4079 H         1 UNK         0.2989 
    138 H138      -47.3755  -22.6405    5.3666 H         1 UNK         0.1055 
    139 H139      -47.0041  -21.8352    8.3064 H         1 UNK         0.0806 
    140 H140      -47.6121  -20.7968    7.0224 H         1 UNK         0.0806 
    141 H141      -45.9479  -21.3528    6.9808 H         1 UNK         0.0806 
    142 H142      -46.4811  -24.3620    7.6526 H         1 UNK         0.3061 
    143 H143      -44.7587  -26.3304    6.1262 H         1 UNK         0.0734 
    144 H144      -42.6296  -24.1300    6.1059 H         1 UNK         0.0832 
    145 H145      -42.2968  -25.8507    6.3061 H         1 UNK         0.0832 
    146 H146      -42.9952  -25.2562    4.8102 H         1 UNK         0.0832 
    147 H147      -44.8026  -26.2590    8.3108 H         1 UNK         0.3156 
    148 H148      -43.4343  -24.8949   10.7454 H         1 UNK         0.0589 
    149 H149      -45.1768  -23.5513   12.0117 H         1 UNK         0.0808 
    150 H150      -44.1877  -22.5742   10.9402 H         1 UNK         0.0808 
    151 H151      -45.8228  -22.9979   10.4663 H         1 UNK         0.0808 
    152 H152      -44.8495  -26.5509   11.0645 H         1 UNK         0.3098 
    153 H153      -46.3933  -28.0221   10.7317 H         1 UNK         0.0720 
    154 H154      -47.6872  -26.7850   12.5083 H         1 UNK         0.0791 
    155 H155      -48.5727  -28.1748   11.9008 H         1 UNK         0.0791 
    156 H156      -49.0052  -26.5527   11.3695 H         1 UNK         0.0791 
    157 H157      -48.8528  -28.0695    9.4089 H         1 UNK         0.3028 
@<TRIPOS>BOND
     1    1    2 1    
     2    1   82 1    
     3    1   83 1    
     4    1   84 1    
     5    2    3 2    
     6    2    4 am   BACKBONE|DICT|INTERRES
     7    4    5 1    
     8    4   85 1    
     9    5    6 1    
    10    5   80 1    
    11    5   86 1    
    12    6    7 1    
    13    6   87 1    
    14    6   88 1    
    15    7    8 1    
    16    8    9 1    
    17    8   89 1    
    18    8   90 1    
    19    9   10 ar   
    20    9   14 ar   
    21   10   11 ar   
    22   10   91 1    
    23   11   12 ar   
    24   11   58 1    
    25   12   13 ar   
    26   12   92 1    
    27   13   14 ar   
    28   13   15 1    
    29   14   93 1    
    30   15   16 1    
    31   15   94 1    
    32   15   95 1    
    33   16   17 1    
    34   17   18 1    
    35   17   96 1    
    36   17   97 1    
    37   18   19 1    
    38   18   22 1    
    39   18   98 1    
    40   19   20 am   BACKBONE|DICT|INTERRES
    41   19   21 2    
    42   20   99 1    
    43   20  100 1    
    44   22   23 am   BACKBONE|DICT|INTERRES
    45   22  101 1    
    46   23   24 2    
    47   23   25 1    
    48   25   26 1    
    49   25   27 1    
    50   25  102 1    
    51   26  103 1    
    52   26  104 1    
    53   26  105 1    
    54   27   28 am   BACKBONE|DICT|INTERRES
    55   27  106 1    
    56   28   29 2    
    57   28   30 1    
    58   30   31 1    
    59   30   32 1    
    60   30  107 1    
    61   31  108 1    
    62   31  109 1    
    63   31  110 1    
    64   32   33 am   BACKBONE|DICT|INTERRES
    65   32  111 1    
    66   33   34 2    
    67   33   35 1    
    68   35   36 1    
    69   35   37 1    
    70   35  112 1    
    71   36  113 1    
    72   36  114 1    
    73   36  115 1    
    74   37   38 am   BACKBONE|DICT|INTERRES
    75   37  116 1    
    76   38   39 2    
    77   38   40 1    
    78   40   41 1    
    79   40   42 1    
    80   40  117 1    
    81   41  118 1    
    82   41  119 1    
    83   41  120 1    
    84   42   43 am   BACKBONE|DICT|INTERRES
    85   42  121 1    
    86   43   44 2    
    87   43   45 1    
    88   45   46 1    
    89   45   47 1    
    90   45  122 1    
    91   46  123 1    
    92   46  124 1    
    93   46  125 1    
    94   47   48 am   BACKBONE|DICT|INTERRES
    95   47  126 1    
    96   48   49 2    
    97   48   50 1    
    98   50   51 1    
    99   50   52 1    
   100   50  127 1    
   101   51  128 1    
   102   51  129 1    
   103   51  130 1    
   104   52   53 am   BACKBONE|DICT|INTERRES
   105   52  131 1    
   106   53   54 2    
   107   53   55 1    
   108   55   56 1    
   109   55   59 1    
   110   55  132 1    
   111   56   57 1    
   112   56  133 1    
   113   56  134 1    
   114   57   58 1    
   115   58  135 1    
   116   58  136 1    
   117   59   60 am   BACKBONE|DICT|INTERRES
   118   59  137 1    
   119   60   61 2    
   120   60   62 1    
   121   62   63 1    
   122   62   64 1    
   123   62  138 1    
   124   63  139 1    
   125   63  140 1    
   126   63  141 1    
   127   64   65 am   BACKBONE|DICT|INTERRES
   128   64  142 1    
   129   65   66 2    
   130   65   67 1    
   131   67   68 1    
   132   67   69 1    
   133   67  143 1    
   134   68  144 1    
   135   68  145 1    
   136   68  146 1    
   137   69   70 am   BACKBONE|DICT|INTERRES
   138   69  147 1    
   139   70   71 2    
   140   70   72 1    
   141   72   73 1    
   142   72   74 1    
   143   72  148 1    
   144   73  149 1    
   145   73  150 1    
   146   73  151 1    
   147   74   75 am   BACKBONE|DICT|INTERRES
   148   74  152 1    
   149   75   76 2    
   150   75   77 1    
   151   77   78 1    
   152   77   79 1    
   153   77  153 1    
   154   78  154 1    
   155   78  155 1    
   156   78  156 1    
   157   79   80 am   BACKBONE|DICT|INTERRES
   158   79  157 1    
   159   80   81 2    
@<TRIPOS>SUBSTRUCTURE
     1 UNK         1 GROUP             0       ****    0 ROOT    
