@<TRIPOS>MOLECULE
3R207
157   159    1
SMALL
USER_CHARGES


@<TRIPOS>ATOM
      1 CA        -45.6480  -30.6867    6.5192 C.3       0 UNK        -0.1975 
      2 C         -46.8619  -30.3186    5.6790 C.2       0 UNK         0.4852 
      3 O         -46.7837  -30.3366    4.4505 O.2       0 UNK        -0.5216 
      4 N         -47.9820  -29.9810    6.3342 N.am      1 UNK        -0.4461 
      5 CA        -49.2497  -29.5901    5.6997 C.3       1 UNK         0.0864 
      6 C6        -50.4223  -29.6496    6.7157 C.3       14 UNK        -0.0898 
      7 S7        -51.9902  -30.1464    5.9278 S.3       14 UNK        -0.2598 
      8 C8        -53.1818  -29.8670    7.2850 C.3       14 UNK         0.0286 
      9 C9        -53.4649  -28.4058    7.6443 C.ar      14 UNK        -0.0844 
     10 C10       -53.0583  -27.3296    6.8448 C.ar      14 UNK        -0.0881 
     11 C11       -53.3254  -26.0125    7.2273 C.ar      14 UNK        -0.0643 
     12 C12       -54.0303  -25.7649    8.4080 C.ar      14 UNK        -0.0930 
     13 C13       -54.4505  -26.8268    9.2128 C.ar      14 UNK        -0.0827 
     14 C14       -54.1701  -28.1399    8.8218 C.ar      14 UNK        -0.1249 
     15 C15       -55.2042  -26.5582   10.5078 C.3       14 UNK         0.0141 
     16 S16       -54.1115  -25.9853   11.8503 S.3       14 UNK        -0.2313 
     17 C17       -52.8951  -27.3406   11.9815 C.3       14 UNK        -0.0915 
     18 CA        -53.4761  -28.6657   12.5406 C.3       13 UNK         0.0968 
     19 C         -52.4149  -29.8047   12.5511 C.2       13 UNK         0.5732 
     20 N         -52.2216  -30.5396   13.6414 N.am      13 UNK        -0.7310 
     21 O         -51.7670  -30.0503   11.5368 O.2       13 UNK        -0.5035 
     22 N         -54.1394  -28.4706   13.8377 N.am      13 UNK        -0.4233 
     23 C         -55.2735  -29.0795   14.2060 C.2       13 UNK         0.4989 
     24 O         -55.9270  -29.8135   13.4618 O.2       13 UNK        -0.4996 
     25 CA        -55.7572  -28.8317   15.6496 C.3       12 UNK         0.0216 
     26 CB        -56.7853  -29.8803   16.1258 C.3       12 UNK        -0.1964 
     27 N         -54.6649  -28.7080   16.6228 N.am      12 UNK        -0.4276 
     28 C         -53.6991  -29.6050   16.8845 C.2       12 UNK         0.5020 
     29 O         -53.6077  -30.6901   16.3083 O.2       12 UNK        -0.5489 
     30 CA        -52.6315  -29.2234   17.9284 C.3       11 UNK         0.0294 
     31 CB        -51.2207  -29.6025   17.4421 C.3       11 UNK        -0.2019 
     32 N         -52.6563  -27.7892   18.2185 N.am      11 UNK        -0.4493 
     33 C         -53.1722  -27.2254   19.3196 C.2       11 UNK         0.4932 
     34 O         -53.6170  -27.8649   20.2725 O.2       11 UNK        -0.5029 
     35 CA        -53.2271  -25.6847   19.3615 C.3       10 UNK         0.0280 
     36 CB        -52.0552  -25.1306   20.1875 C.3       10 UNK        -0.1976 
     37 N         -53.2208  -25.0558   18.0362 N.am      10 UNK        -0.4242 
     38 C         -54.1816  -25.1925   17.1100 C.2       10 UNK         0.5072 
     39 O         -55.2215  -25.8253   17.2928 O.2       10 UNK        -0.5224 
     40 CA        -53.8963  -24.5946   15.7213 C.3       9 UNK         0.0343 
     41 CB        -54.4070  -23.1488   15.6329 C.3       9 UNK        -0.2003 
     42 N         -52.4767  -24.6345   15.3560 N.am      9 UNK        -0.4272 
     43 C         -51.7440  -25.7460   15.2104 C.2       9 UNK         0.4988 
     44 O         -52.2025  -26.8778   15.3834 O.2       9 UNK        -0.5108 
     45 CA        -50.2579  -25.5590   14.8404 C.3       8 UNK         0.0248 
     46 CB        -49.5501  -26.8938   14.5409 C.3       8 UNK        -0.2001 
     47 N         -50.0550  -24.6390   13.7144 N.am      8 UNK        -0.4140 
     48 C         -50.1103  -23.2994   13.7939 C.2       8 UNK         0.5028 
     49 O         -50.4075  -22.7035   14.8308 O.2       8 UNK        -0.5428 
     50 CA        -49.7989  -22.4699   12.5350 C.3       7 UNK         0.0264 
     51 CB        -48.4458  -21.7533   12.6780 C.3       7 UNK        -0.1988 
     52 N         -49.7958  -23.2660   11.3076 N.am      7 UNK        -0.4454 
     53 C         -50.8993  -23.5910   10.6176 C.2       7 UNK         0.5027 
     54 O         -52.0233  -23.1890   10.9191 O.2       7 UNK        -0.5083 
     55 CA        -50.7355  -24.4982    9.3752 C.3       6 UNK         0.0844 
     56 C56       -50.9376  -23.6517    8.0915 C.3       14 UNK        -0.0967 
     57 S57       -51.0365  -24.6309    6.5568 S.3       14 UNK        -0.2604 
     58 C58       -52.8302  -24.8666    6.3616 C.3       14 UNK         0.0134 
     59 N         -49.4812  -25.2685    9.3652 N.am      6 UNK        -0.4116 
     60 C         -49.1474  -26.1827   10.2901 C.2       5 UNK         0.5034 
     61 O         -49.8512  -26.4616   11.2582 O.2       5 UNK        -0.5045 
     62 CA        -47.7653  -26.8412   10.1700 C.3       5 UNK         0.0224 
     63 CB        -47.7704  -27.9443    9.1029 C.3       5 UNK        -0.1978 
     64 N         -46.6999  -25.8729    9.8966 N.am      5 UNK        -0.4737 
     65 C         -46.3066  -24.9139   10.7451 C.2       4 UNK         0.5027 
     66 O         -46.8090  -24.7543   11.8564 O.2       4 UNK        -0.5211 
     67 CA        -45.1981  -23.9453   10.2886 C.3       4 UNK         0.0297 
     68 CB        -43.8020  -24.4784   10.6655 C.3       4 UNK        -0.1993 
     69 N         -45.2786  -23.5549    8.8727 N.am      4 UNK        -0.4486 
     70 C         -45.0687  -24.3053    7.7834 C.2       3 UNK         0.4961 
     71 O         -44.6753  -25.4737    7.8052 O.2       3 UNK        -0.5105 
     72 CA        -45.4133  -23.6436    6.4375 C.3       3 UNK         0.0299 
     73 CB        -44.1324  -23.1908    5.7188 C.3       3 UNK        -0.1972 
     74 N         -46.1834  -24.5219    5.5492 N.am      3 UNK        -0.4305 
     75 C         -47.3045  -25.1857    5.8708 C.2       2 UNK         0.5006 
     76 O         -47.8329  -25.1351    6.9839 O.2       2 UNK        -0.5106 
     77 CA        -47.9473  -26.0614    4.7832 C.3       2 UNK         0.0296 
     78 CB        -47.1126  -26.2029    3.4901 C.3       2 UNK        -0.2002 
     79 N         -48.2135  -27.3780    5.3538 N.am      2 UNK        -0.4032 
     80 C         -49.1794  -28.2235    4.9717 C.2       1 UNK         0.5000 
     81 O         -49.9810  -27.9756    4.0687 O.2       1 UNK        -0.5238 
     82 H82       -44.8303  -29.9945    6.3195 H         1 UNK         0.0889 
     83 H83       -45.3112  -31.6928    6.2705 H         1 UNK         0.0889 
     84 H84       -45.8645  -30.6568    7.5870 H         1 UNK         0.0889 
     85 H85       -47.9900  -30.0212    7.3429 H         1 UNK         0.3028 
     86 H86       -49.4337  -30.3369    4.9237 H         1 UNK         0.0864 
     87 H87       -50.2209  -30.3938    7.4882 H         1 UNK         0.0720 
     88 H88       -50.5453  -28.7017    7.2439 H         1 UNK         0.0720 
     89 H89       -54.1258  -30.3375    7.0074 H         1 UNK         0.0814 
     90 H90       -52.8244  -30.3945    8.1711 H         1 UNK         0.0814 
     91 H91       -52.5134  -27.4984    5.9268 H         1 UNK         0.1469 
     92 H92       -54.2334  -24.7476    8.7140 H         1 UNK         0.1381 
     93 H93       -54.4946  -28.9632    9.4431 H         1 UNK         0.1206 
     94 H94       -55.7416  -27.4491   10.8356 H         1 UNK         0.0813 
     95 H95       -55.9662  -25.7981   10.3305 H         1 UNK         0.0813 
     96 H96       -52.4432  -27.4946   11.0005 H         1 UNK         0.0638 
     97 H97       -52.0868  -26.9906   12.6206 H         1 UNK         0.0638 
     98 H98       -54.2217  -29.0038   11.8213 H         1 UNK         0.0568 
     99 H99       -51.5354  -31.2758   13.6137 H         1 UNK         0.3450 
    100 H100      -52.7777  -30.4056   14.4783 H         1 UNK         0.3450 
    101 H101      -53.6235  -27.9095   14.5088 H         1 UNK         0.2987 
    102 H102      -56.2591  -27.8632   15.6326 H         1 UNK         0.0766 
    103 H103      -57.1303  -29.6663   17.1373 H         1 UNK         0.0798 
    104 H104      -57.6651  -29.8895   15.4812 H         1 UNK         0.0798 
    105 H105      -56.3666  -30.8873   16.1199 H         1 UNK         0.0798 
    106 H106      -54.6467  -27.8271   17.1255 H         1 UNK         0.3198 
    107 H107      -52.8463  -29.7978   18.8318 H         1 UNK         0.0843 
    108 H108      -50.9915  -29.1435   16.4800 H         1 UNK         0.0831 
    109 H109      -51.1267  -30.6819   17.3160 H         1 UNK         0.0831 
    110 H110      -50.4562  -29.2938   18.1549 H         1 UNK         0.0831 
    111 H111      -52.3498  -27.1928   17.4580 H         1 UNK         0.3133 
    112 H112      -54.1588  -25.4044   19.8573 H         1 UNK         0.0566 
    113 H113      -51.0922  -25.3635   19.7309 H         1 UNK         0.0814 
    114 H114      -52.0501  -25.5566   21.1920 H         1 UNK         0.0814 
    115 H115      -52.1229  -24.0482   20.2985 H         1 UNK         0.0814 
    116 H116      -52.4030  -24.5155   17.7929 H         1 UNK         0.3091 
    117 H117      -54.4401  -25.1951   14.9889 H         1 UNK         0.0702 
    118 H118      -54.2905  -22.7505   14.6246 H         1 UNK         0.0785 
    119 H119      -53.8746  -22.4884   16.3186 H         1 UNK         0.0785 
    120 H120      -55.4679  -23.0935   15.8814 H         1 UNK         0.0785 
    121 H121      -52.0032  -23.7463   15.2143 H         1 UNK         0.2998 
    122 H122      -49.7712  -25.1292   15.7183 H         1 UNK         0.0697 
    123 H123      -50.0377  -27.4433   13.7356 H         1 UNK         0.0825 
    124 H124      -49.5494  -27.5394   15.4191 H         1 UNK         0.0825 
    125 H125      -48.5095  -26.7375   14.2556 H         1 UNK         0.0825 
    126 H126      -49.8668  -25.0717   12.8161 H         1 UNK         0.3029 
    127 H127      -50.5734  -21.7034   12.4562 H         1 UNK         0.0897 
    128 H128      -48.2216  -21.1451   11.8015 H         1 UNK         0.0792 
    129 H129      -48.4501  -21.0858   13.5409 H         1 UNK         0.0792 
    130 H130      -47.6255  -22.4566   12.8200 H         1 UNK         0.0792 
    131 H131      -48.9080  -23.6545   11.0200 H         1 UNK         0.3086 
    132 H132      -51.5426  -25.2297    9.4313 H         1 UNK         0.0583 
    133 H133      -51.8419  -23.0440    8.1655 H         1 UNK         0.1020 
    134 H134      -50.1149  -22.9431    7.9792 H         1 UNK         0.1020 
    135 H135      -53.3620  -23.9409    6.5862 H         1 UNK         0.0694 
    136 H136      -53.0407  -25.0917    5.3150 H         1 UNK         0.0694 
    137 H137      -48.8619  -25.1231    8.5699 H         1 UNK         0.2989 
    138 H138      -47.5438  -27.3077   11.1329 H         1 UNK         0.1055 
    139 H139      -46.8004  -28.4375    9.0369 H         1 UNK         0.0806 
    140 H140      -48.0188  -27.5460    8.1215 H         1 UNK         0.0806 
    141 H141      -48.5119  -28.7077    9.3434 H         1 UNK         0.0806 
    142 H142      -46.2295  -25.9276    8.9985 H         1 UNK         0.3061 
    143 H143      -45.3508  -23.0218   10.8500 H         1 UNK         0.0734 
    144 H144      -43.7272  -24.6356   11.7423 H         1 UNK         0.0832 
    145 H145      -43.5831  -25.4333   10.1871 H         1 UNK         0.0832 
    146 H146      -43.0186  -23.7743   10.3856 H         1 UNK         0.0832 
    147 H147      -45.6222  -22.6162    8.7199 H         1 UNK         0.3156 
    148 H148      -46.0316  -22.7638    6.6269 H         1 UNK         0.0589 
    149 H149      -43.4915  -24.0373    5.4680 H         1 UNK         0.0808 
    150 H150      -44.3598  -22.6553    4.7967 H         1 UNK         0.0808 
    151 H151      -43.5488  -22.5163    6.3471 H         1 UNK         0.0808 
    152 H152      -45.8123  -24.6515    4.6197 H         1 UNK         0.3098 
    153 H153      -48.8982  -25.5878    4.5313 H         1 UNK         0.0720 
    154 H154      -47.6293  -26.8237    2.7579 H         1 UNK         0.0791 
    155 H155      -46.9438  -25.2361    3.0143 H         1 UNK         0.0791 
    156 H156      -46.1424  -26.6639    3.6806 H         1 UNK         0.0791 
    157 H157      -47.6168  -27.6437    6.1232 H         1 UNK         0.3028 
@<TRIPOS>BOND
     1    1    2 1    
     2    1   82 1    
     3    1   83 1    
     4    1   84 1    
     5    2    3 2    
     6    2    4 am   BACKBONE|DICT|INTERRES
     7    4    5 1    
     8    4   85 1    
     9    5    6 1    
    10    5   80 1    
    11    5   86 1    
    12    6    7 1    
    13    6   87 1    
    14    6   88 1    
    15    7    8 1    
    16    8    9 1    
    17    8   89 1    
    18    8   90 1    
    19    9   10 ar   
    20    9   14 ar   
    21   10   11 ar   
    22   10   91 1    
    23   11   12 ar   
    24   11   58 1    
    25   12   13 ar   
    26   12   92 1    
    27   13   14 ar   
    28   13   15 1    
    29   14   93 1    
    30   15   16 1    
    31   15   94 1    
    32   15   95 1    
    33   16   17 1    
    34   17   18 1    
    35   17   96 1    
    36   17   97 1    
    37   18   19 1    
    38   18   22 1    
    39   18   98 1    
    40   19   20 am   BACKBONE|DICT|INTERRES
    41   19   21 2    
    42   20   99 1    
    43   20  100 1    
    44   22   23 am   BACKBONE|DICT|INTERRES
    45   22  101 1    
    46   23   24 2    
    47   23   25 1    
    48   25   26 1    
    49   25   27 1    
    50   25  102 1    
    51   26  103 1    
    52   26  104 1    
    53   26  105 1    
    54   27   28 am   BACKBONE|DICT|INTERRES
    55   27  106 1    
    56   28   29 2    
    57   28   30 1    
    58   30   31 1    
    59   30   32 1    
    60   30  107 1    
    61   31  108 1    
    62   31  109 1    
    63   31  110 1    
    64   32   33 am   BACKBONE|DICT|INTERRES
    65   32  111 1    
    66   33   34 2    
    67   33   35 1    
    68   35   36 1    
    69   35   37 1    
    70   35  112 1    
    71   36  113 1    
    72   36  114 1    
    73   36  115 1    
    74   37   38 am   BACKBONE|DICT|INTERRES
    75   37  116 1    
    76   38   39 2    
    77   38   40 1    
    78   40   41 1    
    79   40   42 1    
    80   40  117 1    
    81   41  118 1    
    82   41  119 1    
    83   41  120 1    
    84   42   43 am   BACKBONE|DICT|INTERRES
    85   42  121 1    
    86   43   44 2    
    87   43   45 1    
    88   45   46 1    
    89   45   47 1    
    90   45  122 1    
    91   46  123 1    
    92   46  124 1    
    93   46  125 1    
    94   47   48 am   BACKBONE|DICT|INTERRES
    95   47  126 1    
    96   48   49 2    
    97   48   50 1    
    98   50   51 1    
    99   50   52 1    
   100   50  127 1    
   101   51  128 1    
   102   51  129 1    
   103   51  130 1    
   104   52   53 am   BACKBONE|DICT|INTERRES
   105   52  131 1    
   106   53   54 2    
   107   53   55 1    
   108   55   56 1    
   109   55   59 1    
   110   55  132 1    
   111   56   57 1    
   112   56  133 1    
   113   56  134 1    
   114   57   58 1    
   115   58  135 1    
   116   58  136 1    
   117   59   60 am   BACKBONE|DICT|INTERRES
   118   59  137 1    
   119   60   61 2    
   120   60   62 1    
   121   62   63 1    
   122   62   64 1    
   123   62  138 1    
   124   63  139 1    
   125   63  140 1    
   126   63  141 1    
   127   64   65 am   BACKBONE|DICT|INTERRES
   128   64  142 1    
   129   65   66 2    
   130   65   67 1    
   131   67   68 1    
   132   67   69 1    
   133   67  143 1    
   134   68  144 1    
   135   68  145 1    
   136   68  146 1    
   137   69   70 am   BACKBONE|DICT|INTERRES
   138   69  147 1    
   139   70   71 2    
   140   70   72 1    
   141   72   73 1    
   142   72   74 1    
   143   72  148 1    
   144   73  149 1    
   145   73  150 1    
   146   73  151 1    
   147   74   75 am   BACKBONE|DICT|INTERRES
   148   74  152 1    
   149   75   76 2    
   150   75   77 1    
   151   77   78 1    
   152   77   79 1    
   153   77  153 1    
   154   78  154 1    
   155   78  155 1    
   156   78  156 1    
   157   79   80 am   BACKBONE|DICT|INTERRES
   158   79  157 1    
   159   80   81 2    
@<TRIPOS>SUBSTRUCTURE
     1 UNK         1 GROUP             0       ****    0 ROOT    
