@<TRIPOS>MOLECULE
3R207
157   159    1
SMALL
USER_CHARGES


@<TRIPOS>ATOM
      1 CA        -47.8002  -28.6821   11.3101 C.3       0 UNK        -0.1975 
      2 C         -47.6579  -29.1032    9.8553 C.2       0 UNK         0.4852 
      3 O         -46.7741  -29.8952    9.5270 O.2       0 UNK        -0.5216 
      4 N         -48.5233  -28.5736    8.9855 N.am      1 UNK        -0.4461 
      5 CA        -48.5014  -28.7782    7.5367 C.3       1 UNK         0.0864 
      6 C6        -49.9300  -28.7282    6.9309 C.3       14 UNK        -0.0898 
      7 S7        -50.9425  -27.3102    7.4905 S.3       14 UNK        -0.2598 
      8 C8        -52.6232  -27.9668    7.2387 C.3       14 UNK         0.0286 
      9 C9        -53.6769  -27.1066    7.9230 C.ar      14 UNK        -0.0844 
     10 C10       -53.8302  -25.7624    7.5714 C.ar      14 UNK        -0.0881 
     11 C11       -54.7810  -24.9611    8.2113 C.ar      14 UNK        -0.0643 
     12 C12       -55.6026  -25.5228    9.1940 C.ar      14 UNK        -0.0930 
     13 C13       -55.4803  -26.8738    9.5336 C.ar      14 UNK        -0.0827 
     14 C14       -54.5120  -27.6582    8.8997 C.ar      14 UNK        -0.1249 
     15 C15       -56.3961  -27.4919   10.5792 C.3       14 UNK         0.0141 
     16 S16       -55.5531  -27.6023   12.1819 S.3       14 UNK        -0.2313 
     17 C17       -56.8327  -28.3374   13.2538 C.3       14 UNK        -0.0915 
     18 CA        -56.6446  -29.8481   13.5670 C.3       13 UNK         0.0968 
     19 C         -56.8334  -30.7480   12.3113 C.2       13 UNK         0.5732 
     20 N         -58.0559  -30.8537   11.8070 N.am      13 UNK        -0.7310 
     21 O         -55.8910  -31.3297   11.7758 O.2       13 UNK        -0.5035 
     22 N         -55.4007  -30.1280   14.3063 N.am      13 UNK        -0.4233 
     23 C         -55.1914  -31.2594   14.9983 C.2       13 UNK         0.4989 
     24 O         -56.0598  -32.1135   15.1849 O.2       13 UNK        -0.4996 
     25 CA        -53.7952  -31.4949   15.5948 C.3       12 UNK         0.0216 
     26 CB        -52.8445  -32.0554   14.5234 C.3       12 UNK        -0.1964 
     27 N         -53.2271  -30.2682   16.1517 N.am      12 UNK        -0.4276 
     28 C         -53.0997  -29.9924   17.4569 C.2       12 UNK         0.5020 
     29 O         -53.4343  -30.7657   18.3558 O.2       12 UNK        -0.5489 
     30 CA        -52.4863  -28.6296   17.8406 C.3       11 UNK         0.0294 
     31 CB        -50.9893  -28.7852   18.1533 C.3       11 UNK        -0.2019 
     32 N         -52.6514  -27.6016   16.8111 N.am      11 UNK        -0.4493 
     33 C         -53.8261  -27.0621   16.4561 C.2       11 UNK         0.4932 
     34 O         -54.8841  -27.2867   17.0443 O.2       11 UNK        -0.5029 
     35 CA        -53.8397  -26.1385   15.2235 C.3       10 UNK         0.0280 
     36 CB        -53.8078  -24.6675   15.6686 C.3       10 UNK        -0.1976 
     37 N         -52.7691  -26.3654   14.2426 N.am      10 UNK        -0.4242 
     38 C         -52.4093  -27.5335   13.6864 C.2       10 UNK         0.5072 
     39 O         -52.9389  -28.6124   13.9513 O.2       10 UNK        -0.5224 
     40 CA        -51.2340  -27.5152   12.6961 C.3       9 UNK         0.0343 
     41 CB        -51.7518  -27.3972   11.2562 C.3       9 UNK        -0.2003 
     42 N         -50.2543  -26.4581   12.9624 N.am      9 UNK        -0.4272 
     43 C         -49.5228  -26.3618   14.0846 C.2       9 UNK         0.4988 
     44 O         -49.6037  -27.1488   15.0287 O.2       9 UNK        -0.5108 
     45 CA        -48.5489  -25.1795   14.1725 C.3       8 UNK         0.0248 
     46 CB        -47.2607  -25.4859   13.3990 C.3       8 UNK        -0.2001 
     47 N         -49.1544  -23.9554   13.6500 N.am      8 UNK        -0.4140 
     48 C         -49.9815  -23.1726   14.3563 C.2       8 UNK         0.5028 
     49 O         -50.2382  -23.3430   15.5484 O.2       8 UNK        -0.5428 
     50 CA        -50.6553  -22.0118   13.6047 C.3       7 UNK         0.0264 
     51 CB        -49.7699  -20.7560   13.6455 C.3       7 UNK        -0.1988 
     52 N         -50.9865  -22.3278   12.2125 N.am      7 UNK        -0.4454 
     53 C         -51.8536  -23.2763   11.8256 C.2       7 UNK         0.5027 
     54 O         -52.4688  -23.9987   12.6074 O.2       7 UNK        -0.5083 
     55 CA        -52.0492  -23.4615   10.3081 C.3       6 UNK         0.0844 
     56 C56       -53.1669  -22.5108    9.8051 C.3       14 UNK        -0.0967 
     57 S57       -53.3960  -22.5485    7.9933 S.3       14 UNK        -0.2604 
     58 C58       -54.9413  -23.4982    7.8184 C.3       14 UNK         0.0134 
     59 N         -50.8067  -23.3129    9.5426 N.am      6 UNK        -0.4116 
     60 C         -49.6565  -23.9789    9.7196 C.2       5 UNK         0.5034 
     61 O         -49.4593  -24.7897   10.6307 O.2       5 UNK        -0.5045 
     62 CA        -48.5726  -23.6820    8.6659 C.3       5 UNK         0.0224 
     63 CB        -48.3813  -22.1683    8.4140 C.3       5 UNK        -0.1978 
     64 N         -47.2818  -24.3257    8.9249 N.am      5 UNK        -0.4737 
     65 C         -46.3962  -24.0653    9.8970 C.2       4 UNK         0.5027 
     66 O         -46.5790  -23.2547   10.8059 O.2       4 UNK        -0.5211 
     67 CA        -45.0460  -24.8042    9.8057 C.3       4 UNK         0.0297 
     68 CB        -45.1124  -26.1824   10.4772 C.3       4 UNK        -0.1993 
     69 N         -44.5889  -24.9794    8.4249 N.am      4 UNK        -0.4486 
     70 C         -44.1424  -24.0045    7.6242 C.2       3 UNK         0.4961 
     71 O         -44.0293  -22.8307    7.9785 O.2       3 UNK        -0.5105 
     72 CA        -43.7552  -24.3866    6.1810 C.3       3 UNK         0.0299 
     73 CB        -42.2877  -24.8522    6.1050 C.3       3 UNK        -0.1972 
     74 N         -44.6647  -25.3421    5.5276 N.am      3 UNK        -0.4305 
     75 C         -44.8855  -26.6313    5.8212 C.2       2 UNK         0.5006 
     76 O         -44.2959  -27.2536    6.7077 O.2       2 UNK        -0.5106 
     77 CA        -45.9747  -27.3361    4.9923 C.3       2 UNK         0.0296 
     78 CB        -45.3354  -28.2002    3.8931 C.3       2 UNK        -0.2002 
     79 N         -46.8715  -28.1689    5.8031 N.am      2 UNK        -0.4032 
     80 C         -47.5642  -27.7504    6.8733 C.2       1 UNK         0.5000 
     81 O         -47.5097  -26.6002    7.3158 O.2       1 UNK        -0.5238 
     82 H82       -48.3478  -27.7449   11.3961 H         1 UNK         0.0889 
     83 H83       -46.8198  -28.5409   11.7642 H         1 UNK         0.0889 
     84 H84       -48.3322  -29.4467   11.8753 H         1 UNK         0.0889 
     85 H85       -49.1964  -27.8865    9.2946 H         1 UNK         0.3028 
     86 H86       -48.0961  -29.7722    7.3337 H         1 UNK         0.0864 
     87 H87       -49.8967  -28.7298    5.8396 H         1 UNK         0.0720 
     88 H88       -50.4495  -29.6467    7.2076 H         1 UNK         0.0720 
     89 H89       -52.6706  -28.9893    7.6161 H         1 UNK         0.0814 
     90 H90       -52.8345  -28.0187    6.1698 H         1 UNK         0.0814 
     91 H91       -53.1941  -25.3332    6.8091 H         1 UNK         0.1469 
     92 H92       -56.3461  -24.9123    9.6878 H         1 UNK         0.1381 
     93 H93       -54.4098  -28.6995    9.1740 H         1 UNK         0.1206 
     94 H94       -57.3077  -26.9022   10.6871 H         1 UNK         0.0813 
     95 H95       -56.7046  -28.4875   10.2575 H         1 UNK         0.0813 
     96 H96       -57.8160  -28.1563   12.8166 H         1 UNK         0.0638 
     97 H97       -56.8291  -27.7782   14.1905 H         1 UNK         0.0638 
     98 H98       -57.4596  -30.1161   14.2425 H         1 UNK         0.0568 
     99 H99       -58.8402  -30.3844   12.2318 H         1 UNK         0.3450 
    100 H100      -58.1985  -31.4266   10.9902 H         1 UNK         0.3450 
    101 H101      -54.6212  -29.5011   14.1284 H         1 UNK         0.2987 
    102 H102      -53.8952  -32.2499   16.3776 H         1 UNK         0.0766 
    103 H103      -52.7021  -31.3550   13.6993 H         1 UNK         0.0798 
    104 H104      -51.8644  -32.2812   14.9437 H         1 UNK         0.0798 
    105 H105      -53.2372  -32.9807   14.0996 H         1 UNK         0.0798 
    106 H106      -52.9704  -29.5546   15.4705 H         1 UNK         0.3198 
    107 H107      -52.9926  -28.2864   18.7455 H         1 UNK         0.0843 
    108 H108      -50.8281  -29.5315   18.9326 H         1 UNK         0.0831 
    109 H109      -50.5580  -27.8491   18.5085 H         1 UNK         0.0831 
    110 H110      -50.4248  -29.1022   17.2752 H         1 UNK         0.0831 
    111 H111      -51.8306  -27.3594   16.2708 H         1 UNK         0.3133 
    112 H112      -54.7850  -26.3126   14.7092 H         1 UNK         0.0566 
    113 H113      -54.5840  -24.4620   16.4071 H         1 UNK         0.0814 
    114 H114      -53.9802  -23.9945   14.8288 H         1 UNK         0.0814 
    115 H115      -52.8494  -24.4044   16.1182 H         1 UNK         0.0814 
    116 H116      -52.3378  -25.5270   13.8651 H         1 UNK         0.3091 
    117 H117      -50.7121  -28.4695   12.7910 H         1 UNK         0.0702 
    118 H118      -52.3913  -26.5244   11.1298 H         1 UNK         0.0785 
    119 H119      -52.3496  -28.2692   10.9881 H         1 UNK         0.0785 
    120 H120      -50.9370  -27.3262   10.5373 H         1 UNK         0.0785 
    121 H121      -50.0995  -25.7819   12.2202 H         1 UNK         0.2998 
    122 H122      -48.2863  -25.0327   15.2225 H         1 UNK         0.0697 
    123 H123      -47.4617  -25.6275   12.3373 H         1 UNK         0.0825 
    124 H124      -46.7861  -26.3952   13.7702 H         1 UNK         0.0825 
    125 H125      -46.5374  -24.6760   13.4959 H         1 UNK         0.0825 
    126 H126      -49.0151  -23.7621   12.6661 H         1 UNK         0.3029 
    127 H127      -51.5905  -21.7893   14.1235 H         1 UNK         0.0897 
    128 H128      -50.2747  -19.8986   13.1999 H         1 UNK         0.0792 
    129 H129      -49.5242  -20.4860   14.6737 H         1 UNK         0.0792 
    130 H130      -48.8288  -20.9068   13.1147 H         1 UNK         0.0792 
    131 H131      -50.5193  -21.7869   11.4993 H         1 UNK         0.3086 
    132 H132      -52.3881  -24.4850   10.1437 H         1 UNK         0.0583 
    133 H133      -54.1134  -22.7511   10.2940 H         1 UNK         0.1020 
    134 H134      -52.9448  -21.4774   10.0795 H         1 UNK         0.1020 
    135 H135      -55.7260  -23.0159    8.4033 H         1 UNK         0.0694 
    136 H136      -55.2632  -23.4511    6.7773 H         1 UNK         0.0694 
    137 H137      -50.8776  -22.6928    8.7491 H         1 UNK         0.2989 
    138 H138      -48.9315  -24.1328    7.7389 H         1 UNK         0.1055 
    139 H139      -49.2714  -21.7138    7.9785 H         1 UNK         0.0806 
    140 H140      -47.5636  -21.9863    7.7160 H         1 UNK         0.0806 
    141 H141      -48.1553  -21.6294    9.3349 H         1 UNK         0.0806 
    142 H142      -47.0789  -25.1000    8.2943 H         1 UNK         0.3061 
    143 H143      -44.3004  -24.2043   10.3319 H         1 UNK         0.0734 
    144 H144      -45.3048  -26.0891   11.5444 H         1 UNK         0.0832 
    145 H145      -45.9011  -26.7958   10.0435 H         1 UNK         0.0832 
    146 H146      -44.1719  -26.7234   10.3715 H         1 UNK         0.0832 
    147 H147      -44.6236  -25.9177    8.0346 H         1 UNK         0.3156 
    148 H148      -43.8320  -23.4714    5.5915 H         1 UNK         0.0589 
    149 H149      -42.1111  -25.7525    6.6941 H         1 UNK         0.0808 
    150 H150      -41.9897  -25.0597    5.0773 H         1 UNK         0.0808 
    151 H151      -41.6169  -24.0817    6.4875 H         1 UNK         0.0808 
    152 H152      -45.2316  -24.9370    4.7948 H         1 UNK         0.3098 
    153 H153      -46.5953  -26.5754    4.5142 H         1 UNK         0.0720 
    154 H154      -46.0911  -28.6478    3.2471 H         1 UNK         0.0791 
    155 H155      -44.7323  -29.0056    4.3148 H         1 UNK         0.0791 
    156 H156      -44.6808  -27.6030    3.2567 H         1 UNK         0.0791 
    157 H157      -46.9587  -29.1335    5.5188 H         1 UNK         0.3028 
@<TRIPOS>BOND
     1    1    2 1    
     2    1   82 1    
     3    1   83 1    
     4    1   84 1    
     5    2    3 2    
     6    2    4 am   BACKBONE|DICT|INTERRES
     7    4    5 1    
     8    4   85 1    
     9    5    6 1    
    10    5   80 1    
    11    5   86 1    
    12    6    7 1    
    13    6   87 1    
    14    6   88 1    
    15    7    8 1    
    16    8    9 1    
    17    8   89 1    
    18    8   90 1    
    19    9   10 ar   
    20    9   14 ar   
    21   10   11 ar   
    22   10   91 1    
    23   11   12 ar   
    24   11   58 1    
    25   12   13 ar   
    26   12   92 1    
    27   13   14 ar   
    28   13   15 1    
    29   14   93 1    
    30   15   16 1    
    31   15   94 1    
    32   15   95 1    
    33   16   17 1    
    34   17   18 1    
    35   17   96 1    
    36   17   97 1    
    37   18   19 1    
    38   18   22 1    
    39   18   98 1    
    40   19   20 am   BACKBONE|DICT|INTERRES
    41   19   21 2    
    42   20   99 1    
    43   20  100 1    
    44   22   23 am   BACKBONE|DICT|INTERRES
    45   22  101 1    
    46   23   24 2    
    47   23   25 1    
    48   25   26 1    
    49   25   27 1    
    50   25  102 1    
    51   26  103 1    
    52   26  104 1    
    53   26  105 1    
    54   27   28 am   BACKBONE|DICT|INTERRES
    55   27  106 1    
    56   28   29 2    
    57   28   30 1    
    58   30   31 1    
    59   30   32 1    
    60   30  107 1    
    61   31  108 1    
    62   31  109 1    
    63   31  110 1    
    64   32   33 am   BACKBONE|DICT|INTERRES
    65   32  111 1    
    66   33   34 2    
    67   33   35 1    
    68   35   36 1    
    69   35   37 1    
    70   35  112 1    
    71   36  113 1    
    72   36  114 1    
    73   36  115 1    
    74   37   38 am   BACKBONE|DICT|INTERRES
    75   37  116 1    
    76   38   39 2    
    77   38   40 1    
    78   40   41 1    
    79   40   42 1    
    80   40  117 1    
    81   41  118 1    
    82   41  119 1    
    83   41  120 1    
    84   42   43 am   BACKBONE|DICT|INTERRES
    85   42  121 1    
    86   43   44 2    
    87   43   45 1    
    88   45   46 1    
    89   45   47 1    
    90   45  122 1    
    91   46  123 1    
    92   46  124 1    
    93   46  125 1    
    94   47   48 am   BACKBONE|DICT|INTERRES
    95   47  126 1    
    96   48   49 2    
    97   48   50 1    
    98   50   51 1    
    99   50   52 1    
   100   50  127 1    
   101   51  128 1    
   102   51  129 1    
   103   51  130 1    
   104   52   53 am   BACKBONE|DICT|INTERRES
   105   52  131 1    
   106   53   54 2    
   107   53   55 1    
   108   55   56 1    
   109   55   59 1    
   110   55  132 1    
   111   56   57 1    
   112   56  133 1    
   113   56  134 1    
   114   57   58 1    
   115   58  135 1    
   116   58  136 1    
   117   59   60 am   BACKBONE|DICT|INTERRES
   118   59  137 1    
   119   60   61 2    
   120   60   62 1    
   121   62   63 1    
   122   62   64 1    
   123   62  138 1    
   124   63  139 1    
   125   63  140 1    
   126   63  141 1    
   127   64   65 am   BACKBONE|DICT|INTERRES
   128   64  142 1    
   129   65   66 2    
   130   65   67 1    
   131   67   68 1    
   132   67   69 1    
   133   67  143 1    
   134   68  144 1    
   135   68  145 1    
   136   68  146 1    
   137   69   70 am   BACKBONE|DICT|INTERRES
   138   69  147 1    
   139   70   71 2    
   140   70   72 1    
   141   72   73 1    
   142   72   74 1    
   143   72  148 1    
   144   73  149 1    
   145   73  150 1    
   146   73  151 1    
   147   74   75 am   BACKBONE|DICT|INTERRES
   148   74  152 1    
   149   75   76 2    
   150   75   77 1    
   151   77   78 1    
   152   77   79 1    
   153   77  153 1    
   154   78  154 1    
   155   78  155 1    
   156   78  156 1    
   157   79   80 am   BACKBONE|DICT|INTERRES
   158   79  157 1    
   159   80   81 2    
@<TRIPOS>SUBSTRUCTURE
     1 UNK         1 GROUP             0       ****    0 ROOT    
