@<TRIPOS>MOLECULE
3R207
157   159    1
SMALL
USER_CHARGES


@<TRIPOS>ATOM
      1 CA        -49.3795  -31.3651    2.2303 C.3       0 UNK        -0.1975 
      2 C         -49.0581  -30.1014    3.0148 C.2       0 UNK         0.4852 
      3 O         -49.1540  -29.0021    2.4678 O.2       0 UNK        -0.5216 
      4 N         -48.6871  -30.2513    4.2926 N.am      1 UNK        -0.4461 
      5 CA        -48.3007  -29.1615    5.1960 C.3       1 UNK         0.0864 
      6 C6        -48.2129  -29.6470    6.6655 C.3       14 UNK        -0.0898 
      7 S7        -49.7096  -30.5048    7.2657 S.3       14 UNK        -0.2598 
      8 C8        -50.0548  -29.6370    8.8305 C.3       14 UNK         0.0286 
      9 C9        -51.1799  -28.6253    8.6780 C.ar      14 UNK        -0.0844 
     10 C10       -50.9790  -27.4391    7.9674 C.ar      14 UNK        -0.0881 
     11 C11       -52.0045  -26.4929    7.8520 C.ar      14 UNK        -0.0643 
     12 C12       -53.2401  -26.7497    8.4563 C.ar      14 UNK        -0.0930 
     13 C13       -53.4602  -27.9416    9.1549 C.ar      14 UNK        -0.0827 
     14 C14       -52.4260  -28.8754    9.2583 C.ar      14 UNK        -0.1249 
     15 C15       -54.8242  -28.2309    9.7687 C.3       14 UNK         0.0141 
     16 S16       -54.9067  -27.7299   11.5170 S.3       14 UNK        -0.2313 
     17 C17       -54.1632  -29.1639   12.3707 C.3       14 UNK        -0.0915 
     18 CA        -55.1084  -29.8088   13.4193 C.3       13 UNK         0.0968 
     19 C         -54.4961  -31.1053   14.0287 C.2       13 UNK         0.5732 
     20 N         -54.4395  -31.2766   15.3453 N.am      13 UNK        -0.7310 
     21 O         -54.0754  -31.9904   13.2875 O.2       13 UNK        -0.5035 
     22 N         -55.5495  -28.8406   14.4358 N.am      13 UNK        -0.4233 
     23 C         -56.7691  -28.8366   14.9894 C.2       13 UNK         0.4989 
     24 O         -57.6743  -29.6006   14.6475 O.2       13 UNK        -0.4996 
     25 CA        -57.0246  -27.8108   16.1127 C.3       12 UNK         0.0216 
     26 CB        -58.2503  -28.1682   16.9809 C.3       12 UNK        -0.1964 
     27 N         -55.8563  -27.5529   16.9636 N.am      12 UNK        -0.4276 
     28 C         -55.1544  -28.4436   17.6846 C.2       12 UNK         0.5020 
     29 O         -55.3973  -29.6515   17.6912 O.2       12 UNK        -0.5489 
     30 CA        -53.9671  -27.9097   18.5119 C.3       11 UNK         0.0294 
     31 CB        -52.7733  -28.8822   18.4804 C.3       11 UNK        -0.2019 
     32 N         -53.5224  -26.6074   18.0150 N.am      11 UNK        -0.4493 
     33 C         -53.7563  -25.4215   18.5940 C.2       11 UNK         0.4932 
     34 O         -54.2966  -25.2903   19.6920 O.2       11 UNK        -0.5029 
     35 CA        -53.3515  -24.1615   17.8013 C.3       10 UNK         0.0280 
     36 CB        -52.0139  -23.6112   18.3196 C.3       10 UNK        -0.1976 
     37 N         -53.2607  -24.3893   16.3534 N.am      10 UNK        -0.4242 
     38 C         -54.3093  -24.6919   15.5687 C.2       10 UNK         0.5072 
     39 O         -55.4710  -24.7166   15.9757 O.2       10 UNK        -0.5224 
     40 CA        -54.0261  -25.1249   14.1168 C.3       9 UNK         0.0343 
     41 CB        -54.2095  -23.9435   13.1536 C.3       9 UNK        -0.2003 
     42 N         -52.6970  -25.7140   13.9275 N.am      9 UNK        -0.4272 
     43 C         -52.2505  -26.8096   14.5631 C.2       9 UNK         0.4988 
     44 O         -52.9781  -27.5143   15.2635 O.2       9 UNK        -0.5108 
     45 CA        -50.7503  -27.1599   14.4664 C.3       8 UNK         0.0248 
     46 CB        -50.5366  -28.3739   13.5486 C.3       8 UNK        -0.2001 
     47 N         -49.8946  -26.0620   14.0075 N.am      8 UNK        -0.4140 
     48 C         -49.7939  -24.8463   14.5703 C.2       8 UNK         0.5028 
     49 O         -50.3366  -24.5405   15.6323 O.2       8 UNK        -0.5428 
     50 CA        -49.0429  -23.7623   13.7702 C.3       7 UNK         0.0264 
     51 CB        -47.6159  -23.5885   14.3112 C.3       7 UNK        -0.1988 
     52 N         -48.9883  -24.0268   12.3260 N.am      7 UNK        -0.4454 
     53 C         -50.0583  -24.2106   11.5315 C.2       7 UNK         0.5027 
     54 O         -51.2141  -24.0420   11.9205 O.2       7 UNK        -0.5083 
     55 CA        -49.8284  -24.7439   10.1014 C.3       6 UNK         0.0844 
     56 C56       -50.4046  -23.7711    9.0441 C.3       14 UNK        -0.0967 
     57 S57       -50.2124  -24.3857    7.3379 S.3       14 UNK        -0.2604 
     58 C58       -51.8093  -25.2142    7.0411 C.3       14 UNK         0.0134 
     59 N         -48.4321  -25.1232    9.8475 N.am      6 UNK        -0.4116 
     60 C         -47.8349  -26.2090   10.3656 C.2       5 UNK         0.5034 
     61 O         -48.4152  -27.0160   11.0924 O.2       5 UNK        -0.5045 
     62 CA        -46.3352  -26.4161   10.0804 C.3       5 UNK         0.0224 
     63 CB        -46.1175  -27.5438    9.0622 C.3       5 UNK        -0.1978 
     64 N         -45.6490  -25.2060    9.6195 N.am      5 UNK        -0.4737 
     65 C         -45.3978  -24.1427   10.3976 C.2       4 UNK         0.5027 
     66 O         -45.6942  -24.0928   11.5909 O.2       4 UNK        -0.5211 
     67 CA        -44.7562  -22.9129    9.7284 C.3       4 UNK         0.0297 
     68 CB        -43.2282  -22.9540    9.8846 C.3       4 UNK        -0.1993 
     69 N         -45.0971  -22.7674    8.3090 N.am      4 UNK        -0.4486 
     70 C         -46.3400  -22.6247    7.8286 C.2       3 UNK         0.4961 
     71 O         -47.3417  -22.5762    8.5421 O.2       3 UNK        -0.5105 
     72 CA        -46.5136  -22.5744    6.3000 C.3       3 UNK         0.0299 
     73 CB        -45.2110  -22.2780    5.5212 C.3       3 UNK        -0.1972 
     74 N         -47.1548  -23.7971    5.8023 N.am      3 UNK        -0.4305 
     75 C         -46.7047  -25.0549    5.9245 C.2       2 UNK         0.5006 
     76 O         -45.6428  -25.3483    6.4803 O.2       2 UNK        -0.5106 
     77 CA        -47.5802  -26.1799    5.3409 C.3       2 UNK         0.0296 
     78 CB        -48.4921  -25.7179    4.1816 C.3       2 UNK        -0.2002 
     79 N         -46.6955  -27.2508    4.8852 N.am      2 UNK        -0.4032 
     80 C         -46.9353  -28.5635    4.7685 C.2       1 UNK         0.5000 
     81 O         -46.0575  -29.3310    4.3671 O.2       1 UNK        -0.5238 
     82 H82       -48.7111  -31.4549    1.3744 H         1 UNK         0.0889 
     83 H83       -50.4040  -31.3271    1.8611 H         1 UNK         0.0889 
     84 H84       -49.2721  -32.2621    2.8401 H         1 UNK         0.0889 
     85 H85       -48.6212  -31.1788    4.6863 H         1 UNK         0.3028 
     86 H86       -49.0812  -28.4035    5.1286 H         1 UNK         0.0864 
     87 H87       -47.3720  -30.3311    6.7981 H         1 UNK         0.0720 
     88 H88       -48.0131  -28.7952    7.3122 H         1 UNK         0.0720 
     89 H89       -49.1624  -29.1436    9.2173 H         1 UNK         0.0814 
     90 H90       -50.3213  -30.3843    9.5795 H         1 UNK         0.0814 
     91 H91       -50.0214  -27.2525    7.5055 H         1 UNK         0.1469 
     92 H92       -54.0413  -26.0287    8.3679 H         1 UNK         0.1381 
     93 H93       -52.5896  -29.8018    9.7895 H         1 UNK         0.1206 
     94 H94       -55.5968  -27.6909    9.2194 H         1 UNK         0.0813 
     95 H95       -55.0727  -29.2885    9.6685 H         1 UNK         0.0813 
     96 H96       -53.8773  -29.9082   11.6282 H         1 UNK         0.0638 
     97 H97       -53.2367  -28.8401   12.8379 H         1 UNK         0.0638 
     98 H98       -55.9855  -30.1496   12.8664 H         1 UNK         0.0568 
     99 H99       -54.8101  -30.5858   15.9886 H         1 UNK         0.3450 
    100 H100      -54.0440  -32.1289   15.7074 H         1 UNK         0.3450 
    101 H101      -54.8268  -28.2296   14.8002 H         1 UNK         0.2987 
    102 H102      -57.2443  -26.8689   15.6079 H         1 UNK         0.0766 
    103 H103      -58.1242  -29.1297   17.4800 H         1 UNK         0.0798 
    104 H104      -58.4273  -27.4133   17.7470 H         1 UNK         0.0798 
    105 H105      -59.1562  -28.2309   16.3767 H         1 UNK         0.0798 
    106 H106      -55.5620  -26.5830   16.9913 H         1 UNK         0.3198 
    107 H107      -54.3108  -27.8247   19.5448 H         1 UNK         0.0843 
    108 H108      -53.0401  -29.8461   18.9155 H         1 UNK         0.0831 
    109 H109      -51.9301  -28.4941   19.0518 H         1 UNK         0.0831 
    110 H110      -52.4315  -29.0686   17.4614 H         1 UNK         0.0831 
    111 H111      -53.1077  -26.6268   17.0891 H         1 UNK         0.3133 
    112 H112      -54.1196  -23.4043   17.9718 H         1 UNK         0.0566 
    113 H113      -51.7260  -22.7015   17.7925 H         1 UNK         0.0814 
    114 H114      -52.0779  -23.3651   19.3805 H         1 UNK         0.0814 
    115 H115      -51.2071  -24.3359   18.2022 H         1 UNK         0.0814 
    116 H116      -52.3237  -24.4061   15.9586 H         1 UNK         0.3091 
    117 H117      -54.7630  -25.8881   13.8614 H         1 UNK         0.0702 
    118 H118      -53.4834  -23.1520   13.3436 H         1 UNK         0.0785 
    119 H119      -55.2047  -23.5078   13.2528 H         1 UNK         0.0785 
    120 H120      -54.0964  -24.2601   12.1162 H         1 UNK         0.0785 
    121 H121      -52.0603  -25.1933   13.3319 H         1 UNK         0.2998 
    122 H122      -50.4211  -27.4274   15.4723 H         1 UNK         0.0697 
    123 H123      -50.8455  -28.1643   12.5231 H         1 UNK         0.0825 
    124 H124      -51.1087  -29.2346   13.8981 H         1 UNK         0.0825 
    125 H125      -49.4889  -28.6747   13.5245 H         1 UNK         0.0825 
    126 H126      -49.4072  -26.2189   13.1345 H         1 UNK         0.3029 
    127 H127      -49.5837  -22.8243   13.9124 H         1 UNK         0.0897 
    128 H128      -47.1006  -22.7656   13.8152 H         1 UNK         0.0792 
    129 H129      -47.6266  -23.3665   15.3794 H         1 UNK         0.0792 
    130 H130      -47.0182  -24.4901   14.1699 H         1 UNK         0.0792 
    131 H131      -48.0660  -24.1629   11.9317 H         1 UNK         0.3086 
    132 H132      -50.4201  -25.6589   10.0472 H         1 UNK         0.0583 
    133 H133      -51.4635  -23.5830    9.2326 H         1 UNK         0.1020 
    134 H134      -49.9128  -22.7994    9.1115 H         1 UNK         0.1020 
    135 H135      -52.6146  -24.5036    7.2336 H         1 UNK         0.0694 
    136 H136      -51.8720  -25.4693    5.9826 H         1 UNK         0.0694 
    137 H137      -47.8933  -24.4705    9.2891 H         1 UNK         0.2989 
    138 H138      -45.8775  -26.7237   11.0236 H         1 UNK         0.1055 
    139 H139      -46.5146  -27.2797    8.0840 H         1 UNK         0.0806 
    140 H140      -46.6071  -28.4641    9.3837 H         1 UNK         0.0806 
    141 H141      -45.0577  -27.7680    8.9406 H         1 UNK         0.0806 
    142 H142      -45.4035  -25.1621    8.6358 H         1 UNK         0.3061 
    143 H143      -45.1308  -22.0287   10.2485 H         1 UNK         0.0734 
    144 H144      -42.9464  -23.0379   10.9354 H         1 UNK         0.0832 
    145 H145      -42.7910  -23.8057    9.3617 H         1 UNK         0.0832 
    146 H146      -42.7636  -22.0463    9.4990 H         1 UNK         0.0832 
    147 H147      -44.3376  -22.8351    7.6469 H         1 UNK         0.3156 
    148 H148      -47.2081  -21.7569    6.1005 H         1 UNK         0.0589 
    149 H149      -44.4729  -23.0749    5.6166 H         1 UNK         0.0808 
    150 H150      -45.4163  -22.1523    4.4581 H         1 UNK         0.0808 
    151 H151      -44.7483  -21.3521    5.8659 H         1 UNK         0.0808 
    152 H152      -48.0634  -23.6647    5.3803 H         1 UNK         0.3098 
    153 H153      -48.1959  -26.5412    6.1646 H         1 UNK         0.0720 
    154 H154      -49.0327  -26.5495    3.7316 H         1 UNK         0.0791 
    155 H155      -47.9179  -25.2398    3.3867 H         1 UNK         0.0791 
    156 H156      -49.2464  -25.0074    4.5202 H         1 UNK         0.0791 
    157 H157      -45.7546  -26.9318    4.6963 H         1 UNK         0.3028 
@<TRIPOS>BOND
     1    1    2 1    
     2    1   82 1    
     3    1   83 1    
     4    1   84 1    
     5    2    3 2    
     6    2    4 am   BACKBONE|DICT|INTERRES
     7    4    5 1    
     8    4   85 1    
     9    5    6 1    
    10    5   80 1    
    11    5   86 1    
    12    6    7 1    
    13    6   87 1    
    14    6   88 1    
    15    7    8 1    
    16    8    9 1    
    17    8   89 1    
    18    8   90 1    
    19    9   10 ar   
    20    9   14 ar   
    21   10   11 ar   
    22   10   91 1    
    23   11   12 ar   
    24   11   58 1    
    25   12   13 ar   
    26   12   92 1    
    27   13   14 ar   
    28   13   15 1    
    29   14   93 1    
    30   15   16 1    
    31   15   94 1    
    32   15   95 1    
    33   16   17 1    
    34   17   18 1    
    35   17   96 1    
    36   17   97 1    
    37   18   19 1    
    38   18   22 1    
    39   18   98 1    
    40   19   20 am   BACKBONE|DICT|INTERRES
    41   19   21 2    
    42   20   99 1    
    43   20  100 1    
    44   22   23 am   BACKBONE|DICT|INTERRES
    45   22  101 1    
    46   23   24 2    
    47   23   25 1    
    48   25   26 1    
    49   25   27 1    
    50   25  102 1    
    51   26  103 1    
    52   26  104 1    
    53   26  105 1    
    54   27   28 am   BACKBONE|DICT|INTERRES
    55   27  106 1    
    56   28   29 2    
    57   28   30 1    
    58   30   31 1    
    59   30   32 1    
    60   30  107 1    
    61   31  108 1    
    62   31  109 1    
    63   31  110 1    
    64   32   33 am   BACKBONE|DICT|INTERRES
    65   32  111 1    
    66   33   34 2    
    67   33   35 1    
    68   35   36 1    
    69   35   37 1    
    70   35  112 1    
    71   36  113 1    
    72   36  114 1    
    73   36  115 1    
    74   37   38 am   BACKBONE|DICT|INTERRES
    75   37  116 1    
    76   38   39 2    
    77   38   40 1    
    78   40   41 1    
    79   40   42 1    
    80   40  117 1    
    81   41  118 1    
    82   41  119 1    
    83   41  120 1    
    84   42   43 am   BACKBONE|DICT|INTERRES
    85   42  121 1    
    86   43   44 2    
    87   43   45 1    
    88   45   46 1    
    89   45   47 1    
    90   45  122 1    
    91   46  123 1    
    92   46  124 1    
    93   46  125 1    
    94   47   48 am   BACKBONE|DICT|INTERRES
    95   47  126 1    
    96   48   49 2    
    97   48   50 1    
    98   50   51 1    
    99   50   52 1    
   100   50  127 1    
   101   51  128 1    
   102   51  129 1    
   103   51  130 1    
   104   52   53 am   BACKBONE|DICT|INTERRES
   105   52  131 1    
   106   53   54 2    
   107   53   55 1    
   108   55   56 1    
   109   55   59 1    
   110   55  132 1    
   111   56   57 1    
   112   56  133 1    
   113   56  134 1    
   114   57   58 1    
   115   58  135 1    
   116   58  136 1    
   117   59   60 am   BACKBONE|DICT|INTERRES
   118   59  137 1    
   119   60   61 2    
   120   60   62 1    
   121   62   63 1    
   122   62   64 1    
   123   62  138 1    
   124   63  139 1    
   125   63  140 1    
   126   63  141 1    
   127   64   65 am   BACKBONE|DICT|INTERRES
   128   64  142 1    
   129   65   66 2    
   130   65   67 1    
   131   67   68 1    
   132   67   69 1    
   133   67  143 1    
   134   68  144 1    
   135   68  145 1    
   136   68  146 1    
   137   69   70 am   BACKBONE|DICT|INTERRES
   138   69  147 1    
   139   70   71 2    
   140   70   72 1    
   141   72   73 1    
   142   72   74 1    
   143   72  148 1    
   144   73  149 1    
   145   73  150 1    
   146   73  151 1    
   147   74   75 am   BACKBONE|DICT|INTERRES
   148   74  152 1    
   149   75   76 2    
   150   75   77 1    
   151   77   78 1    
   152   77   79 1    
   153   77  153 1    
   154   78  154 1    
   155   78  155 1    
   156   78  156 1    
   157   79   80 am   BACKBONE|DICT|INTERRES
   158   79  157 1    
   159   80   81 2    
@<TRIPOS>SUBSTRUCTURE
     1 UNK         1 GROUP             0       ****    0 ROOT    
