@<TRIPOS>MOLECULE
3R207
157   159    1
SMALL
USER_CHARGES


@<TRIPOS>ATOM
      1 CA        -49.4319  -27.6140   10.5934 C.3       0 UNK        -0.1975 
      2 C         -48.9947  -27.4806    9.1452 C.2       0 UNK         0.4852 
      3 O         -48.6336  -26.3845    8.7104 O.2       0 UNK        -0.5216 
      4 N         -49.0204  -28.5974    8.4044 N.am      1 UNK        -0.4461 
      5 CA        -48.6139  -28.7145    6.9979 C.3       1 UNK         0.0864 
      6 C6        -49.4519  -27.8026    6.0593 C.3       14 UNK        -0.0898 
      7 S7        -49.7129  -28.5293    4.4026 S.3       14 UNK        -0.2598 
      8 C8        -51.1728  -29.6037    4.6485 C.3       14 UNK         0.0286 
      9 C9        -52.3058  -28.9088    5.3926 C.ar      14 UNK        -0.0844 
     10 C10       -52.8138  -27.6924    4.9283 C.ar      14 UNK        -0.0881 
     11 C11       -53.7768  -26.9980    5.6635 C.ar      14 UNK        -0.0643 
     12 C12       -54.2735  -27.5541    6.8472 C.ar      14 UNK        -0.0930 
     13 C13       -53.7830  -28.7779    7.3138 C.ar      14 UNK        -0.0827 
     14 C14       -52.8002  -29.4507    6.5828 C.ar      14 UNK        -0.1249 
     15 C15       -54.2939  -29.3617    8.6208 C.3       14 UNK         0.0141 
     16 S16       -53.3165  -28.7536   10.0293 S.3       14 UNK        -0.2313 
     17 C17       -54.1537  -29.5742   11.4245 C.3       14 UNK        -0.0915 
     18 CA        -55.2053  -28.6635   12.1253 C.3       13 UNK         0.0968 
     19 C         -56.5980  -28.7470   11.4518 C.2       13 UNK         0.5732 
     20 N         -57.4029  -29.7586   11.7590 N.am      13 UNK        -0.7310 
     21 O         -56.9666  -27.8797   10.6649 O.2       13 UNK        -0.5035 
     22 N         -55.3054  -28.9199   13.5685 N.am      13 UNK        -0.4233 
     23 C         -54.4156  -28.5112   14.4759 C.2       13 UNK         0.4989 
     24 O         -53.3694  -27.9224   14.1973 O.2       13 UNK        -0.4996 
     25 CA        -54.7203  -28.8458   15.9436 C.3       12 UNK         0.0216 
     26 CB        -54.0974  -30.1989   16.3242 C.3       12 UNK        -0.1964 
     27 N         -54.1717  -27.8098   16.8173 N.am      12 UNK        -0.4276 
     28 C         -54.7352  -26.6162   17.0420 C.2       12 UNK         0.5020 
     29 O         -55.8596  -26.3115   16.6396 O.2       12 UNK        -0.5489 
     30 CA        -53.8959  -25.5730   17.8070 C.3       11 UNK         0.0294 
     31 CB        -54.7324  -24.7596   18.8180 C.3       11 UNK        -0.2019 
     32 N         -52.6709  -26.1168   18.4139 N.am      11 UNK        -0.4493 
     33 C         -52.5583  -26.9214   19.4843 C.2       11 UNK         0.4932 
     34 O         -53.5186  -27.3013   20.1539 O.2       11 UNK        -0.5029 
     35 CA        -51.1503  -27.4339   19.8609 C.3       10 UNK         0.0280 
     36 CB        -51.1056  -28.9718   19.8118 C.3       10 UNK        -0.1976 
     37 N         -50.0801  -26.9127   19.0064 N.am      10 UNK        -0.4242 
     38 C         -49.5370  -25.6900   19.0902 C.2       10 UNK         0.5072 
     39 O         -49.8137  -24.8763   19.9718 O.2       10 UNK        -0.5224 
     40 CA        -48.5430  -25.2937   17.9779 C.3       9 UNK         0.0343 
     41 CB        -47.0956  -25.4917   18.4567 C.3       9 UNK        -0.2003 
     42 N         -48.7349  -26.0097   16.7069 N.am      9 UNK        -0.4272 
     43 C         -49.8547  -25.9818   15.9698 C.2       9 UNK         0.4988 
     44 O         -50.8638  -25.3502   16.2924 O.2       9 UNK        -0.5108 
     45 CA        -49.8694  -26.8706   14.7160 C.3       8 UNK         0.0248 
     46 CB        -49.9973  -28.3531   15.1085 C.3       8 UNK        -0.2001 
     47 N         -50.9964  -26.5272   13.8520 N.am      8 UNK        -0.4140 
     48 C         -51.0096  -25.5261   12.9698 C.2       8 UNK         0.5028 
     49 O         -50.0297  -24.8311   12.6900 O.2       8 UNK        -0.5428 
     50 CA        -52.3417  -25.2599   12.2677 C.3       7 UNK         0.0264 
     51 CB        -53.0804  -24.0767   12.9196 C.3       7 UNK        -0.1988 
     52 N         -52.0606  -24.9936   10.8627 N.am      7 UNK        -0.4454 
     53 C         -52.9465  -25.0731    9.8623 C.2       7 UNK         0.5027 
     54 O         -54.1425  -25.3030   10.0485 O.2       7 UNK        -0.5083 
     55 CA        -52.4210  -24.9038    8.4138 C.3       6 UNK         0.0844 
     56 C56       -53.4675  -24.1995    7.5001 C.3       14 UNK        -0.0967 
     57 S57       -53.0728  -24.3257    5.7239 S.3       14 UNK        -0.2604 
     58 C58       -54.2359  -25.6273    5.1920 C.3       14 UNK         0.0134 
     59 N         -51.0717  -24.3171    8.3487 N.am      6 UNK        -0.4116 
     60 C         -50.7305  -23.0677    8.6992 C.2       5 UNK         0.5034 
     61 O         -51.5349  -22.2157    9.0766 O.2       5 UNK        -0.5045 
     62 CA        -49.2396  -22.7056    8.6731 C.3       5 UNK         0.0224 
     63 CB        -48.6698  -22.7239   10.1017 C.3       5 UNK        -0.1978 
     64 N         -48.4396  -23.6157    7.8515 N.am      5 UNK        -0.4737 
     65 C         -47.8626  -23.2858    6.6887 C.2       4 UNK         0.5027 
     66 O         -48.0640  -22.2196    6.1047 O.2       4 UNK        -0.5211 
     67 CA        -46.8687  -24.3108    6.1018 C.3       4 UNK         0.0297 
     68 CB        -45.8828  -23.6858    5.0924 C.3       4 UNK        -0.1993 
     69 N         -46.1494  -25.0606    7.1412 N.am      4 UNK        -0.4486 
     70 C         -45.3591  -24.5665    8.1105 C.2       3 UNK         0.4961 
     71 O         -45.0233  -23.3843    8.1875 O.2       3 UNK        -0.5105 
     72 CA        -44.8907  -25.5358    9.2133 C.3       3 UNK         0.0299 
     73 CB        -45.6035  -25.2137   10.5387 C.3       3 UNK        -0.1972 
     74 N         -45.1345  -26.9405    8.8841 N.am      3 UNK        -0.4305 
     75 C         -44.3354  -27.7017    8.1239 C.2       2 UNK         0.5006 
     76 O         -43.2478  -27.3302    7.6822 O.2       2 UNK        -0.5106 
     77 CA        -44.8512  -29.1119    7.7772 C.3       2 UNK         0.0296 
     78 CB        -44.3176  -30.1426    8.7854 C.3       2 UNK        -0.2002 
     79 N         -46.3160  -29.2046    7.7145 N.am      2 UNK        -0.4032 
     80 C         -47.0871  -28.5409    6.8383 C.2       1 UNK         0.5000 
     81 O         -46.6289  -27.7832    5.9818 O.2       1 UNK        -0.5238 
     82 H82       -48.8858  -26.9093   11.2198 H         1 UNK         0.0889 
     83 H83       -49.2480  -28.6167   10.9784 H         1 UNK         0.0889 
     84 H84       -50.4970  -27.4065   10.6808 H         1 UNK         0.0889 
     85 H85       -49.3508  -29.4537    8.8283 H         1 UNK         0.3028 
     86 H86       -48.8220  -29.7521    6.7322 H         1 UNK         0.0864 
     87 H87       -50.4188  -27.5873    6.5117 H         1 UNK         0.0720 
     88 H88       -48.9964  -26.8191    5.9413 H         1 UNK         0.0720 
     89 H89       -50.8562  -30.5017    5.1811 H         1 UNK         0.0814 
     90 H90       -51.5365  -29.9367    3.6756 H         1 UNK         0.0814 
     91 H91       -52.4164  -27.2575    4.0212 H         1 UNK         0.1469 
     92 H92       -55.0157  -27.0207    7.4255 H         1 UNK         0.1381 
     93 H93       -52.4034  -30.3848    6.9566 H         1 UNK         0.1206 
     94 H94       -55.3429  -29.0976    8.7574 H         1 UNK         0.0813 
     95 H95       -54.2498  -30.4515    8.5896 H         1 UNK         0.0813 
     96 H96       -53.3616  -29.8430   12.1246 H         1 UNK         0.0638 
     97 H97       -54.5859  -30.5239   11.1038 H         1 UNK         0.0638 
     98 H98       -54.8854  -27.6243   12.0216 H         1 UNK         0.0568 
     99 H99       -58.3132  -29.7991   11.3278 H         1 UNK         0.3450 
    100 H100      -57.1014  -30.5152   12.3516 H         1 UNK         0.3450 
    101 H101      -56.1604  -29.3628   13.8733 H         1 UNK         0.2987 
    102 H102      -55.8018  -28.8989   16.0865 H         1 UNK         0.0766 
    103 H103      -54.5092  -31.0044   15.7146 H         1 UNK         0.0798 
    104 H104      -54.2975  -30.4485   17.3665 H         1 UNK         0.0798 
    105 H105      -53.0160  -30.2028   16.1799 H         1 UNK         0.0798 
    106 H106      -53.2303  -27.9491   17.1492 H         1 UNK         0.3198 
    107 H107      -53.5485  -24.8731   17.0452 H         1 UNK         0.0843 
    108 H108      -55.2104  -25.3986   19.5606 H         1 UNK         0.0831 
    109 H109      -55.5262  -24.2092   18.3116 H         1 UNK         0.0831 
    110 H110      -54.1191  -24.0289   19.3451 H         1 UNK         0.0831 
    111 H111      -51.8248  -25.8714   17.9058 H         1 UNK         0.3133 
    112 H112      -50.9575  -27.1206   20.8890 H         1 UNK         0.0566 
    113 H113      -50.1333  -29.3511   20.1271 H         1 UNK         0.0814 
    114 H114      -51.3063  -29.3524   18.8095 H         1 UNK         0.0814 
    115 H115      -51.8495  -29.4085   20.4798 H         1 UNK         0.0814 
    116 H116      -49.7681  -27.5129   18.2576 H         1 UNK         0.3091 
    117 H117      -48.6938  -24.2307   17.7783 H         1 UNK         0.0702 
    118 H118      -46.3797  -25.1210   17.7227 H         1 UNK         0.0785 
    119 H119      -46.8722  -26.5426   18.6451 H         1 UNK         0.0785 
    120 H120      -46.9136  -24.9485   19.3853 H         1 UNK         0.0785 
    121 H121      -47.9531  -26.5594   16.3793 H         1 UNK         0.2998 
    122 H122      -48.9357  -26.7239   14.1688 H         1 UNK         0.0697 
    123 H123      -50.9044  -28.5420   15.6843 H         1 UNK         0.0825 
    124 H124      -49.1501  -28.6818   15.7114 H         1 UNK         0.0825 
    125 H125      -50.0284  -28.9921   14.2256 H         1 UNK         0.0825 
    126 H126      -51.8666  -27.0315   14.0257 H         1 UNK         0.3029 
    127 H127      -52.9634  -26.1546   12.3299 H         1 UNK         0.0897 
    128 H128      -52.5049  -23.1534   12.8416 H         1 UNK         0.0792 
    129 H129      -53.2558  -24.2663   13.9796 H         1 UNK         0.0792 
    130 H130      -54.0524  -23.9070   12.4566 H         1 UNK         0.0792 
    131 H131      -51.0893  -24.7927   10.6628 H         1 UNK         0.3086 
    132 H132      -52.2996  -25.9240    8.0480 H         1 UNK         0.0583 
    133 H133      -54.4647  -24.6147    7.6518 H         1 UNK         0.1020 
    134 H134      -53.5603  -23.1443    7.7590 H         1 UNK         0.1020 
    135 H135      -55.2410  -25.4066    5.5547 H         1 UNK         0.0694 
    136 H136      -54.2987  -25.6177    4.1028 H         1 UNK         0.0694 
    137 H137      -50.3316  -24.9464    8.0669 H         1 UNK         0.2989 
    138 H138      -49.1666  -21.6841    8.2927 H         1 UNK         0.1055 
    139 H139      -48.7045  -23.7228   10.5384 H         1 UNK         0.0806 
    140 H140      -49.2323  -22.0605   10.7605 H         1 UNK         0.0806 
    141 H141      -47.6317  -22.3908   10.1163 H         1 UNK         0.0806 
    142 H142      -48.2573  -24.5411    8.2334 H         1 UNK         0.3061 
    143 H143      -47.4706  -25.0409    5.5602 H         1 UNK         0.0734 
    144 H144      -45.2863  -22.8935    5.5454 H         1 UNK         0.0832 
    145 H145      -45.1995  -24.4344    4.6916 H         1 UNK         0.0832 
    146 H146      -46.4146  -23.2482    4.2468 H         1 UNK         0.0832 
    147 H147      -46.3340  -26.0571    7.1393 H         1 UNK         0.3156 
    148 H148      -43.8190  -25.3817    9.3556 H         1 UNK         0.0589 
    149 H149      -45.2466  -25.8514   11.3476 H         1 UNK         0.0808 
    150 H150      -45.4226  -24.1808   10.8395 H         1 UNK         0.0808 
    151 H151      -46.6836  -25.3430   10.4598 H         1 UNK         0.0808 
    152 H152      -46.0085  -27.3317    9.2026 H         1 UNK         0.3098 
    153 H153      -44.4612  -29.3664    6.7893 H         1 UNK         0.0720 
    154 H154      -43.2280  -30.1128    8.8336 H         1 UNK         0.0791 
    155 H155      -44.5986  -31.1574    8.5029 H         1 UNK         0.0791 
    156 H156      -44.6930  -29.9567    9.7925 H         1 UNK         0.0791 
    157 H157      -46.7629  -29.8038    8.3936 H         1 UNK         0.3028 
@<TRIPOS>BOND
     1    1    2 1    
     2    1   82 1    
     3    1   83 1    
     4    1   84 1    
     5    2    3 2    
     6    2    4 am   BACKBONE|DICT|INTERRES
     7    4    5 1    
     8    4   85 1    
     9    5    6 1    
    10    5   80 1    
    11    5   86 1    
    12    6    7 1    
    13    6   87 1    
    14    6   88 1    
    15    7    8 1    
    16    8    9 1    
    17    8   89 1    
    18    8   90 1    
    19    9   10 ar   
    20    9   14 ar   
    21   10   11 ar   
    22   10   91 1    
    23   11   12 ar   
    24   11   58 1    
    25   12   13 ar   
    26   12   92 1    
    27   13   14 ar   
    28   13   15 1    
    29   14   93 1    
    30   15   16 1    
    31   15   94 1    
    32   15   95 1    
    33   16   17 1    
    34   17   18 1    
    35   17   96 1    
    36   17   97 1    
    37   18   19 1    
    38   18   22 1    
    39   18   98 1    
    40   19   20 am   BACKBONE|DICT|INTERRES
    41   19   21 2    
    42   20   99 1    
    43   20  100 1    
    44   22   23 am   BACKBONE|DICT|INTERRES
    45   22  101 1    
    46   23   24 2    
    47   23   25 1    
    48   25   26 1    
    49   25   27 1    
    50   25  102 1    
    51   26  103 1    
    52   26  104 1    
    53   26  105 1    
    54   27   28 am   BACKBONE|DICT|INTERRES
    55   27  106 1    
    56   28   29 2    
    57   28   30 1    
    58   30   31 1    
    59   30   32 1    
    60   30  107 1    
    61   31  108 1    
    62   31  109 1    
    63   31  110 1    
    64   32   33 am   BACKBONE|DICT|INTERRES
    65   32  111 1    
    66   33   34 2    
    67   33   35 1    
    68   35   36 1    
    69   35   37 1    
    70   35  112 1    
    71   36  113 1    
    72   36  114 1    
    73   36  115 1    
    74   37   38 am   BACKBONE|DICT|INTERRES
    75   37  116 1    
    76   38   39 2    
    77   38   40 1    
    78   40   41 1    
    79   40   42 1    
    80   40  117 1    
    81   41  118 1    
    82   41  119 1    
    83   41  120 1    
    84   42   43 am   BACKBONE|DICT|INTERRES
    85   42  121 1    
    86   43   44 2    
    87   43   45 1    
    88   45   46 1    
    89   45   47 1    
    90   45  122 1    
    91   46  123 1    
    92   46  124 1    
    93   46  125 1    
    94   47   48 am   BACKBONE|DICT|INTERRES
    95   47  126 1    
    96   48   49 2    
    97   48   50 1    
    98   50   51 1    
    99   50   52 1    
   100   50  127 1    
   101   51  128 1    
   102   51  129 1    
   103   51  130 1    
   104   52   53 am   BACKBONE|DICT|INTERRES
   105   52  131 1    
   106   53   54 2    
   107   53   55 1    
   108   55   56 1    
   109   55   59 1    
   110   55  132 1    
   111   56   57 1    
   112   56  133 1    
   113   56  134 1    
   114   57   58 1    
   115   58  135 1    
   116   58  136 1    
   117   59   60 am   BACKBONE|DICT|INTERRES
   118   59  137 1    
   119   60   61 2    
   120   60   62 1    
   121   62   63 1    
   122   62   64 1    
   123   62  138 1    
   124   63  139 1    
   125   63  140 1    
   126   63  141 1    
   127   64   65 am   BACKBONE|DICT|INTERRES
   128   64  142 1    
   129   65   66 2    
   130   65   67 1    
   131   67   68 1    
   132   67   69 1    
   133   67  143 1    
   134   68  144 1    
   135   68  145 1    
   136   68  146 1    
   137   69   70 am   BACKBONE|DICT|INTERRES
   138   69  147 1    
   139   70   71 2    
   140   70   72 1    
   141   72   73 1    
   142   72   74 1    
   143   72  148 1    
   144   73  149 1    
   145   73  150 1    
   146   73  151 1    
   147   74   75 am   BACKBONE|DICT|INTERRES
   148   74  152 1    
   149   75   76 2    
   150   75   77 1    
   151   77   78 1    
   152   77   79 1    
   153   77  153 1    
   154   78  154 1    
   155   78  155 1    
   156   78  156 1    
   157   79   80 am   BACKBONE|DICT|INTERRES
   158   79  157 1    
   159   80   81 2    
@<TRIPOS>SUBSTRUCTURE
     1 UNK         1 GROUP             0       ****    0 ROOT    
