@<TRIPOS>MOLECULE
3R207
157   159    1
SMALL
USER_CHARGES


@<TRIPOS>ATOM
      1 CA        -44.7331  -28.6345    6.9099 C.3       0 UNK        -0.1975 
      2 C         -45.7418  -28.8411    5.7895 C.2       0 UNK         0.4852 
      3 O         -45.4964  -28.4208    4.6586 O.2       0 UNK        -0.5216 
      4 N         -46.8783  -29.4798    6.0985 N.am      1 UNK        -0.4461 
      5 CA        -47.9975  -29.7306    5.1786 C.3       1 UNK         0.0864 
      6 C6        -48.9477  -30.8335    5.7153 C.3       14 UNK        -0.0898 
      7 S7        -49.4613  -30.5744    7.4478 S.3       14 UNK        -0.2598 
      8 C8        -51.2404  -30.2397    7.2747 C.3       14 UNK         0.0286 
      9 C9        -51.7963  -29.5606    8.5189 C.ar      14 UNK        -0.0844 
     10 C10       -52.3390  -28.2761    8.4316 C.ar      14 UNK        -0.0881 
     11 C11       -52.8374  -27.6360    9.5691 C.ar      14 UNK        -0.0643 
     12 C12       -52.7692  -28.2806   10.8055 C.ar      14 UNK        -0.0930 
     13 C13       -52.2613  -29.5815   10.9062 C.ar      14 UNK        -0.0827 
     14 C14       -51.7764  -30.2131    9.7564 C.ar      14 UNK        -0.1249 
     15 C15       -52.2077  -30.3144   12.2446 C.3       14 UNK         0.0141 
     16 S16       -53.6198  -29.9671   13.3506 S.3       14 UNK        -0.2313 
     17 C17       -55.0018  -30.8100   12.5053 C.3       14 UNK        -0.0915 
     18 CA        -55.7427  -29.9296   11.4616 C.3       13 UNK         0.0968 
     19 C         -56.9545  -30.6925   10.8615 C.2       13 UNK         0.5732 
     20 N         -56.7297  -31.5098    9.8415 N.am      13 UNK        -0.7310 
     21 O         -58.0838  -30.5846   11.3373 O.2       13 UNK        -0.5035 
     22 N         -56.1090  -28.6133   12.0051 N.am      13 UNK        -0.4233 
     23 C         -56.5076  -27.5677   11.2697 C.2       13 UNK         0.4989 
     24 O         -56.5986  -27.5920   10.0416 O.2       13 UNK        -0.4996 
     25 CA        -56.8697  -26.2646   12.0086 C.3       12 UNK         0.0216 
     26 CB        -58.3829  -26.0019   11.9196 C.3       12 UNK        -0.1964 
     27 N         -56.4668  -26.2363   13.4187 N.am      12 UNK        -0.4276 
     28 C         -55.2218  -26.0149   13.8588 C.2       12 UNK         0.5020 
     29 O         -54.2483  -25.8329   13.1242 O.2       12 UNK        -0.5489 
     30 CA        -55.0442  -26.0104   15.3812 C.3       11 UNK         0.0294 
     31 CB        -55.0822  -27.4420   15.9497 C.3       11 UNK        -0.2019 
     32 N         -53.7704  -25.3849   15.7211 N.am      11 UNK        -0.4493 
     33 C         -53.4707  -24.8241   16.8992 C.2       11 UNK         0.4932 
     34 O         -54.2771  -24.7011   17.8234 O.2       11 UNK        -0.5029 
     35 CA        -52.0133  -24.3548   17.0726 C.3       10 UNK         0.0280 
     36 CB        -51.6710  -23.9179   18.5128 C.3       10 UNK        -0.1976 
     37 N         -51.0682  -25.3632   16.5815 N.am      10 UNK        -0.4242 
     38 C         -50.9052  -26.6187   17.0277 C.2       10 UNK         0.5072 
     39 O         -51.4540  -27.0790   18.0299 O.2       10 UNK        -0.5224 
     40 CA        -49.9919  -27.5346   16.1965 C.3       9 UNK         0.0343 
     41 CB        -50.8227  -28.3110   15.1639 C.3       9 UNK        -0.2003 
     42 N         -48.9187  -26.8137   15.5088 N.am      9 UNK        -0.4272 
     43 C         -47.8391  -26.3092   16.1228 C.2       9 UNK         0.4988 
     44 O         -47.6143  -26.4327   17.3276 O.2       9 UNK        -0.5108 
     45 CA        -46.8416  -25.5307   15.2492 C.3       8 UNK         0.0248 
     46 CB        -45.9404  -26.4963   14.4631 C.3       8 UNK        -0.2001 
     47 N         -47.4947  -24.5933   14.3310 N.am      8 UNK        -0.4140 
     48 C         -48.1898  -23.5141   14.7224 C.2       8 UNK         0.5028 
     49 O         -48.3227  -23.1717   15.8976 O.2       8 UNK        -0.5428 
     50 CA        -48.8671  -22.6777   13.6246 C.3       7 UNK         0.0264 
     51 CB        -47.8577  -21.7238   12.9662 C.3       7 UNK        -0.1988 
     52 N         -49.5121  -23.4924   12.5950 N.am      7 UNK        -0.4454 
     53 C         -50.5497  -24.3182   12.8010 C.2       7 UNK         0.5027 
     54 O         -51.1049  -24.4684   13.8889 O.2       7 UNK        -0.5083 
     55 CA        -51.0139  -25.1440   11.5864 C.3       6 UNK         0.0844 
     56 C56       -51.8862  -24.2641   10.6532 C.3       14 UNK        -0.0967 
     57 S57       -52.2675  -24.9891    9.0249 S.3       14 UNK        -0.2604 
     58 C58       -53.4847  -26.2660    9.4469 C.3       14 UNK         0.0134 
     59 N         -49.8770  -25.7826   10.9158 N.am      6 UNK        -0.4116 
     60 C         -49.0374  -26.6533   11.4976 C.2       5 UNK         0.5034 
     61 O         -49.1483  -27.0568   12.6549 O.2       5 UNK        -0.5045 
     62 CA        -47.8252  -27.0998   10.6724 C.3       5 UNK         0.0224 
     63 CB        -48.1956  -28.2725    9.7545 C.3       5 UNK        -0.1978 
     64 N         -47.2759  -25.9935    9.8869 N.am      5 UNK        -0.4737 
     65 C         -46.5824  -24.9746   10.4147 C.2       4 UNK         0.5027 
     66 O         -46.2952  -24.8925   11.6084 O.2       4 UNK        -0.5211 
     67 CA        -46.1766  -23.8352    9.4629 C.3       4 UNK         0.0297 
     68 CB        -44.8562  -24.1739    8.7534 C.3       4 UNK        -0.1993 
     69 N         -47.2030  -23.5246    8.4645 N.am      4 UNK        -0.4486 
     70 C         -48.4339  -23.0800    8.7531 C.2       3 UNK         0.4961 
     71 O         -48.8155  -22.8223    9.8947 O.2       3 UNK        -0.5105 
     72 CA        -49.4220  -22.9288    7.5817 C.3       3 UNK         0.0299 
     73 CB        -49.3435  -21.5051    7.0082 C.3       3 UNK        -0.1972 
     74 N         -49.2805  -23.9003    6.4859 N.am      3 UNK        -0.4305 
     75 C         -49.1755  -25.2345    6.5897 C.2       2 UNK         0.5006 
     76 O         -49.0828  -25.8358    7.6618 O.2       2 UNK        -0.5106 
     77 CA        -49.1382  -26.0297    5.2747 C.3       2 UNK         0.0296 
     78 CB        -48.2670  -25.3499    4.1938 C.3       2 UNK        -0.2002 
     79 N         -48.6331  -27.3729    5.5507 N.am      2 UNK        -0.4032 
     80 C         -48.7570  -28.4482    4.7624 C.2       1 UNK         0.5000 
     81 O         -49.4126  -28.4534    3.7182 O.2       1 UNK        -0.5238 
     82 H82       -45.0675  -29.0770    7.8481 H         1 UNK         0.0889 
     83 H83       -44.5704  -27.5700    7.0764 H         1 UNK         0.0889 
     84 H84       -43.7787  -29.0877    6.6434 H         1 UNK         0.0889 
     85 H85       -47.0250  -29.8186    7.0394 H         1 UNK         0.3028 
     86 H86       -47.5605  -30.1160    4.2546 H         1 UNK         0.0864 
     87 H87       -49.8219  -30.9510    5.0717 H         1 UNK         0.0720 
     88 H88       -48.4325  -31.7944    5.6763 H         1 UNK         0.0720 
     89 H89       -51.7714  -31.1762    7.0992 H         1 UNK         0.0814 
     90 H90       -51.4051  -29.6157    6.3947 H         1 UNK         0.0814 
     91 H91       -52.3761  -27.7667    7.4784 H         1 UNK         0.1469 
     92 H92       -53.1466  -27.7791   11.6855 H         1 UNK         0.1381 
     93 H93       -51.3647  -31.2109    9.8228 H         1 UNK         0.1206 
     94 H94       -52.1431  -31.3925   12.0900 H         1 UNK         0.0813 
     95 H95       -51.2880  -30.0220   12.7505 H         1 UNK         0.0813 
     96 H96       -55.6976  -31.1392   13.2793 H         1 UNK         0.0638 
     97 H97       -54.6219  -31.7191   12.0356 H         1 UNK         0.0638 
     98 H98       -55.0560  -29.7457   10.6350 H         1 UNK         0.0568 
     99 H99       -57.5012  -32.0260    9.4488 H         1 UNK         0.3450 
    100 H100      -55.8064  -31.6141    9.4509 H         1 UNK         0.3450 
    101 H101      -56.0635  -28.5186   13.0070 H         1 UNK         0.2987 
    102 H102      -56.3546  -25.4522   11.4910 H         1 UNK         0.0766 
    103 H103      -58.6482  -25.0456   12.3708 H         1 UNK         0.0798 
    104 H104      -58.9588  -26.7825   12.4186 H         1 UNK         0.0798 
    105 H105      -58.7140  -25.9685   10.8805 H         1 UNK         0.0798 
    106 H106      -57.2020  -26.3782   14.0974 H         1 UNK         0.3198 
    107 H107      -55.8569  -25.4222   15.8132 H         1 UNK         0.0843 
    108 H108      -54.2535  -28.0422   15.5731 H         1 UNK         0.0831 
    109 H109      -56.0074  -27.9554   15.6864 H         1 UNK         0.0831 
    110 H110      -55.0171  -27.4378   17.0380 H         1 UNK         0.0831 
    111 H111      -53.0881  -25.3799   14.9690 H         1 UNK         0.3133 
    112 H112      -51.8909  -23.4837   16.4274 H         1 UNK         0.0566 
    113 H113      -50.6338  -23.5913   18.5898 H         1 UNK         0.0814 
    114 H114      -52.2986  -23.0823   18.8249 H         1 UNK         0.0814 
    115 H115      -51.8241  -24.7236   19.2313 H         1 UNK         0.0814 
    116 H116      -50.6261  -25.1210   15.7001 H         1 UNK         0.3091 
    117 H117      -49.5377  -28.2570   16.8781 H         1 UNK         0.0702 
    118 H118      -50.2012  -29.0185   14.6157 H         1 UNK         0.0785 
    119 H119      -51.2936  -27.6458   14.4379 H         1 UNK         0.0785 
    120 H120      -51.6170  -28.8815   15.6472 H         1 UNK         0.0785 
    121 H121      -49.0044  -26.7231   14.4982 H         1 UNK         0.2998 
    122 H122      -46.2046  -24.9468   15.9170 H         1 UNK         0.0697 
    123 H123      -46.5109  -27.0906   13.7491 H         1 UNK         0.0825 
    124 H124      -45.4326  -27.1906   15.1339 H         1 UNK         0.0825 
    125 H125      -45.1698  -25.9584   13.9107 H         1 UNK         0.0825 
    126 H126      -47.3739  -24.7677   13.3380 H         1 UNK         0.3029 
    127 H127      -49.6439  -22.0763   14.1018 H         1 UNK         0.0897 
    128 H128      -48.3454  -21.0677   12.2448 H         1 UNK         0.0792 
    129 H129      -47.3770  -21.0879   13.7108 H         1 UNK         0.0792 
    130 H130      -47.0707  -22.2676   12.4421 H         1 UNK         0.0792 
    131 H131      -49.1523  -23.3942   11.6470 H         1 UNK         0.3086 
    132 H132      -51.6424  -25.9487   11.9700 H         1 UNK         0.0583 
    133 H133      -52.8251  -24.0148   11.1522 H         1 UNK         0.1020 
    134 H134      -51.3980  -23.3081   10.4554 H         1 UNK         0.1020 
    135 H135      -54.0095  -25.9945   10.3635 H         1 UNK         0.0694 
    136 H136      -54.2423  -26.3031    8.6630 H         1 UNK         0.0694 
    137 H137      -49.7257  -25.5340    9.9467 H         1 UNK         0.2989 
    138 H138      -47.0548  -27.4436   11.3660 H         1 UNK         0.1055 
    139 H139      -48.5327  -29.1299   10.3390 H         1 UNK         0.0806 
    140 H140      -47.3435  -28.5992    9.1599 H         1 UNK         0.0806 
    141 H141      -49.0080  -28.0162    9.0738 H         1 UNK         0.0806 
    142 H142      -47.5862  -25.9279    8.9225 H         1 UNK         0.3061 
    143 H143      -46.0208  -22.9400   10.0688 H         1 UNK         0.0734 
    144 H144      -44.5076  -23.3408    8.1428 H         1 UNK         0.0832 
    145 H145      -44.0706  -24.3924    9.4783 H         1 UNK         0.0832 
    146 H146      -44.9550  -25.0474    8.1078 H         1 UNK         0.0832 
    147 H147      -46.9778  -23.7097    7.4983 H         1 UNK         0.3156 
    148 H148      -50.4224  -23.0611    7.9925 H         1 UNK         0.0589 
    149 H149      -48.3831  -21.3154    6.5272 H         1 UNK         0.0808 
    150 H150      -50.1295  -21.3272    6.2740 H         1 UNK         0.0808 
    151 H151      -49.4666  -20.7593    7.7953 H         1 UNK         0.0808 
    152 H152      -49.3317  -23.5133    5.5549 H         1 UNK         0.3098 
    153 H153      -50.1660  -26.1107    4.9156 H         1 UNK         0.0720 
    154 H154      -48.2109  -25.9541    3.2882 H         1 UNK         0.0791 
    155 H155      -47.2463  -25.1895    4.5440 H         1 UNK         0.0791 
    156 H156      -48.6725  -24.3834    3.8940 H         1 UNK         0.0791 
    157 H157      -48.1653  -27.4696    6.4419 H         1 UNK         0.3028 
@<TRIPOS>BOND
     1    1    2 1    
     2    1   82 1    
     3    1   83 1    
     4    1   84 1    
     5    2    3 2    
     6    2    4 am   BACKBONE|DICT|INTERRES
     7    4    5 1    
     8    4   85 1    
     9    5    6 1    
    10    5   80 1    
    11    5   86 1    
    12    6    7 1    
    13    6   87 1    
    14    6   88 1    
    15    7    8 1    
    16    8    9 1    
    17    8   89 1    
    18    8   90 1    
    19    9   10 ar   
    20    9   14 ar   
    21   10   11 ar   
    22   10   91 1    
    23   11   12 ar   
    24   11   58 1    
    25   12   13 ar   
    26   12   92 1    
    27   13   14 ar   
    28   13   15 1    
    29   14   93 1    
    30   15   16 1    
    31   15   94 1    
    32   15   95 1    
    33   16   17 1    
    34   17   18 1    
    35   17   96 1    
    36   17   97 1    
    37   18   19 1    
    38   18   22 1    
    39   18   98 1    
    40   19   20 am   BACKBONE|DICT|INTERRES
    41   19   21 2    
    42   20   99 1    
    43   20  100 1    
    44   22   23 am   BACKBONE|DICT|INTERRES
    45   22  101 1    
    46   23   24 2    
    47   23   25 1    
    48   25   26 1    
    49   25   27 1    
    50   25  102 1    
    51   26  103 1    
    52   26  104 1    
    53   26  105 1    
    54   27   28 am   BACKBONE|DICT|INTERRES
    55   27  106 1    
    56   28   29 2    
    57   28   30 1    
    58   30   31 1    
    59   30   32 1    
    60   30  107 1    
    61   31  108 1    
    62   31  109 1    
    63   31  110 1    
    64   32   33 am   BACKBONE|DICT|INTERRES
    65   32  111 1    
    66   33   34 2    
    67   33   35 1    
    68   35   36 1    
    69   35   37 1    
    70   35  112 1    
    71   36  113 1    
    72   36  114 1    
    73   36  115 1    
    74   37   38 am   BACKBONE|DICT|INTERRES
    75   37  116 1    
    76   38   39 2    
    77   38   40 1    
    78   40   41 1    
    79   40   42 1    
    80   40  117 1    
    81   41  118 1    
    82   41  119 1    
    83   41  120 1    
    84   42   43 am   BACKBONE|DICT|INTERRES
    85   42  121 1    
    86   43   44 2    
    87   43   45 1    
    88   45   46 1    
    89   45   47 1    
    90   45  122 1    
    91   46  123 1    
    92   46  124 1    
    93   46  125 1    
    94   47   48 am   BACKBONE|DICT|INTERRES
    95   47  126 1    
    96   48   49 2    
    97   48   50 1    
    98   50   51 1    
    99   50   52 1    
   100   50  127 1    
   101   51  128 1    
   102   51  129 1    
   103   51  130 1    
   104   52   53 am   BACKBONE|DICT|INTERRES
   105   52  131 1    
   106   53   54 2    
   107   53   55 1    
   108   55   56 1    
   109   55   59 1    
   110   55  132 1    
   111   56   57 1    
   112   56  133 1    
   113   56  134 1    
   114   57   58 1    
   115   58  135 1    
   116   58  136 1    
   117   59   60 am   BACKBONE|DICT|INTERRES
   118   59  137 1    
   119   60   61 2    
   120   60   62 1    
   121   62   63 1    
   122   62   64 1    
   123   62  138 1    
   124   63  139 1    
   125   63  140 1    
   126   63  141 1    
   127   64   65 am   BACKBONE|DICT|INTERRES
   128   64  142 1    
   129   65   66 2    
   130   65   67 1    
   131   67   68 1    
   132   67   69 1    
   133   67  143 1    
   134   68  144 1    
   135   68  145 1    
   136   68  146 1    
   137   69   70 am   BACKBONE|DICT|INTERRES
   138   69  147 1    
   139   70   71 2    
   140   70   72 1    
   141   72   73 1    
   142   72   74 1    
   143   72  148 1    
   144   73  149 1    
   145   73  150 1    
   146   73  151 1    
   147   74   75 am   BACKBONE|DICT|INTERRES
   148   74  152 1    
   149   75   76 2    
   150   75   77 1    
   151   77   78 1    
   152   77   79 1    
   153   77  153 1    
   154   78  154 1    
   155   78  155 1    
   156   78  156 1    
   157   79   80 am   BACKBONE|DICT|INTERRES
   158   79  157 1    
   159   80   81 2    
@<TRIPOS>SUBSTRUCTURE
     1 UNK         1 GROUP             0       ****    0 ROOT    
