@<TRIPOS>MOLECULE
3R207
157   159    1
SMALL
USER_CHARGES


@<TRIPOS>ATOM
      1 CA        -49.3949  -31.8397    7.0525 C.3       0 UNK        -0.1975 
      2 C         -49.1663  -30.8358    5.9348 C.2       0 UNK         0.4852 
      3 O         -48.1012  -30.8370    5.3149 O.2       0 UNK        -0.5216 
      4 N         -50.1668  -29.9882    5.6663 N.am      1 UNK        -0.4461 
      5 CA        -50.1065  -28.9180    4.6644 C.3       1 UNK         0.0864 
      6 C6        -51.5083  -28.3914    4.2422 C.3       14 UNK        -0.0898 
      7 S7        -52.7691  -29.6947    4.0012 S.3       14 UNK        -0.2598 
      8 C8        -53.9125  -29.3779    5.3899 C.3       14 UNK         0.0286 
      9 C9        -53.2362  -29.5694    6.7407 C.ar      14 UNK        -0.0844 
     10 C10       -52.6954  -28.4724    7.4177 C.ar      14 UNK        -0.0881 
     11 C11       -52.0097  -28.6463    8.6207 C.ar      14 UNK        -0.0643 
     12 C12       -51.9001  -29.9263    9.1711 C.ar      14 UNK        -0.0930 
     13 C13       -52.4784  -31.0265    8.5283 C.ar      14 UNK        -0.0827 
     14 C14       -53.1362  -30.8431    7.3076 C.ar      14 UNK        -0.1249 
     15 C15       -52.3834  -32.4154    9.1457 C.3       14 UNK         0.0141 
     16 S16       -53.2064  -32.5120   10.7670 S.3       14 UNK        -0.2313 
     17 C17       -54.9441  -32.1387   10.3420 C.3       14 UNK        -0.0915 
     18 CA        -55.3344  -30.6546   10.5844 C.3       13 UNK         0.0968 
     19 C         -56.8370  -30.4304   10.2662 C.2       13 UNK         0.5732 
     20 N         -57.1628  -30.0745    9.0310 N.am      13 UNK        -0.7310 
     21 O         -57.7080  -30.6240   11.1130 O.2       13 UNK        -0.5035 
     22 N         -54.9404  -30.2111   11.9288 N.am      13 UNK        -0.4233 
     23 C         -55.0275  -28.9637   12.4020 C.2       13 UNK         0.4989 
     24 O         -55.5526  -28.0213   11.8018 O.2       13 UNK        -0.4996 
     25 CA        -54.3817  -28.7266   13.7744 C.3       12 UNK         0.0216 
     26 CB        -52.8650  -29.0247   13.7395 C.3       12 UNK        -0.1964 
     27 N         -54.6258  -27.3412   14.1709 N.am      12 UNK        -0.4276 
     28 C         -54.4270  -26.8235   15.3857 C.2       12 UNK         0.5020 
     29 O         -54.0112  -27.4683   16.3514 O.2       12 UNK        -0.5489 
     30 CA        -54.7586  -25.3388   15.5669 C.3       11 UNK         0.0294 
     31 CB        -56.1548  -25.1473   16.1854 C.3       11 UNK        -0.2019 
     32 N         -53.7353  -24.7643   16.4316 N.am      11 UNK        -0.4493 
     33 C         -53.3519  -23.4843   16.4570 C.2       11 UNK         0.4932 
     34 O         -53.9398  -22.5865   15.8523 O.2       11 UNK        -0.5029 
     35 CA        -52.0781  -23.1382   17.2521 C.3       10 UNK         0.0280 
     36 CB        -52.3914  -22.8221   18.7277 C.3       10 UNK        -0.1976 
     37 N         -51.0069  -24.1342   17.0995 N.am      10 UNK        -0.4242 
     38 C         -50.9242  -25.3761   17.5987 C.2       10 UNK         0.5072 
     39 O         -51.7377  -25.8454   18.3946 O.2       10 UNK        -0.5224 
     40 CA        -49.7876  -26.2812   17.0842 C.3       9 UNK         0.0343 
     41 CB        -50.3665  -27.3980   16.2005 C.3       9 UNK        -0.2003 
     42 N         -48.7541  -25.5716   16.3248 N.am      9 UNK        -0.4272 
     43 C         -47.8052  -24.7991   16.8716 C.2       9 UNK         0.4988 
     44 O         -47.6760  -24.6276   18.0842 O.2       9 UNK        -0.5108 
     45 CA        -46.8508  -24.0801   15.9030 C.3       8 UNK         0.0248 
     46 CB        -45.7206  -25.0232   15.4604 C.3       8 UNK        -0.2001 
     47 N         -47.5287  -23.5336   14.7234 N.am      8 UNK        -0.4140 
     48 C         -48.4543  -22.5628   14.7545 C.2       8 UNK         0.5028 
     49 O         -48.8211  -21.9976   15.7850 O.2       8 UNK        -0.5428 
     50 CA        -49.1207  -22.1901   13.4187 C.3       7 UNK         0.0264 
     51 CB        -48.2020  -21.2971   12.5701 C.3       7 UNK        -0.1988 
     52 N         -49.5273  -23.3662   12.6460 N.am      7 UNK        -0.4454 
     53 C         -50.4386  -24.2610   13.0562 C.2       7 UNK         0.5027 
     54 O         -51.0713  -24.1565   14.1048 O.2       7 UNK        -0.5083 
     55 CA        -50.6616  -25.5035   12.1769 C.3       6 UNK         0.0844 
     56 C56       -51.6972  -25.2278   11.0595 C.3       14 UNK        -0.0967 
     57 S57       -52.5484  -26.7466   10.5264 S.3       14 UNK        -0.2604 
     58 C58       -51.3895  -27.4476    9.3181 C.3       14 UNK         0.0134 
     59 N         -49.3943  -26.0041   11.6427 N.am      6 UNK        -0.4116 
     60 C         -48.4356  -26.5905   12.3706 C.2       5 UNK         0.5034 
     61 O         -48.5192  -26.8030   13.5800 O.2       5 UNK        -0.5045 
     62 CA        -47.1432  -26.9558   11.6218 C.3       5 UNK         0.0224 
     63 CB        -47.3176  -28.2670   10.8374 C.3       5 UNK        -0.1978 
     64 N         -46.6944  -25.8939   10.7146 N.am      5 UNK        -0.4737 
     65 C         -46.2974  -24.6794   11.1195 C.2       4 UNK         0.5027 
     66 O         -46.2480  -24.3363   12.2994 O.2       4 UNK        -0.5211 
     67 CA        -45.9296  -23.6599   10.0284 C.3       4 UNK         0.0297 
     68 CB        -44.4670  -23.8486    9.5953 C.3       4 UNK        -0.1993 
     69 N         -46.7971  -23.6721    8.8433 N.am      4 UNK        -0.4486 
     70 C         -48.1355  -23.5569    8.8479 C.2       3 UNK         0.4961 
     71 O         -48.8218  -23.5352    9.8693 O.2       3 UNK        -0.5105 
     72 CA        -48.8276  -23.4557    7.4839 C.3       3 UNK         0.0299 
     73 CB        -48.8424  -21.9929    6.9990 C.3       3 UNK        -0.1972 
     74 N         -48.1901  -24.3369    6.5036 N.am      3 UNK        -0.4305 
     75 C         -48.7176  -24.7091    5.3313 C.2       2 UNK         0.5006 
     76 O         -49.7960  -24.2972    4.8993 O.2       2 UNK        -0.5106 
     77 CA        -47.9220  -25.7290    4.4886 C.3       2 UNK         0.0296 
     78 CB        -46.5261  -26.0832    5.0561 C.3       2 UNK        -0.2002 
     79 N         -48.7057  -26.9467    4.2445 N.am      2 UNK        -0.4032 
     80 C         -49.2318  -27.7541    5.1787 C.2       1 UNK         0.5000 
     81 O         -49.0822  -27.5880    6.3940 O.2       1 UNK        -0.5238 
     82 H82       -49.4207  -31.3327    8.0167 H         1 UNK         0.0889 
     83 H83       -48.5960  -32.5804    7.0783 H         1 UNK         0.0889 
     84 H84       -50.3374  -32.3663    6.9062 H         1 UNK         0.0889 
     85 H85       -51.0130  -30.0126    6.2213 H         1 UNK         0.3028 
     86 H86       -49.6256  -29.3330    3.7758 H         1 UNK         0.0864 
     87 H87       -51.8862  -27.6534    4.9488 H         1 UNK         0.0720 
     88 H88       -51.4208  -27.8511    3.2981 H         1 UNK         0.0720 
     89 H89       -54.7644  -30.0544    5.3067 H         1 UNK         0.0814 
     90 H90       -54.3185  -28.3687    5.3034 H         1 UNK         0.0814 
     91 H91       -52.7883  -27.4786    7.0025 H         1 UNK         0.1469 
     92 H92       -51.3834  -30.0639   10.1111 H         1 UNK         0.1381 
     93 H93       -53.5654  -31.6918    6.7923 H         1 UNK         0.1206 
     94 H94       -52.8104  -33.1702    8.4835 H         1 UNK         0.0813 
     95 H95       -51.3329  -32.6785    9.2736 H         1 UNK         0.0813 
     96 H96       -55.5741  -32.7977   10.9423 H         1 UNK         0.0638 
     97 H97       -55.1231  -32.4156    9.3013 H         1 UNK         0.0638 
     98 H98       -54.7625  -30.0382    9.8888 H         1 UNK         0.0568 
     99 H99       -56.4544  -29.9251    8.3299 H         1 UNK         0.3450 
    100 H100      -58.1346  -29.9409    8.7998 H         1 UNK         0.3450 
    101 H101      -54.5019  -30.9190   12.4979 H         1 UNK         0.2987 
    102 H102      -54.8690  -29.3874   14.4943 H         1 UNK         0.0766 
    103 H103      -52.4136  -28.9154   14.7245 H         1 UNK         0.0798 
    104 H104      -52.3398  -28.3580   13.0561 H         1 UNK         0.0798 
    105 H105      -52.6607  -30.0459   13.4166 H         1 UNK         0.0798 
    106 H106      -55.0171  -26.7762   13.4250 H         1 UNK         0.3198 
    107 H107      -54.7182  -24.8452   14.5931 H         1 UNK         0.0843 
    108 H108      -56.9256  -25.5894   15.5531 H         1 UNK         0.0831 
    109 H109      -56.3974  -24.0910   16.3018 H         1 UNK         0.0831 
    110 H110      -56.2263  -25.6178   17.1669 H         1 UNK         0.0831 
    111 H111      -53.2092  -25.4443   16.9750 H         1 UNK         0.3133 
    112 H112      -51.6746  -22.2275   16.8064 H         1 UNK         0.0566 
    113 H113      -51.4877  -22.5612   19.2782 H         1 UNK         0.0814 
    114 H114      -53.0739  -21.9747   18.8025 H         1 UNK         0.0814 
    115 H115      -52.8667  -23.6606   19.2370 H         1 UNK         0.0814 
    116 H116      -50.3153  -23.8847   16.4034 H         1 UNK         0.3091 
    117 H117      -49.3204  -26.7440   17.9559 H         1 UNK         0.0702 
    118 H118      -49.5913  -28.0915   15.8745 H         1 UNK         0.0785 
    119 H119      -50.8501  -26.9924   15.3107 H         1 UNK         0.0785 
    120 H120      -51.1150  -27.9793   16.7411 H         1 UNK         0.0785 
    121 H121      -48.7525  -25.7145   15.3197 H         1 UNK         0.2998 
    122 H122      -46.4025  -23.2430   16.4422 H         1 UNK         0.0697 
    123 H123      -46.1007  -25.8617   14.8752 H         1 UNK         0.0825 
    124 H124      -45.1940  -25.4361   16.3219 H         1 UNK         0.0825 
    125 H125      -44.9841  -24.4992   14.8509 H         1 UNK         0.0825 
    126 H126      -47.2402  -23.9069   13.8206 H         1 UNK         0.3029 
    127 H127      -50.0250  -21.6222   13.6487 H         1 UNK         0.0897 
    128 H128      -48.6800  -21.0114   11.6328 H         1 UNK         0.0792 
    129 H129      -47.9545  -20.3781   13.1028 H         1 UNK         0.0792 
    130 H130      -47.2634  -21.7948   12.3291 H         1 UNK         0.0792 
    131 H131      -49.0967  -23.4934   11.7326 H         1 UNK         0.3086 
    132 H132      -51.0673  -26.2718   12.8389 H         1 UNK         0.0583 
    133 H133      -52.4810  -24.5553   11.4152 H         1 UNK         0.1020 
    134 H134      -51.2450  -24.7252   10.2028 H         1 UNK         0.1020 
    135 H135      -51.1077  -26.6875    8.5872 H         1 UNK         0.0694 
    136 H136      -50.4729  -27.7526    9.8223 H         1 UNK         0.0694 
    137 H137      -49.1988  -25.7917   10.6757 H         1 UNK         0.2989 
    138 H138      -46.3652  -27.1071   12.3738 H         1 UNK         0.1055 
    139 H139      -47.6713  -29.0677   11.4887 H         1 UNK         0.0806 
    140 H140      -46.3725  -28.5977   10.4064 H         1 UNK         0.0806 
    141 H141      -48.0374  -28.1654   10.0244 H         1 UNK         0.0806 
    142 H142      -46.7007  -26.0940    9.7251 H         1 UNK         0.3061 
    143 H143      -46.0197  -22.6677   10.4740 H         1 UNK         0.0734 
    144 H144      -43.7992  -23.8273   10.4580 H         1 UNK         0.0832 
    145 H145      -44.3135  -24.8025    9.0892 H         1 UNK         0.0832 
    146 H146      -44.1445  -23.0540    8.9222 H         1 UNK         0.0832 
    147 H147      -46.3197  -23.6121    7.9565 H         1 UNK         0.3156 
    148 H148      -49.8585  -23.7896    7.6207 H         1 UNK         0.0589 
    149 H149      -47.8377  -21.6291    6.7808 H         1 UNK         0.0808 
    150 H150      -49.4434  -21.8741    6.0977 H         1 UNK         0.0808 
    151 H151      -49.2712  -21.3351    7.7566 H         1 UNK         0.0808 
    152 H152      -47.3463  -24.8050    6.7996 H         1 UNK         0.3098 
    153 H153      -47.7696  -25.2595    3.5156 H         1 UNK         0.0720 
    154 H154      -45.9962  -26.7582    4.3838 H         1 UNK         0.0791 
    155 H155      -46.5827  -26.5745    6.0282 H         1 UNK         0.0791 
    156 H156      -45.9031  -25.1940    5.1623 H         1 UNK         0.0791 
    157 H157      -48.9145  -27.1378    3.2743 H         1 UNK         0.3028 
@<TRIPOS>BOND
     1    1    2 1    
     2    1   82 1    
     3    1   83 1    
     4    1   84 1    
     5    2    3 2    
     6    2    4 am   BACKBONE|DICT|INTERRES
     7    4    5 1    
     8    4   85 1    
     9    5    6 1    
    10    5   80 1    
    11    5   86 1    
    12    6    7 1    
    13    6   87 1    
    14    6   88 1    
    15    7    8 1    
    16    8    9 1    
    17    8   89 1    
    18    8   90 1    
    19    9   10 ar   
    20    9   14 ar   
    21   10   11 ar   
    22   10   91 1    
    23   11   12 ar   
    24   11   58 1    
    25   12   13 ar   
    26   12   92 1    
    27   13   14 ar   
    28   13   15 1    
    29   14   93 1    
    30   15   16 1    
    31   15   94 1    
    32   15   95 1    
    33   16   17 1    
    34   17   18 1    
    35   17   96 1    
    36   17   97 1    
    37   18   19 1    
    38   18   22 1    
    39   18   98 1    
    40   19   20 am   BACKBONE|DICT|INTERRES
    41   19   21 2    
    42   20   99 1    
    43   20  100 1    
    44   22   23 am   BACKBONE|DICT|INTERRES
    45   22  101 1    
    46   23   24 2    
    47   23   25 1    
    48   25   26 1    
    49   25   27 1    
    50   25  102 1    
    51   26  103 1    
    52   26  104 1    
    53   26  105 1    
    54   27   28 am   BACKBONE|DICT|INTERRES
    55   27  106 1    
    56   28   29 2    
    57   28   30 1    
    58   30   31 1    
    59   30   32 1    
    60   30  107 1    
    61   31  108 1    
    62   31  109 1    
    63   31  110 1    
    64   32   33 am   BACKBONE|DICT|INTERRES
    65   32  111 1    
    66   33   34 2    
    67   33   35 1    
    68   35   36 1    
    69   35   37 1    
    70   35  112 1    
    71   36  113 1    
    72   36  114 1    
    73   36  115 1    
    74   37   38 am   BACKBONE|DICT|INTERRES
    75   37  116 1    
    76   38   39 2    
    77   38   40 1    
    78   40   41 1    
    79   40   42 1    
    80   40  117 1    
    81   41  118 1    
    82   41  119 1    
    83   41  120 1    
    84   42   43 am   BACKBONE|DICT|INTERRES
    85   42  121 1    
    86   43   44 2    
    87   43   45 1    
    88   45   46 1    
    89   45   47 1    
    90   45  122 1    
    91   46  123 1    
    92   46  124 1    
    93   46  125 1    
    94   47   48 am   BACKBONE|DICT|INTERRES
    95   47  126 1    
    96   48   49 2    
    97   48   50 1    
    98   50   51 1    
    99   50   52 1    
   100   50  127 1    
   101   51  128 1    
   102   51  129 1    
   103   51  130 1    
   104   52   53 am   BACKBONE|DICT|INTERRES
   105   52  131 1    
   106   53   54 2    
   107   53   55 1    
   108   55   56 1    
   109   55   59 1    
   110   55  132 1    
   111   56   57 1    
   112   56  133 1    
   113   56  134 1    
   114   57   58 1    
   115   58  135 1    
   116   58  136 1    
   117   59   60 am   BACKBONE|DICT|INTERRES
   118   59  137 1    
   119   60   61 2    
   120   60   62 1    
   121   62   63 1    
   122   62   64 1    
   123   62  138 1    
   124   63  139 1    
   125   63  140 1    
   126   63  141 1    
   127   64   65 am   BACKBONE|DICT|INTERRES
   128   64  142 1    
   129   65   66 2    
   130   65   67 1    
   131   67   68 1    
   132   67   69 1    
   133   67  143 1    
   134   68  144 1    
   135   68  145 1    
   136   68  146 1    
   137   69   70 am   BACKBONE|DICT|INTERRES
   138   69  147 1    
   139   70   71 2    
   140   70   72 1    
   141   72   73 1    
   142   72   74 1    
   143   72  148 1    
   144   73  149 1    
   145   73  150 1    
   146   73  151 1    
   147   74   75 am   BACKBONE|DICT|INTERRES
   148   74  152 1    
   149   75   76 2    
   150   75   77 1    
   151   77   78 1    
   152   77   79 1    
   153   77  153 1    
   154   78  154 1    
   155   78  155 1    
   156   78  156 1    
   157   79   80 am   BACKBONE|DICT|INTERRES
   158   79  157 1    
   159   80   81 2    
@<TRIPOS>SUBSTRUCTURE
     1 UNK         1 GROUP             0       ****    0 ROOT    
