@<TRIPOS>MOLECULE
3R207
157   159    1
SMALL
USER_CHARGES


@<TRIPOS>ATOM
      1 CA        -47.1094  -30.0576   11.5039 C.3       0 UNK        -0.1975 
      2 C         -47.1103  -30.5563   10.0666 C.2       0 UNK         0.4852 
      3 O         -46.1824  -31.2568    9.6617 O.2       0 UNK        -0.5216 
      4 N         -48.1507  -30.2052    9.2995 N.am      1 UNK        -0.4461 
      5 CA        -48.3307  -30.5585    7.8857 C.3       1 UNK         0.0864 
      6 C6        -49.7690  -30.2536    7.3940 C.3       14 UNK        -0.0898 
      7 S7        -50.3561  -28.5777    7.8214 S.3       14 UNK        -0.2598 
      8 C8        -52.0010  -28.6013    7.0516 C.3       14 UNK         0.0286 
      9 C9        -52.8379  -27.4159    7.5058 C.ar      14 UNK        -0.0844 
     10 C10       -52.5446  -26.1297    7.0428 C.ar      14 UNK        -0.0881 
     11 C11       -53.3116  -25.0354    7.4535 C.ar      14 UNK        -0.0643 
     12 C12       -54.3924  -25.2376    8.3167 C.ar      14 UNK        -0.0930 
     13 C13       -54.6962  -26.5196    8.7836 C.ar      14 UNK        -0.0827 
     14 C14       -53.9115  -27.6042    8.3816 C.ar      14 UNK        -0.1249 
     15 C15       -55.8762  -26.7294    9.7174 C.3       14 UNK         0.0141 
     16 S16       -55.4160  -26.3473   11.4305 S.3       14 UNK        -0.2313 
     17 C17       -57.0087  -26.5690   12.2932 C.3       14 UNK        -0.0915 
     18 CA        -57.0383  -27.7830   13.2651 C.3       13 UNK         0.0968 
     19 C         -56.9937  -29.1722   12.5695 C.2       13 UNK         0.5732 
     20 N         -57.8204  -29.3898   11.5545 N.am      13 UNK        -0.7310 
     21 O         -56.2534  -30.0737   12.9569 O.2       13 UNK        -0.5035 
     22 N         -56.0327  -27.6594   14.3275 N.am      13 UNK        -0.4233 
     23 C         -56.2175  -27.0232   15.4911 C.2       13 UNK         0.4989 
     24 O         -57.2648  -26.4421   15.7819 O.2       13 UNK        -0.4996 
     25 CA        -55.0470  -26.9944   16.4996 C.3       12 UNK         0.0216 
     26 CB        -55.5266  -27.0524   17.9665 C.3       12 UNK        -0.1964 
     27 N         -53.9964  -27.9900   16.2441 N.am      12 UNK        -0.4276 
     28 C         -54.1282  -29.3247   16.2780 C.2       12 UNK         0.5020 
     29 O         -55.1674  -29.8926   16.6201 O.2       12 UNK        -0.5489 
     30 CA        -52.9096  -30.1769   15.8594 C.3       11 UNK         0.0294 
     31 CB        -53.3363  -31.5663   15.3401 C.3       11 UNK        -0.2019 
     32 N         -51.9857  -29.5687   14.8900 N.am      11 UNK        -0.4493 
     33 C         -52.2623  -29.0112   13.7026 C.2       11 UNK         0.4932 
     34 O         -53.3960  -28.7077   13.3320 O.2       11 UNK        -0.5029 
     35 CA        -51.0538  -28.7652   12.7737 C.3       10 UNK         0.0280 
     36 CB        -51.4587  -28.1621   11.4156 C.3       10 UNK        -0.1976 
     37 N         -50.0246  -27.9187   13.3821 N.am      10 UNK        -0.4242 
     38 C         -49.1534  -28.2939   14.3310 C.2       10 UNK         0.5072 
     39 O         -49.1258  -29.4275   14.8122 O.2       10 UNK        -0.5224 
     40 CA        -48.1694  -27.2373   14.8544 C.3       9 UNK         0.0343 
     41 CB        -46.8804  -27.2155   14.0190 C.3       9 UNK        -0.2003 
     42 N         -48.7811  -25.9087   14.8505 N.am      9 UNK        -0.4272 
     43 C         -49.0441  -25.1906   15.9480 C.2       9 UNK         0.4988 
     44 O         -48.6759  -25.4962   17.0833 O.2       9 UNK        -0.5108 
     45 CA        -49.8844  -23.9186   15.7514 C.3       8 UNK         0.0248 
     46 CB        -48.9966  -22.7549   15.2811 C.3       8 UNK        -0.2001 
     47 N         -51.0101  -24.0701   14.8240 N.am      8 UNK        -0.4140 
     48 C         -51.9859  -24.9863   14.8795 C.2       8 UNK         0.5028 
     49 O         -52.0240  -25.9077   15.6954 O.2       8 UNK        -0.5428 
     50 CA        -53.1236  -24.8635   13.8498 C.3       7 UNK         0.0264 
     51 CB        -54.1203  -23.7541   14.2368 C.3       7 UNK        -0.1988 
     52 N         -52.6797  -24.7271   12.4574 N.am      7 UNK        -0.4454 
     53 C         -51.9795  -23.7414   11.8806 C.2       7 UNK         0.5027 
     54 O         -51.6260  -22.7091   12.4555 O.2       7 UNK        -0.5083 
     55 CA        -51.5535  -23.9837   10.4200 C.3       6 UNK         0.0844 
     56 C56       -52.0230  -22.8160    9.5123 C.3       14 UNK        -0.0967 
     57 S57       -51.4735  -22.9862    7.7762 S.3       14 UNK        -0.2604 
     58 C58       -52.9684  -23.6363    6.9654 C.3       14 UNK         0.0134 
     59 N         -50.1140  -24.2213   10.2777 N.am      6 UNK        -0.4116 
     60 C         -49.2711  -24.9171   11.0551 C.2       5 UNK         0.5034 
     61 O         -49.5714  -25.4550   12.1229 O.2       5 UNK        -0.5045 
     62 CA        -47.8351  -25.0828   10.5267 C.3       5 UNK         0.0224 
     63 CB        -47.6253  -26.5339   10.0658 C.3       5 UNK        -0.1978 
     64 N         -47.5135  -24.1673    9.4216 N.am      5 UNK        -0.4737 
     65 C         -47.2523  -22.8600    9.5851 C.2       4 UNK         0.5027 
     66 O         -47.1841  -22.3274   10.6933 O.2       4 UNK        -0.5211 
     67 CA        -47.0975  -21.9840    8.3226 C.3       4 UNK         0.0297 
     68 CB        -46.0608  -20.8550    8.5100 C.3       4 UNK        -0.1993 
     69 N         -46.8526  -22.7340    7.0838 N.am      4 UNK        -0.4486 
     70 C         -45.7685  -23.4558    6.7709 C.2       3 UNK         0.4961 
     71 O         -44.7709  -23.5719    7.4855 O.2       3 UNK        -0.5105 
     72 CA        -45.8262  -24.2023    5.4265 C.3       3 UNK         0.0299 
     73 CB        -44.7864  -23.6412    4.4428 C.3       3 UNK        -0.1972 
     74 N         -45.6083  -25.6396    5.6034 N.am      3 UNK        -0.4305 
     75 C         -46.3765  -26.4387    6.3556 C.2       2 UNK         0.5006 
     76 O         -47.3988  -26.0589    6.9342 O.2       2 UNK        -0.5106 
     77 CA        -45.9102  -27.8936    6.4943 C.3       2 UNK         0.0296 
     78 CB        -44.5801  -27.9874    7.2659 C.3       2 UNK        -0.2002 
     79 N         -46.9262  -28.6623    7.2070 N.am      2 UNK        -0.4032 
     80 C         -47.2590  -29.9349    6.9650 C.2       1 UNK         0.5000 
     81 O         -46.7453  -30.6227    6.0798 O.2       1 UNK        -0.5238 
     82 H82       -48.0464  -29.5669   11.7637 H         1 UNK         0.0889 
     83 H83       -46.2964  -29.3476   11.6524 H         1 UNK         0.0889 
     84 H84       -46.9657  -30.8901   12.1921 H         1 UNK         0.0889 
     85 H85       -48.8896  -29.6357    9.6862 H         1 UNK         0.3028 
     86 H86       -48.1924  -31.6398    7.8155 H         1 UNK         0.0864 
     87 H87       -50.4575  -30.9686    7.8474 H         1 UNK         0.0720 
     88 H88       -49.8557  -30.4037    6.3158 H         1 UNK         0.0720 
     89 H89       -52.5036  -29.5379    7.2988 H         1 UNK         0.0814 
     90 H90       -51.8941  -28.5835    5.9660 H         1 UNK         0.0814 
     91 H91       -51.7068  -25.9778    6.3756 H         1 UNK         0.1469 
     92 H92       -54.9941  -24.3971    8.6347 H         1 UNK         0.1381 
     93 H93       -54.1410  -28.5956    8.7479 H         1 UNK         0.1206 
     94 H94       -56.2326  -27.7588    9.6579 H         1 UNK         0.0813 
     95 H95       -56.7073  -26.0926    9.4104 H         1 UNK         0.0813 
     96 H96       -57.8204  -26.6308   11.5675 H         1 UNK         0.0638 
     97 H97       -57.2007  -25.6544   12.8560 H         1 UNK         0.0638 
     98 H98       -58.0167  -27.7797   13.7489 H         1 UNK         0.0568 
     99 H99       -57.8120  -30.2927   11.1073 H         1 UNK         0.3450 
    100 H100      -58.4612  -28.6800   11.2382 H         1 UNK         0.3450 
    101 H101      -55.1575  -28.1424   14.1395 H         1 UNK         0.2987 
    102 H102      -54.5736  -26.0232   16.3647 H         1 UNK         0.0766 
    103 H103      -56.1726  -26.2056   18.2014 H         1 UNK         0.0798 
    104 H104      -54.6865  -27.0169   18.6599 H         1 UNK         0.0798 
    105 H105      -56.0959  -27.9589   18.1734 H         1 UNK         0.0798 
    106 H106      -53.1043  -27.5965   15.9544 H         1 UNK         0.3198 
    107 H107      -52.3301  -30.3288   16.7712 H         1 UNK         0.0843 
    108 H108      -53.9668  -31.4824   14.4536 H         1 UNK         0.0831 
    109 H109      -53.9033  -32.1152   16.0931 H         1 UNK         0.0831 
    110 H110      -52.4725  -32.1787   15.0818 H         1 UNK         0.0831 
    111 H111      -50.9963  -29.7019   15.0888 H         1 UNK         0.3133 
    112 H112      -50.6100  -29.7422   12.5716 H         1 UNK         0.0566 
    113 H113      -50.5929  -28.0110   10.7720 H         1 UNK         0.0814 
    114 H114      -51.9558  -27.2014   11.5312 H         1 UNK         0.0814 
    115 H115      -52.1480  -28.8191   10.8833 H         1 UNK         0.0814 
    116 H116      -49.9625  -26.9721   13.0156 H         1 UNK         0.3091 
    117 H117      -47.9021  -27.5331   15.8710 H         1 UNK         0.0702 
    118 H118      -46.4250  -28.2057   13.9753 H         1 UNK         0.0785 
    119 H119      -46.1439  -26.5400   14.4542 H         1 UNK         0.0785 
    120 H120      -47.0644  -26.8891   12.9975 H         1 UNK         0.0785 
    121 H121      -49.1208  -25.5655   13.9563 H         1 UNK         0.2998 
    122 H122      -50.3072  -23.6553   16.7228 H         1 UNK         0.0697 
    123 H123      -48.5911  -22.9344   14.2841 H         1 UNK         0.0825 
    124 H124      -48.1526  -22.6076   15.9565 H         1 UNK         0.0825 
    125 H125      -49.5534  -21.8181   15.2512 H         1 UNK         0.0825 
    126 H126      -51.0795  -23.3866   14.0728 H         1 UNK         0.3029 
    127 H127      -53.6648  -25.8102   13.8840 H         1 UNK         0.0897 
    128 H128      -53.6702  -22.7623   14.1901 H         1 UNK         0.0792 
    129 H129      -54.4880  -23.8921   15.2538 H         1 UNK         0.0792 
    130 H130      -54.9880  -23.7597   13.5768 H         1 UNK         0.0792 
    131 H131      -52.9210  -25.5186   11.8762 H         1 UNK         0.3086 
    132 H132      -52.0406  -24.8959   10.0710 H         1 UNK         0.0583 
    133 H133      -53.1100  -22.7200    9.5425 H         1 UNK         0.1020 
    134 H134      -51.6309  -21.8663    9.8827 H         1 UNK         0.1020 
    135 H135      -53.7999  -22.9488    7.1289 H         1 UNK         0.0694 
    136 H136      -52.8015  -23.6621    5.8876 H         1 UNK         0.0694 
    137 H137      -49.7236  -23.8479    9.4257 H         1 UNK         0.2989 
    138 H138      -47.1561  -24.8815   11.3584 H         1 UNK         0.1055 
    139 H139      -48.3059  -26.7922    9.2550 H         1 UNK         0.0806 
    140 H140      -47.8204  -27.2372   10.8738 H         1 UNK         0.0806 
    141 H141      -46.6035  -26.7013    9.7256 H         1 UNK         0.0806 
    142 H142      -47.5281  -24.5587    8.4851 H         1 UNK         0.3061 
    143 H143      -48.0689  -21.5063    8.1848 H         1 UNK         0.0734 
    144 H144      -45.0704  -21.2470    8.7429 H         1 UNK         0.0832 
    145 H145      -45.9770  -20.2386    7.6150 H         1 UNK         0.0832 
    146 H146      -46.3456  -20.1941    9.3295 H         1 UNK         0.0832 
    147 H147      -47.6204  -22.7346    6.4253 H         1 UNK         0.3156 
    148 H148      -46.8168  -24.0714    4.9855 H         1 UNK         0.0589 
    149 H149      -44.8556  -24.1272    3.4694 H         1 UNK         0.0808 
    150 H150      -44.9395  -22.5731    4.2820 H         1 UNK         0.0808 
    151 H151      -43.7684  -23.7714    4.8127 H         1 UNK         0.0808 
    152 H152      -44.7730  -26.0229    5.1855 H         1 UNK         0.3098 
    153 H153      -45.7791  -28.2958    5.4875 H         1 UNK         0.0720 
    154 H154      -44.6615  -27.5503    8.2619 H         1 UNK         0.0791 
    155 H155      -43.7772  -27.4654    6.7445 H         1 UNK         0.0791 
    156 H156      -44.2645  -29.0244    7.3835 H         1 UNK         0.0791 
    157 H157      -47.4765  -28.1301    7.8675 H         1 UNK         0.3028 
@<TRIPOS>BOND
     1    1    2 1    
     2    1   82 1    
     3    1   83 1    
     4    1   84 1    
     5    2    3 2    
     6    2    4 am   BACKBONE|DICT|INTERRES
     7    4    5 1    
     8    4   85 1    
     9    5    6 1    
    10    5   80 1    
    11    5   86 1    
    12    6    7 1    
    13    6   87 1    
    14    6   88 1    
    15    7    8 1    
    16    8    9 1    
    17    8   89 1    
    18    8   90 1    
    19    9   10 ar   
    20    9   14 ar   
    21   10   11 ar   
    22   10   91 1    
    23   11   12 ar   
    24   11   58 1    
    25   12   13 ar   
    26   12   92 1    
    27   13   14 ar   
    28   13   15 1    
    29   14   93 1    
    30   15   16 1    
    31   15   94 1    
    32   15   95 1    
    33   16   17 1    
    34   17   18 1    
    35   17   96 1    
    36   17   97 1    
    37   18   19 1    
    38   18   22 1    
    39   18   98 1    
    40   19   20 am   BACKBONE|DICT|INTERRES
    41   19   21 2    
    42   20   99 1    
    43   20  100 1    
    44   22   23 am   BACKBONE|DICT|INTERRES
    45   22  101 1    
    46   23   24 2    
    47   23   25 1    
    48   25   26 1    
    49   25   27 1    
    50   25  102 1    
    51   26  103 1    
    52   26  104 1    
    53   26  105 1    
    54   27   28 am   BACKBONE|DICT|INTERRES
    55   27  106 1    
    56   28   29 2    
    57   28   30 1    
    58   30   31 1    
    59   30   32 1    
    60   30  107 1    
    61   31  108 1    
    62   31  109 1    
    63   31  110 1    
    64   32   33 am   BACKBONE|DICT|INTERRES
    65   32  111 1    
    66   33   34 2    
    67   33   35 1    
    68   35   36 1    
    69   35   37 1    
    70   35  112 1    
    71   36  113 1    
    72   36  114 1    
    73   36  115 1    
    74   37   38 am   BACKBONE|DICT|INTERRES
    75   37  116 1    
    76   38   39 2    
    77   38   40 1    
    78   40   41 1    
    79   40   42 1    
    80   40  117 1    
    81   41  118 1    
    82   41  119 1    
    83   41  120 1    
    84   42   43 am   BACKBONE|DICT|INTERRES
    85   42  121 1    
    86   43   44 2    
    87   43   45 1    
    88   45   46 1    
    89   45   47 1    
    90   45  122 1    
    91   46  123 1    
    92   46  124 1    
    93   46  125 1    
    94   47   48 am   BACKBONE|DICT|INTERRES
    95   47  126 1    
    96   48   49 2    
    97   48   50 1    
    98   50   51 1    
    99   50   52 1    
   100   50  127 1    
   101   51  128 1    
   102   51  129 1    
   103   51  130 1    
   104   52   53 am   BACKBONE|DICT|INTERRES
   105   52  131 1    
   106   53   54 2    
   107   53   55 1    
   108   55   56 1    
   109   55   59 1    
   110   55  132 1    
   111   56   57 1    
   112   56  133 1    
   113   56  134 1    
   114   57   58 1    
   115   58  135 1    
   116   58  136 1    
   117   59   60 am   BACKBONE|DICT|INTERRES
   118   59  137 1    
   119   60   61 2    
   120   60   62 1    
   121   62   63 1    
   122   62   64 1    
   123   62  138 1    
   124   63  139 1    
   125   63  140 1    
   126   63  141 1    
   127   64   65 am   BACKBONE|DICT|INTERRES
   128   64  142 1    
   129   65   66 2    
   130   65   67 1    
   131   67   68 1    
   132   67   69 1    
   133   67  143 1    
   134   68  144 1    
   135   68  145 1    
   136   68  146 1    
   137   69   70 am   BACKBONE|DICT|INTERRES
   138   69  147 1    
   139   70   71 2    
   140   70   72 1    
   141   72   73 1    
   142   72   74 1    
   143   72  148 1    
   144   73  149 1    
   145   73  150 1    
   146   73  151 1    
   147   74   75 am   BACKBONE|DICT|INTERRES
   148   74  152 1    
   149   75   76 2    
   150   75   77 1    
   151   77   78 1    
   152   77   79 1    
   153   77  153 1    
   154   78  154 1    
   155   78  155 1    
   156   78  156 1    
   157   79   80 am   BACKBONE|DICT|INTERRES
   158   79  157 1    
   159   80   81 2    
@<TRIPOS>SUBSTRUCTURE
     1 UNK         1 GROUP             0       ****    0 ROOT    
