@<TRIPOS>MOLECULE
3R207
157   159    1
SMALL
USER_CHARGES


@<TRIPOS>ATOM
      1 CA        -54.4985  -25.6092    4.4470 C.3       0 UNK        -0.1975 
      2 C         -53.0232  -25.8839    4.6985 C.2       0 UNK         0.4852 
      3 O         -52.2079  -25.7002    3.7944 O.2       0 UNK        -0.5216 
      4 N         -52.6811  -26.3184    5.9213 N.am      1 UNK        -0.4461 
      5 CA        -51.3203  -26.6405    6.3797 C.3       1 UNK         0.0864 
      6 C6        -50.7099  -27.8532    5.6181 C.3       14 UNK        -0.0898 
      7 S7        -49.6898  -28.8924    6.7112 S.3       14 UNK        -0.2598 
      8 C8        -50.8443  -30.2376    7.1431 C.3       14 UNK         0.0286 
      9 C9        -50.6397  -30.7471    8.5661 C.ar      14 UNK        -0.0844 
     10 C10       -49.3595  -31.0389    9.0496 C.ar      14 UNK        -0.0881 
     11 C11       -49.1755  -31.4772   10.3637 C.ar      14 UNK        -0.0643 
     12 C12       -50.2860  -31.6617   11.1901 C.ar      14 UNK        -0.0930 
     13 C13       -51.5717  -31.3858   10.7168 C.ar      14 UNK        -0.0827 
     14 C14       -51.7426  -30.9270    9.4072 C.ar      14 UNK        -0.1249 
     15 C15       -52.7716  -31.5475   11.6342 C.3       14 UNK         0.0141 
     16 S16       -52.8517  -30.1508   12.7864 S.3       14 UNK        -0.2313 
     17 C17       -54.5418  -30.3000   13.4522 C.3       14 UNK        -0.0915 
     18 CA        -55.6164  -29.5643   12.6045 C.3       13 UNK         0.0968 
     19 C         -57.0070  -29.6314   13.3015 C.2       13 UNK         0.5732 
     20 N         -57.6046  -28.5201   13.7204 N.am      13 UNK        -0.7310 
     21 O         -57.5591  -30.7179   13.4593 O.2       13 UNK        -0.5035 
     22 N         -55.2041  -28.2042   12.2272 N.am      13 UNK        -0.4233 
     23 C         -55.7294  -27.5073   11.2118 C.2       13 UNK         0.4989 
     24 O         -56.5585  -27.9744   10.4282 O.2       13 UNK        -0.4996 
     25 CA        -55.2529  -26.0513   11.0294 C.3       12 UNK         0.0216 
     26 CB        -56.3098  -25.1647   10.3374 C.3       12 UNK        -0.1964 
     27 N         -54.7813  -25.4130   12.2634 N.am      12 UNK        -0.4276 
     28 C         -55.4563  -25.2208   13.4053 C.2       12 UNK         0.5020 
     29 O         -56.6144  -25.5974   13.6050 O.2       12 UNK        -0.5489 
     30 CA        -54.6708  -24.5099   14.5252 C.3       11 UNK         0.0294 
     31 CB        -55.5638  -23.5067   15.2767 C.3       11 UNK        -0.2019 
     32 N         -54.0242  -25.3926   15.5067 N.am      11 UNK        -0.4493 
     33 C         -53.4452  -26.5863   15.3081 C.2       11 UNK         0.4932 
     34 O         -53.4703  -27.2193   14.2555 O.2       11 UNK        -0.5029 
     35 CA        -52.6228  -27.1223   16.4841 C.3       10 UNK         0.0280 
     36 CB        -52.4689  -28.6537   16.4553 C.3       10 UNK        -0.1976 
     37 N         -51.3033  -26.5055   16.3943 N.am      10 UNK        -0.4242 
     38 C         -50.9380  -25.3976   17.0507 C.2       10 UNK         0.5072 
     39 O         -51.6448  -24.8300   17.8855 O.2       10 UNK        -0.5224 
     40 CA        -49.5623  -24.8105   16.7018 C.3       9 UNK         0.0343 
     41 CB        -48.4301  -25.7311   17.1876 C.3       9 UNK        -0.2003 
     42 N         -49.4109  -24.5483   15.2688 N.am      9 UNK        -0.4272 
     43 C         -50.0830  -23.6094   14.5842 C.2       9 UNK         0.4988 
     44 O         -50.8994  -22.8401   15.0920 O.2       9 UNK        -0.5108 
     45 CA        -49.7956  -23.5066   13.0764 C.3       8 UNK         0.0248 
     46 CB        -48.4654  -22.7836   12.8110 C.3       8 UNK        -0.2001 
     47 N         -49.7837  -24.8206   12.4357 N.am      8 UNK        -0.4140 
     48 C         -50.8805  -25.5545   12.2100 C.2       8 UNK         0.5028 
     49 O         -52.0243  -25.1328   12.3828 O.2       8 UNK        -0.5428 
     50 CA        -50.6811  -26.9907   11.6953 C.3       7 UNK         0.0264 
     51 CB        -50.8230  -27.0382   10.1676 C.3       7 UNK        -0.1988 
     52 N         -49.3956  -27.5793   12.0842 N.am      7 UNK        -0.4454 
     53 C         -49.0825  -27.9566   13.3318 C.2       7 UNK         0.5027 
     54 O         -49.8393  -27.8360   14.2960 O.2       7 UNK        -0.5083 
     55 CA        -47.6576  -28.5017   13.5631 C.3       6 UNK         0.0844 
     56 C56       -47.4897  -29.9767   13.1033 C.3       14 UNK        -0.0967 
     57 S57       -46.9587  -30.1769   11.3614 S.3       14 UNK        -0.2604 
     58 C58       -47.7718  -31.7327   10.8841 C.3       14 UNK         0.0134 
     59 N         -46.6295  -27.6207   13.0067 N.am      6 UNK        -0.4116 
     60 C         -46.4062  -26.3518   13.3654 C.2       5 UNK         0.5034 
     61 O         -47.0053  -25.7748   14.2709 O.2       5 UNK        -0.5045 
     62 CA        -45.3671  -25.5806   12.5363 C.3       5 UNK         0.0224 
     63 CB        -43.9533  -25.8147   13.0916 C.3       5 UNK        -0.1978 
     64 N         -45.3906  -25.8940   11.1012 N.am      5 UNK        -0.4737 
     65 C         -46.4538  -25.7376   10.3002 C.2       4 UNK         0.5027 
     66 O         -47.5719  -25.4128   10.7002 O.2       4 UNK        -0.5211 
     67 CA        -46.2376  -25.9965    8.8008 C.3       4 UNK         0.0297 
     68 CB        -47.0192  -27.2385    8.3514 C.3       4 UNK        -0.1993 
     69 N         -46.6494  -24.8394    8.0005 N.am      4 UNK        -0.4486 
     70 C         -46.0483  -23.6405    8.0521 C.2       3 UNK         0.4961 
     71 O         -45.0373  -23.4173    8.7203 O.2       3 UNK        -0.5105 
     72 CA        -46.6334  -22.4907    7.2117 C.3       3 UNK         0.0299 
     73 CB        -45.7150  -22.1773    6.0184 C.3       3 UNK        -0.1972 
     74 N         -47.9886  -22.7237    6.7120 N.am      3 UNK        -0.4305 
     75 C         -49.1082  -22.7177    7.4479 C.2       2 UNK         0.5006 
     76 O         -49.1311  -22.5603    8.6683 O.2       2 UNK        -0.5106 
     77 CA        -50.4372  -22.8814    6.6847 C.3       2 UNK         0.0296 
     78 CB        -50.3628  -22.4209    5.2106 C.3       2 UNK        -0.2002 
     79 N         -50.9955  -24.2357    6.7532 N.am      2 UNK        -0.4032 
     80 C         -50.3970  -25.3942    6.4282 C.2       1 UNK         0.5000 
     81 O         -49.1977  -25.4917    6.1550 O.2       1 UNK        -0.5238 
     82 H82       -54.8617  -26.2334    3.6310 H         1 UNK         0.0889 
     83 H83       -54.6432  -24.5658    4.1681 H         1 UNK         0.0889 
     84 H84       -55.1090  -25.8129    5.3266 H         1 UNK         0.0889 
     85 H85       -53.4101  -26.4552    6.6082 H         1 UNK         0.3028 
     86 H86       -51.4558  -26.9353    7.4199 H         1 UNK         0.0864 
     87 H87       -50.1107  -27.5314    4.7643 H         1 UNK         0.0720 
     88 H88       -51.4960  -28.4780    5.1918 H         1 UNK         0.0720 
     89 H89       -50.7139  -31.0621    6.4413 H         1 UNK         0.0814 
     90 H90       -51.8697  -29.8850    7.0223 H         1 UNK         0.0814 
     91 H91       -48.4983  -30.8981    8.4107 H         1 UNK         0.1469 
     92 H92       -50.1522  -31.9981   12.2090 H         1 UNK         0.1381 
     93 H93       -52.7369  -30.6999    9.0474 H         1 UNK         0.1206 
     94 H94       -52.6989  -32.4818   12.1927 H         1 UNK         0.0813 
     95 H95       -53.6935  -31.5981   11.0529 H         1 UNK         0.0813 
     96 H96       -54.5234  -29.8923   14.4638 H         1 UNK         0.0638 
     97 H97       -54.7890  -31.3580   13.5561 H         1 UNK         0.0638 
     98 H98       -55.7246  -30.1295   11.6772 H         1 UNK         0.0568 
     99 H99       -57.1675  -27.6130   13.5982 H         1 UNK         0.3450 
    100 H100      -58.5059  -28.5849   14.1651 H         1 UNK         0.3450 
    101 H101      -54.5305  -27.7618   12.8508 H         1 UNK         0.2987 
    102 H102      -54.3837  -26.1046   10.3726 H         1 UNK         0.0766 
    103 H103      -57.2314  -25.1106   10.9181 H         1 UNK         0.0798 
    104 H104      -56.5681  -25.5541    9.3519 H         1 UNK         0.0798 
    105 H105      -55.9431  -24.1482   10.1949 H         1 UNK         0.0798 
    106 H106      -53.7821  -25.1908   12.2785 H         1 UNK         0.3198 
    107 H107      -53.8691  -23.9373   14.0539 H         1 UNK         0.0843 
    108 H108      -56.3391  -24.0126   15.8536 H         1 UNK         0.0831 
    109 H109      -56.0644  -22.8317   14.5811 H         1 UNK         0.0831 
    110 H110      -54.9823  -22.8895   15.9617 H         1 UNK         0.0831 
    111 H111      -53.8913  -24.9832   16.4210 H         1 UNK         0.3133 
    112 H112      -53.1194  -26.8528   17.4185 H         1 UNK         0.0566 
    113 H113      -53.4416  -29.1420   16.5166 H         1 UNK         0.0814 
    114 H114      -51.9860  -28.9988   15.5401 H         1 UNK         0.0814 
    115 H115      -51.8739  -29.0065   17.2975 H         1 UNK         0.0814 
    116 H116      -50.6899  -26.8857   15.6747 H         1 UNK         0.3091 
    117 H117      -49.4665  -23.8573   17.2261 H         1 UNK         0.0702 
    118 H118      -47.4548  -25.2663   17.0420 H         1 UNK         0.0785 
    119 H119      -48.4255  -26.6841   16.6569 H         1 UNK         0.0785 
    120 H120      -48.5304  -25.9479   18.2519 H         1 UNK         0.0785 
    121 H121      -48.7109  -25.1024   14.7819 H         1 UNK         0.2998 
    122 H122      -50.5930  -22.9150   12.6213 H         1 UNK         0.0697 
    123 H123      -47.6223  -23.3046   13.2635 H         1 UNK         0.0825 
    124 H124      -48.4833  -21.7739   13.2228 H         1 UNK         0.0825 
    125 H125      -48.2698  -22.6964   11.7414 H         1 UNK         0.0825 
    126 H126      -48.8868  -25.1832   12.1250 H         1 UNK         0.3029 
    127 H127      -51.4748  -27.6003   12.1321 H         1 UNK         0.0897 
    128 H128      -50.0797  -26.4098    9.6757 H         1 UNK         0.0792 
    129 H129      -51.8077  -26.6828    9.8627 H         1 UNK         0.0792 
    130 H130      -50.7125  -28.0550    9.7903 H         1 UNK         0.0792 
    131 H131      -48.6976  -27.6715   11.3602 H         1 UNK         0.3086 
    132 H132      -47.5111  -28.4926   14.6457 H         1 UNK         0.0583 
    133 H133      -46.7259  -30.4526   13.7204 H         1 UNK         0.1020 
    134 H134      -48.4010  -30.5487   13.2881 H         1 UNK         0.1020 
    135 H135      -47.1788  -32.2129   10.1042 H         1 UNK         0.0694 
    136 H136      -47.7836  -32.4257   11.7269 H         1 UNK         0.0694 
    137 H137      -46.1005  -28.0024   12.2357 H         1 UNK         0.2989 
    138 H138      -45.5996  -24.5186   12.6377 H         1 UNK         0.1055 
    139 H139      -43.9066  -25.5719   14.1544 H         1 UNK         0.0806 
    140 H140      -43.2191  -25.1864   12.5868 H         1 UNK         0.0806 
    141 H141      -43.6406  -26.8537   12.9807 H         1 UNK         0.0806 
    142 H142      -44.5095  -26.1602   10.6845 H         1 UNK         0.3061 
    143 H143      -45.1763  -26.1743    8.6150 H         1 UNK         0.0734 
    144 H144      -46.8577  -27.4508    7.2944 H         1 UNK         0.0832 
    145 H145      -46.7125  -28.1226    8.9115 H         1 UNK         0.0832 
    146 H146      -48.0910  -27.1122    8.5042 H         1 UNK         0.0832 
    147 H147      -47.4859  -24.9428    7.4367 H         1 UNK         0.3156 
    148 H148      -46.6637  -21.6091    7.8556 H         1 UNK         0.0589 
    149 H149      -45.6515  -23.0184    5.3267 H         1 UNK         0.0808 
    150 H150      -46.0672  -21.3085    5.4620 H         1 UNK         0.0808 
    151 H151      -44.7007  -21.9541    6.3527 H         1 UNK         0.0808 
    152 H152      -48.0797  -22.9069    5.7231 H         1 UNK         0.3098 
    153 H153      -51.1526  -22.2301    7.1894 H         1 UNK         0.0720 
    154 H154      -51.3565  -22.3923    4.7631 H         1 UNK         0.0791 
    155 H155      -49.7526  -23.0854    4.5978 H         1 UNK         0.0791 
    156 H156      -49.9484  -21.4149    5.1294 H         1 UNK         0.0791 
    157 H157      -51.9741  -24.2803    6.9983 H         1 UNK         0.3028 
@<TRIPOS>BOND
     1    1    2 1    
     2    1   82 1    
     3    1   83 1    
     4    1   84 1    
     5    2    3 2    
     6    2    4 am   BACKBONE|DICT|INTERRES
     7    4    5 1    
     8    4   85 1    
     9    5    6 1    
    10    5   80 1    
    11    5   86 1    
    12    6    7 1    
    13    6   87 1    
    14    6   88 1    
    15    7    8 1    
    16    8    9 1    
    17    8   89 1    
    18    8   90 1    
    19    9   10 ar   
    20    9   14 ar   
    21   10   11 ar   
    22   10   91 1    
    23   11   12 ar   
    24   11   58 1    
    25   12   13 ar   
    26   12   92 1    
    27   13   14 ar   
    28   13   15 1    
    29   14   93 1    
    30   15   16 1    
    31   15   94 1    
    32   15   95 1    
    33   16   17 1    
    34   17   18 1    
    35   17   96 1    
    36   17   97 1    
    37   18   19 1    
    38   18   22 1    
    39   18   98 1    
    40   19   20 am   BACKBONE|DICT|INTERRES
    41   19   21 2    
    42   20   99 1    
    43   20  100 1    
    44   22   23 am   BACKBONE|DICT|INTERRES
    45   22  101 1    
    46   23   24 2    
    47   23   25 1    
    48   25   26 1    
    49   25   27 1    
    50   25  102 1    
    51   26  103 1    
    52   26  104 1    
    53   26  105 1    
    54   27   28 am   BACKBONE|DICT|INTERRES
    55   27  106 1    
    56   28   29 2    
    57   28   30 1    
    58   30   31 1    
    59   30   32 1    
    60   30  107 1    
    61   31  108 1    
    62   31  109 1    
    63   31  110 1    
    64   32   33 am   BACKBONE|DICT|INTERRES
    65   32  111 1    
    66   33   34 2    
    67   33   35 1    
    68   35   36 1    
    69   35   37 1    
    70   35  112 1    
    71   36  113 1    
    72   36  114 1    
    73   36  115 1    
    74   37   38 am   BACKBONE|DICT|INTERRES
    75   37  116 1    
    76   38   39 2    
    77   38   40 1    
    78   40   41 1    
    79   40   42 1    
    80   40  117 1    
    81   41  118 1    
    82   41  119 1    
    83   41  120 1    
    84   42   43 am   BACKBONE|DICT|INTERRES
    85   42  121 1    
    86   43   44 2    
    87   43   45 1    
    88   45   46 1    
    89   45   47 1    
    90   45  122 1    
    91   46  123 1    
    92   46  124 1    
    93   46  125 1    
    94   47   48 am   BACKBONE|DICT|INTERRES
    95   47  126 1    
    96   48   49 2    
    97   48   50 1    
    98   50   51 1    
    99   50   52 1    
   100   50  127 1    
   101   51  128 1    
   102   51  129 1    
   103   51  130 1    
   104   52   53 am   BACKBONE|DICT|INTERRES
   105   52  131 1    
   106   53   54 2    
   107   53   55 1    
   108   55   56 1    
   109   55   59 1    
   110   55  132 1    
   111   56   57 1    
   112   56  133 1    
   113   56  134 1    
   114   57   58 1    
   115   58  135 1    
   116   58  136 1    
   117   59   60 am   BACKBONE|DICT|INTERRES
   118   59  137 1    
   119   60   61 2    
   120   60   62 1    
   121   62   63 1    
   122   62   64 1    
   123   62  138 1    
   124   63  139 1    
   125   63  140 1    
   126   63  141 1    
   127   64   65 am   BACKBONE|DICT|INTERRES
   128   64  142 1    
   129   65   66 2    
   130   65   67 1    
   131   67   68 1    
   132   67   69 1    
   133   67  143 1    
   134   68  144 1    
   135   68  145 1    
   136   68  146 1    
   137   69   70 am   BACKBONE|DICT|INTERRES
   138   69  147 1    
   139   70   71 2    
   140   70   72 1    
   141   72   73 1    
   142   72   74 1    
   143   72  148 1    
   144   73  149 1    
   145   73  150 1    
   146   73  151 1    
   147   74   75 am   BACKBONE|DICT|INTERRES
   148   74  152 1    
   149   75   76 2    
   150   75   77 1    
   151   77   78 1    
   152   77   79 1    
   153   77  153 1    
   154   78  154 1    
   155   78  155 1    
   156   78  156 1    
   157   79   80 am   BACKBONE|DICT|INTERRES
   158   79  157 1    
   159   80   81 2    
@<TRIPOS>SUBSTRUCTURE
     1 UNK         1 GROUP             0       ****    0 ROOT    
