@<TRIPOS>MOLECULE
3R207
157   159    1
SMALL
USER_CHARGES


@<TRIPOS>ATOM
      1 CA        -52.8050  -27.9972    2.9622 C.3       0 UNK        -0.1975 
      2 C         -51.8105  -27.3972    3.9443 C.2       0 UNK         0.4852 
      3 O         -50.7956  -28.0265    4.2435 O.2       0 UNK        -0.5216 
      4 N         -52.0876  -26.1798    4.4329 N.am      1 UNK        -0.4461 
      5 CA        -51.3348  -25.3931    5.4284 C.3       1 UNK         0.0864 
      6 C6        -51.1763  -26.0887    6.8078 C.3       14 UNK        -0.0898 
      7 S7        -52.7714  -26.5716    7.5553 S.3       14 UNK        -0.2598 
      8 C8        -52.6551  -28.3898    7.5521 C.3       14 UNK         0.0286 
      9 C9        -51.8219  -28.9271    8.7095 C.ar      14 UNK        -0.0844 
     10 C10       -50.4629  -29.2095    8.5408 C.ar      14 UNK        -0.0881 
     11 C11       -49.7143  -29.7576    9.5877 C.ar      14 UNK        -0.0643 
     12 C12       -50.3361  -30.0328   10.8092 C.ar      14 UNK        -0.0930 
     13 C13       -51.6926  -29.7502   10.9939 C.ar      14 UNK        -0.0827 
     14 C14       -52.4258  -29.1903    9.9420 C.ar      14 UNK        -0.1249 
     15 C15       -52.3690  -30.0424   12.3264 C.3       14 UNK         0.0141 
     16 S16       -53.6262  -31.3509   12.1514 S.3       14 UNK        -0.2313 
     17 C17       -54.7427  -31.0265   13.5596 C.3       14 UNK        -0.0915 
     18 CA        -55.9126  -30.0806   13.1664 C.3       13 UNK         0.0968 
     19 C         -57.0951  -30.1206   14.1788 C.2       13 UNK         0.5732 
     20 N         -57.6768  -28.9941   14.5792 N.am      13 UNK        -0.7310 
     21 O         -57.5209  -31.1984   14.5880 O.2       13 UNK        -0.5035 
     22 N         -55.4144  -28.7193   12.9485 N.am      13 UNK        -0.4233 
     23 C         -55.5443  -27.9956   11.8318 C.2       13 UNK         0.4989 
     24 O         -56.1097  -28.3983   10.8140 O.2       13 UNK        -0.4996 
     25 CA        -54.9071  -26.5888   11.8497 C.3       12 UNK         0.0216 
     26 CB        -55.6082  -25.6039   10.8921 C.3       12 UNK        -0.1964 
     27 N         -54.7771  -26.0039   13.1927 N.am      12 UNK        -0.4276 
     28 C         -55.7610  -25.7984   14.0822 C.2       12 UNK         0.5020 
     29 O         -56.9464  -26.0633   13.8693 O.2       12 UNK        -0.5489 
     30 CA        -55.3254  -25.2766   15.4640 C.3       11 UNK         0.0294 
     31 CB        -56.4516  -25.3596   16.5159 C.3       11 UNK        -0.2019 
     32 N         -54.1125  -25.9353   15.9662 N.am      11 UNK        -0.4493 
     33 C         -53.9064  -27.2474   16.1673 C.2       11 UNK         0.4932 
     34 O         -54.7293  -28.1187   15.8875 O.2       11 UNK        -0.5029 
     35 CA        -52.5422  -27.6768   16.7446 C.3       10 UNK         0.0280 
     36 CB        -51.7874  -28.5528   15.7320 C.3       10 UNK        -0.1976 
     37 N         -51.6851  -26.5492   17.1175 N.am      10 UNK        -0.4242 
     38 C         -51.8222  -25.7678   18.1964 C.2       10 UNK         0.5072 
     39 O         -52.6471  -25.9765   19.0861 O.2       10 UNK        -0.5224 
     40 CA        -50.9382  -24.5044   18.2739 C.3       9 UNK         0.0343 
     41 CB        -49.6242  -24.7857   19.0295 C.3       9 UNK        -0.2003 
     42 N         -50.6985  -23.8497   16.9733 N.am      9 UNK        -0.4272 
     43 C         -49.9976  -24.3131   15.9283 C.2       9 UNK         0.4988 
     44 O         -49.3635  -25.3700   15.9438 O.2       9 UNK        -0.5108 
     45 CA        -50.0561  -23.4796   14.6372 C.3       8 UNK         0.0248 
     46 CB        -48.8529  -22.5269   14.5568 C.3       8 UNK        -0.2001 
     47 N         -50.0635  -24.3367   13.4509 N.am      8 UNK        -0.4140 
     48 C         -50.9975  -25.2504   13.1494 C.2       8 UNK         0.5028 
     49 O         -52.0617  -25.3801   13.7583 O.2       8 UNK        -0.5428 
     50 CA        -50.6843  -26.1932   11.9803 C.3       7 UNK         0.0264 
     51 CB        -51.1193  -25.5733   10.6457 C.3       7 UNK        -0.1988 
     52 N         -49.2609  -26.5292   11.9163 N.am      7 UNK        -0.4454 
     53 C         -48.6686  -27.4855   12.6466 C.2       7 UNK         0.5027 
     54 O         -49.2717  -28.2102   13.4384 O.2       7 UNK        -0.5083 
     55 CA        -47.1486  -27.6895   12.4621 C.3       6 UNK         0.0844 
     56 C56       -46.8372  -28.9176   11.5694 C.3       14 UNK        -0.0967 
     57 S57       -47.1700  -28.6680    9.7876 S.3       14 UNK        -0.2604 
     58 C58       -48.2426  -30.0808    9.3796 C.3       14 UNK         0.0134 
     59 N         -46.4656  -26.4783   11.9956 N.am      6 UNK        -0.4116 
     60 C         -46.1234  -25.4449   12.7795 C.2       5 UNK         0.5034 
     61 O         -46.2459  -25.4416   14.0036 O.2       5 UNK        -0.5045 
     62 CA        -45.5752  -24.1841   12.0811 C.3       5 UNK         0.0224 
     63 CB        -44.0401  -24.2244   12.0188 C.3       5 UNK        -0.1978 
     64 N         -46.1085  -23.9862   10.7290 N.am      5 UNK        -0.4737 
     65 C         -47.4036  -23.8262   10.4347 C.2       4 UNK         0.5027 
     66 O         -48.2690  -23.7370   11.3042 O.2       4 UNK        -0.5211 
     67 CA        -47.8418  -23.8118    8.9547 C.3       4 UNK         0.0297 
     68 CB        -48.6888  -22.5616    8.6598 C.3       4 UNK        -0.1993 
     69 N         -46.7952  -23.9235    7.9280 N.am      4 UNK        -0.4486 
     70 C         -45.9061  -24.9142    7.7634 C.2       3 UNK         0.4961 
     71 O         -45.7232  -25.8191    8.5773 O.2       3 UNK        -0.5105 
     72 CA        -45.1089  -24.8777    6.4437 C.3       3 UNK         0.0299 
     73 CB        -44.0794  -26.0224    6.3279 C.3       3 UNK        -0.1972 
     74 N         -46.0014  -24.8506    5.2746 N.am      3 UNK        -0.4305 
     75 C         -46.9402  -25.7585    4.9641 C.2       2 UNK         0.5006 
     76 O         -47.1185  -26.8166    5.5715 O.2       2 UNK        -0.5106 
     77 CA        -47.8473  -25.4287    3.7690 C.3       2 UNK         0.0296 
     78 CB        -47.4884  -26.2933    2.5496 C.3       2 UNK        -0.2002 
     79 N         -49.2394  -25.6714    4.1423 N.am      2 UNK        -0.4032 
     80 C         -49.9653  -24.8734    4.9345 C.2       1 UNK         0.5000 
     81 O         -49.5886  -23.7545    5.2876 O.2       1 UNK        -0.5238 
     82 H82       -53.6518  -27.3353    2.7818 H         1 UNK         0.0889 
     83 H83       -53.1890  -28.9406    3.3493 H         1 UNK         0.0889 
     84 H84       -52.3177  -28.1933    2.0076 H         1 UNK         0.0889 
     85 H85       -52.9299  -25.7246    4.1090 H         1 UNK         0.3028 
     86 H86       -51.9411  -24.5004    5.5917 H         1 UNK         0.0864 
     87 H87       -50.5233  -26.9572    6.7239 H         1 UNK         0.0720 
     88 H88       -50.6835  -25.4153    7.5117 H         1 UNK         0.0720 
     89 H89       -52.2519  -28.7357    6.5997 H         1 UNK         0.0814 
     90 H90       -53.6646  -28.7989    7.6137 H         1 UNK         0.0814 
     91 H91       -49.9865  -29.0181    7.5892 H         1 UNK         0.1469 
     92 H92       -49.7624  -30.4625   11.6185 H         1 UNK         0.1381 
     93 H93       -53.4780  -28.9834   10.0734 H         1 UNK         0.1206 
     94 H94       -52.8160  -29.1223   12.6988 H         1 UNK         0.0813 
     95 H95       -51.6388  -30.3490   13.0770 H         1 UNK         0.0813 
     96 H96       -54.1782  -30.6257   14.4027 H         1 UNK         0.0638 
     97 H97       -55.1212  -31.9975   13.8831 H         1 UNK         0.0638 
     98 H98       -56.3439  -30.4611   12.2392 H         1 UNK         0.0568 
     99 H99       -58.4452  -29.0450   15.2280 H         1 UNK         0.3450 
    100 H100      -57.3552  -28.0915   14.2497 H         1 UNK         0.3450 
    101 H101      -55.0092  -28.2866   13.7700 H         1 UNK         0.2987 
    102 H102      -53.8893  -26.7317   11.4870 H         1 UNK         0.0766 
    103 H103      -55.1181  -24.6304   10.8974 H         1 UNK         0.0798 
    104 H104      -56.6545  -25.4561   11.1616 H         1 UNK         0.0798 
    105 H105      -55.5828  -25.9700    9.8648 H         1 UNK         0.0798 
    106 H106      -53.8245  -25.7716   13.4803 H         1 UNK         0.3198 
    107 H107      -55.0745  -24.2237   15.3262 H         1 UNK         0.0843 
    108 H108      -56.7814  -26.3874   16.6730 H         1 UNK         0.0831 
    109 H109      -57.3229  -24.7826   16.2035 H         1 UNK         0.0831 
    110 H110      -56.1273  -24.9611   17.4772 H         1 UNK         0.0831 
    111 H111      -53.3291  -25.3241   16.1455 H         1 UNK         0.3133 
    112 H112      -52.7367  -28.2723   17.6387 H         1 UNK         0.0566 
    113 H113      -51.6168  -28.0228   14.7941 H         1 UNK         0.0814 
    114 H114      -50.8173  -28.8665   16.1177 H         1 UNK         0.0814 
    115 H115      -52.3491  -29.4577   15.5001 H         1 UNK         0.0814 
    116 H116      -50.9370  -26.3102   16.4709 H         1 UNK         0.3091 
    117 H117      -51.4979  -23.7763   18.8634 H         1 UNK         0.0702 
    118 H118      -49.0204  -23.8832   19.1244 H         1 UNK         0.0785 
    119 H119      -49.0183  -25.5447   18.5342 H         1 UNK         0.0785 
    120 H120      -49.8285  -25.1467   20.0384 H         1 UNK         0.0785 
    121 H121      -51.1871  -22.9728   16.8503 H         1 UNK         0.2998 
    122 H122      -50.9772  -22.8935   14.6298 H         1 UNK         0.0697 
    123 H123      -47.9090  -23.0744   14.5558 H         1 UNK         0.0825 
    124 H124      -48.8344  -21.8437   15.4068 H         1 UNK         0.0825 
    125 H125      -48.8866  -21.9200   13.6515 H         1 UNK         0.0825 
    126 H126      -49.2603  -24.2589   12.8332 H         1 UNK         0.3029 
    127 H127      -51.2556  -27.1111   12.1302 H         1 UNK         0.0897 
    128 H128      -50.9074  -26.2540    9.8223 H         1 UNK         0.0792 
    129 H129      -50.6115  -24.6309   10.4430 H         1 UNK         0.0792 
    130 H130      -52.1899  -25.3696   10.6333 H         1 UNK         0.0792 
    131 H131      -48.6856  -25.9442   11.3282 H         1 UNK         0.3086 
    132 H132      -46.7588  -27.9236   13.4554 H         1 UNK         0.0583 
    133 H133      -45.7799  -29.1681   11.6676 H         1 UNK         0.1020 
    134 H134      -47.3714  -29.7961   11.9354 H         1 UNK         0.1020 
    135 H135      -48.0738  -30.3478    8.3352 H         1 UNK         0.0694 
    136 H136      -47.9531  -30.9579    9.9602 H         1 UNK         0.0694 
    137 H137      -46.3051  -26.4122   10.9979 H         1 UNK         0.2989 
    138 H138      -45.8752  -23.3244   12.6846 H         1 UNK         0.1055 
    139 H139      -43.6122  -24.3513   13.0144 H         1 UNK         0.0806 
    140 H140      -43.6349  -23.2987   11.6098 H         1 UNK         0.0806 
    141 H141      -43.6826  -25.0501   11.4019 H         1 UNK         0.0806 
    142 H142      -45.4735  -24.1395    9.9570 H         1 UNK         0.3061 
    143 H143      -48.4854  -24.6847    8.8291 H         1 UNK         0.0734 
    144 H144      -49.5251  -22.4743    9.3549 H         1 UNK         0.0832 
    145 H145      -49.1153  -22.5941    7.6576 H         1 UNK         0.0832 
    146 H146      -48.0989  -21.6483    8.7457 H         1 UNK         0.0832 
    147 H147      -46.8393  -23.2273    7.1977 H         1 UNK         0.3156 
    148 H148      -44.5556  -23.9372    6.4387 H         1 UNK         0.0589 
    149 H149      -44.5545  -27.0034    6.3632 H         1 UNK         0.0808 
    150 H150      -43.5149  -25.9566    5.3979 H         1 UNK         0.0808 
    151 H151      -43.3608  -25.9829    7.1475 H         1 UNK         0.0808 
    152 H152      -45.9396  -24.0205    4.7006 H         1 UNK         0.3098 
    153 H153      -47.7311  -24.3773    3.4973 H         1 UNK         0.0720 
    154 H154      -48.1239  -26.0572    1.6958 H         1 UNK         0.0791 
    155 H155      -47.5970  -27.3576    2.7638 H         1 UNK         0.0791 
    156 H156      -46.4553  -26.1251    2.2427 H         1 UNK         0.0791 
    157 H157      -49.6023  -26.6091    3.9881 H         1 UNK         0.3028 
@<TRIPOS>BOND
     1    1    2 1    
     2    1   82 1    
     3    1   83 1    
     4    1   84 1    
     5    2    3 2    
     6    2    4 am   BACKBONE|DICT|INTERRES
     7    4    5 1    
     8    4   85 1    
     9    5    6 1    
    10    5   80 1    
    11    5   86 1    
    12    6    7 1    
    13    6   87 1    
    14    6   88 1    
    15    7    8 1    
    16    8    9 1    
    17    8   89 1    
    18    8   90 1    
    19    9   10 ar   
    20    9   14 ar   
    21   10   11 ar   
    22   10   91 1    
    23   11   12 ar   
    24   11   58 1    
    25   12   13 ar   
    26   12   92 1    
    27   13   14 ar   
    28   13   15 1    
    29   14   93 1    
    30   15   16 1    
    31   15   94 1    
    32   15   95 1    
    33   16   17 1    
    34   17   18 1    
    35   17   96 1    
    36   17   97 1    
    37   18   19 1    
    38   18   22 1    
    39   18   98 1    
    40   19   20 am   BACKBONE|DICT|INTERRES
    41   19   21 2    
    42   20   99 1    
    43   20  100 1    
    44   22   23 am   BACKBONE|DICT|INTERRES
    45   22  101 1    
    46   23   24 2    
    47   23   25 1    
    48   25   26 1    
    49   25   27 1    
    50   25  102 1    
    51   26  103 1    
    52   26  104 1    
    53   26  105 1    
    54   27   28 am   BACKBONE|DICT|INTERRES
    55   27  106 1    
    56   28   29 2    
    57   28   30 1    
    58   30   31 1    
    59   30   32 1    
    60   30  107 1    
    61   31  108 1    
    62   31  109 1    
    63   31  110 1    
    64   32   33 am   BACKBONE|DICT|INTERRES
    65   32  111 1    
    66   33   34 2    
    67   33   35 1    
    68   35   36 1    
    69   35   37 1    
    70   35  112 1    
    71   36  113 1    
    72   36  114 1    
    73   36  115 1    
    74   37   38 am   BACKBONE|DICT|INTERRES
    75   37  116 1    
    76   38   39 2    
    77   38   40 1    
    78   40   41 1    
    79   40   42 1    
    80   40  117 1    
    81   41  118 1    
    82   41  119 1    
    83   41  120 1    
    84   42   43 am   BACKBONE|DICT|INTERRES
    85   42  121 1    
    86   43   44 2    
    87   43   45 1    
    88   45   46 1    
    89   45   47 1    
    90   45  122 1    
    91   46  123 1    
    92   46  124 1    
    93   46  125 1    
    94   47   48 am   BACKBONE|DICT|INTERRES
    95   47  126 1    
    96   48   49 2    
    97   48   50 1    
    98   50   51 1    
    99   50   52 1    
   100   50  127 1    
   101   51  128 1    
   102   51  129 1    
   103   51  130 1    
   104   52   53 am   BACKBONE|DICT|INTERRES
   105   52  131 1    
   106   53   54 2    
   107   53   55 1    
   108   55   56 1    
   109   55   59 1    
   110   55  132 1    
   111   56   57 1    
   112   56  133 1    
   113   56  134 1    
   114   57   58 1    
   115   58  135 1    
   116   58  136 1    
   117   59   60 am   BACKBONE|DICT|INTERRES
   118   59  137 1    
   119   60   61 2    
   120   60   62 1    
   121   62   63 1    
   122   62   64 1    
   123   62  138 1    
   124   63  139 1    
   125   63  140 1    
   126   63  141 1    
   127   64   65 am   BACKBONE|DICT|INTERRES
   128   64  142 1    
   129   65   66 2    
   130   65   67 1    
   131   67   68 1    
   132   67   69 1    
   133   67  143 1    
   134   68  144 1    
   135   68  145 1    
   136   68  146 1    
   137   69   70 am   BACKBONE|DICT|INTERRES
   138   69  147 1    
   139   70   71 2    
   140   70   72 1    
   141   72   73 1    
   142   72   74 1    
   143   72  148 1    
   144   73  149 1    
   145   73  150 1    
   146   73  151 1    
   147   74   75 am   BACKBONE|DICT|INTERRES
   148   74  152 1    
   149   75   76 2    
   150   75   77 1    
   151   77   78 1    
   152   77   79 1    
   153   77  153 1    
   154   78  154 1    
   155   78  155 1    
   156   78  156 1    
   157   79   80 am   BACKBONE|DICT|INTERRES
   158   79  157 1    
   159   80   81 2    
@<TRIPOS>SUBSTRUCTURE
     1 UNK         1 GROUP             0       ****    0 ROOT    
