@<TRIPOS>MOLECULE
3R207
157   159    1
SMALL
USER_CHARGES


@<TRIPOS>ATOM
      1 CA        -48.0369  -28.1157    2.4694 C.3       0 UNK        -0.1975 
      2 C         -48.2974  -27.8741    3.9481 C.2       0 UNK         0.4852 
      3 O         -47.4492  -28.2020    4.7775 O.2       0 UNK        -0.5216 
      4 N         -49.4510  -27.2758    4.2821 N.am      1 UNK        -0.4461 
      5 CA        -49.9501  -27.0244    5.6470 C.3       1 UNK         0.0864 
      6 C6        -50.3870  -28.3215    6.3853 C.3       14 UNK        -0.0898 
      7 S7        -51.5265  -29.3929    5.4374 S.3       14 UNK        -0.2598 
      8 C8        -53.0524  -28.3988    5.3319 C.3       14 UNK         0.0286 
      9 C9        -53.5562  -27.9521    6.6963 C.ar      14 UNK        -0.0844 
     10 C10       -53.4296  -26.6162    7.0867 C.ar      14 UNK        -0.0881 
     11 C11       -53.8576  -26.2017    8.3497 C.ar      14 UNK        -0.0643 
     12 C12       -54.4381  -27.1301    9.2197 C.ar      14 UNK        -0.0930 
     13 C13       -54.5841  -28.4659    8.8339 C.ar      14 UNK        -0.0827 
     14 C14       -54.1423  -28.8718    7.5709 C.ar      14 UNK        -0.1249 
     15 C15       -55.2244  -29.4688    9.7789 C.3       14 UNK         0.0141 
     16 S16       -53.9846  -30.2664   10.8443 S.3       14 UNK        -0.2313 
     17 C17       -55.0635  -31.3595   11.8317 C.3       14 UNK        -0.0915 
     18 CA        -55.3239  -30.8742   13.2856 C.3       13 UNK         0.0968 
     19 C         -54.1437  -31.1128   14.2714 C.2       13 UNK         0.5732 
     20 N         -53.9630  -30.2876   15.2973 N.am      13 UNK        -0.7310 
     21 O         -53.3989  -32.0804   14.1354 O.2       13 UNK        -0.5035 
     22 N         -55.8306  -29.4950   13.3275 N.am      13 UNK        -0.4233 
     23 C         -57.0766  -29.1315   13.6529 C.2       13 UNK         0.4989 
     24 O         -57.9887  -29.9345   13.8590 O.2       13 UNK        -0.4996 
     25 CA        -57.3603  -27.6161   13.7708 C.3       12 UNK         0.0216 
     26 CB        -58.4857  -27.3085   14.7821 C.3       12 UNK        -0.1964 
     27 N         -56.1759  -26.7939   14.0644 N.am      12 UNK        -0.4276 
     28 C         -55.3424  -26.9166   15.1078 C.2       12 UNK         0.5020 
     29 O         -55.4516  -27.7714   15.9906 O.2       12 UNK        -0.5489 
     30 CA        -54.1397  -25.9615   15.1316 C.3       11 UNK         0.0294 
     31 CB        -54.1445  -25.0851   16.3942 C.3       11 UNK        -0.2019 
     32 N         -52.8858  -26.7105   15.0673 N.am      11 UNK        -0.4493 
     33 C         -52.4917  -27.4746   14.0429 C.2       11 UNK         0.4932 
     34 O         -53.1446  -27.5897   13.0042 O.2       11 UNK        -0.5029 
     35 CA        -51.1564  -28.2355   14.2081 C.3       10 UNK         0.0280 
     36 CB        -50.7197  -28.9334   12.9077 C.3       10 UNK        -0.1976 
     37 N         -50.0422  -27.4113   14.6984 N.am      10 UNK        -0.4242 
     38 C         -49.8940  -26.9517   15.9501 C.2       10 UNK         0.5072 
     39 O         -50.7336  -27.1106   16.8375 O.2       10 UNK        -0.5224 
     40 CA        -48.5994  -26.1938   16.2745 C.3       9 UNK         0.0343 
     41 CB        -47.3624  -26.7906   15.5795 C.3       9 UNK        -0.2003 
     42 N         -48.7259  -24.7829   15.9143 N.am      9 UNK        -0.4272 
     43 C         -49.1491  -23.8186   16.7423 C.2       9 UNK         0.4988 
     44 O         -49.5262  -24.0245   17.8965 O.2       9 UNK        -0.5108 
     45 CA        -49.1198  -22.3736   16.2233 C.3       8 UNK         0.0248 
     46 CB        -47.6947  -21.7987   16.3017 C.3       8 UNK        -0.2001 
     47 N         -49.6218  -22.2490   14.8524 N.am      8 UNK        -0.4140 
     48 C         -50.4797  -21.3013   14.4426 C.2       8 UNK         0.5028 
     49 O         -50.9560  -20.4426   15.1870 O.2       8 UNK        -0.5428 
     50 CA        -50.8725  -21.2748   12.9506 C.3       7 UNK         0.0264 
     51 CB        -50.1069  -20.1630   12.2144 C.3       7 UNK        -0.1988 
     52 N         -50.6484  -22.5431   12.2562 N.am      7 UNK        -0.4454 
     53 C         -51.3309  -23.6716   12.4912 C.2       7 UNK         0.5027 
     54 O         -52.3012  -23.7280   13.2460 O.2       7 UNK        -0.5083 
     55 CA        -50.8314  -24.9651   11.8098 C.3       6 UNK         0.0844 
     56 C56       -51.8250  -25.4870   10.7491 C.3       14 UNK        -0.0967 
     57 S57       -51.9446  -24.4339    9.2621 S.3       14 UNK        -0.2604 
     58 C58       -53.6681  -24.7532    8.7731 C.3       14 UNK         0.0134 
     59 N         -49.4560  -24.9310   11.2985 N.am      6 UNK        -0.4116 
     60 C         -48.3540  -24.7060   12.0274 C.2       5 UNK         0.5034 
     61 O         -48.3768  -24.3389   13.2043 O.2       5 UNK        -0.5045 
     62 CA        -47.0108  -24.9643   11.3224 C.3       5 UNK         0.0224 
     63 CB        -45.8053  -24.9181   12.2837 C.3       5 UNK        -0.1978 
     64 N         -47.0060  -26.2176   10.5574 N.am      5 UNK        -0.4737 
     65 C         -47.3057  -27.4545   10.9924 C.2       4 UNK         0.5027 
     66 O         -47.6503  -27.7136   12.1454 O.2       4 UNK        -0.5211 
     67 CA        -47.2295  -28.6009    9.9662 C.3       4 UNK         0.0297 
     68 CB        -48.6319  -29.1620    9.6757 C.3       4 UNK        -0.1993 
     69 N         -46.6094  -28.1784    8.7075 N.am      4 UNK        -0.4486 
     70 C         -45.2863  -28.1435    8.4888 C.2       3 UNK         0.4961 
     71 O         -44.4506  -28.5669    9.2877 O.2       3 UNK        -0.5105 
     72 CA        -44.8033  -27.5090    7.1719 C.3       3 UNK         0.0299 
     73 CB        -44.4649  -28.5979    6.1414 C.3       3 UNK        -0.1972 
     74 N         -45.7717  -26.5668    6.6004 N.am      3 UNK        -0.4305 
     75 C         -46.0198  -25.3471    7.1067 C.2       2 UNK         0.5006 
     76 O         -45.4340  -24.8891    8.0874 O.2       2 UNK        -0.5106 
     77 CA        -47.1326  -24.5042    6.4534 C.3       2 UNK         0.0296 
     78 CB        -46.5390  -23.5620    5.3942 C.3       2 UNK        -0.2002 
     79 N         -48.2053  -25.2978    5.8496 N.am      2 UNK        -0.4032 
     80 C         -48.9842  -26.1706    6.5065 C.2       1 UNK         0.5000 
     81 O         -48.9158  -26.3417    7.7261 O.2       1 UNK        -0.5238 
     82 H82       -47.9033  -29.1811    2.2842 H         1 UNK         0.0889 
     83 H83       -47.1290  -27.5993    2.1592 H         1 UNK         0.0889 
     84 H84       -48.8590  -27.7637    1.8466 H         1 UNK         0.0889 
     85 H85       -50.0911  -27.0201    3.5429 H         1 UNK         0.3028 
     86 H86       -50.8353  -26.4010    5.5259 H         1 UNK         0.0864 
     87 H87       -49.5096  -28.9224    6.6304 H         1 UNK         0.0720 
     88 H88       -50.8586  -28.0829    7.3404 H         1 UNK         0.0720 
     89 H89       -53.8246  -28.9934    4.8417 H         1 UNK         0.0814 
     90 H90       -52.8776  -27.5404    4.6819 H         1 UNK         0.0814 
     91 H91       -52.9801  -25.8953    6.4185 H         1 UNK         0.1469 
     92 H92       -54.7658  -26.8185   10.2020 H         1 UNK         0.1381 
     93 H93       -54.2414  -29.9066    7.2724 H         1 UNK         0.1206 
     94 H94       -55.7554  -30.2311    9.2068 H         1 UNK         0.0813 
     95 H95       -55.9717  -28.9729   10.4002 H         1 UNK         0.0813 
     96 H96       -54.6298  -32.3608   11.8286 H         1 UNK         0.0638 
     97 H97       -56.0204  -31.4670   11.3193 H         1 UNK         0.0638 
     98 H98       -56.0938  -31.5378   13.6821 H         1 UNK         0.0568 
     99 H99       -53.2175  -30.4782   15.9464 H         1 UNK         0.3450 
    100 H100      -54.5878  -29.5055   15.4649 H         1 UNK         0.3450 
    101 H101      -55.1279  -28.7800   13.1823 H         1 UNK         0.2987 
    102 H102      -57.7090  -27.3042   12.7853 H         1 UNK         0.0766 
    103 H103      -58.6918  -26.2394   14.8341 H         1 UNK         0.0798 
    104 H104      -58.2292  -27.6495   15.7859 H         1 UNK         0.0798 
    105 H105      -59.4169  -27.8009   14.4991 H         1 UNK         0.0798 
    106 H106      -55.9628  -26.0854   13.3751 H         1 UNK         0.3198 
    107 H107      -54.1845  -25.3057   14.2601 H         1 UNK         0.0843 
    108 H108      -54.0631  -25.6845   17.3020 H         1 UNK         0.0831 
    109 H109      -55.0672  -24.5078   16.4645 H         1 UNK         0.0831 
    110 H110      -53.3170  -24.3751   16.3844 H         1 UNK         0.0831 
    111 H111      -52.2994  -26.7127   15.8984 H         1 UNK         0.3133 
    112 H112      -51.3376  -29.0172   14.9480 H         1 UNK         0.0566 
    113 H113      -50.5394  -28.2161   12.1066 H         1 UNK         0.0814 
    114 H114      -49.8065  -29.5106   13.0531 H         1 UNK         0.0814 
    115 H115      -51.4854  -29.6276   12.5590 H         1 UNK         0.0814 
    116 H116      -49.2967  -27.2366   14.0367 H         1 UNK         0.3091 
    117 H117      -48.4355  -26.2840   17.3507 H         1 UNK         0.0702 
    118 H118      -46.4469  -26.3243   15.9439 H         1 UNK         0.0785 
    119 H119      -47.3917  -26.6512   14.5006 H         1 UNK         0.0785 
    120 H120      -47.2786  -27.8610   15.7726 H         1 UNK         0.0785 
    121 H121      -48.4700  -24.5456   14.9578 H         1 UNK         0.2998 
    122 H122      -49.7507  -21.7950   16.9015 H         1 UNK         0.0697 
    123 H123      -47.0125  -22.3167   15.6262 H         1 UNK         0.0825 
    124 H124      -47.2899  -21.8901   17.3106 H         1 UNK         0.0825 
    125 H125      -47.6816  -20.7398   16.0427 H         1 UNK         0.0825 
    126 H126      -49.2799  -22.9245   14.1757 H         1 UNK         0.3029 
    127 H127      -51.9398  -21.0477   12.9011 H         1 UNK         0.0897 
    128 H128      -50.2793  -19.1936   12.6843 H         1 UNK         0.0792 
    129 H129      -50.4289  -20.0785   11.1762 H         1 UNK         0.0792 
    130 H130      -49.0306  -20.3408   12.2211 H         1 UNK         0.0792 
    131 H131      -49.8751  -22.5806   11.6087 H         1 UNK         0.3086 
    132 H132      -50.8120  -25.7050   12.6081 H         1 UNK         0.0583 
    133 H133      -51.5384  -26.4915   10.4323 H         1 UNK         0.1020 
    134 H134      -52.8136  -25.5992   11.1980 H         1 UNK         0.1020 
    135 H135      -54.3376  -24.4958    9.5954 H         1 UNK         0.0694 
    136 H136      -53.9307  -24.0921    7.9459 H         1 UNK         0.0694 
    137 H137      -49.3420  -25.2150   10.3346 H         1 UNK         0.2989 
    138 H138      -46.8869  -24.1558   10.5999 H         1 UNK         0.1055 
    139 H139      -45.7662  -23.9710   12.8235 H         1 UNK         0.0806 
    140 H140      -44.8662  -25.0172   11.7392 H         1 UNK         0.0806 
    141 H141      -45.8442  -25.7157   13.0247 H         1 UNK         0.0806 
    142 H142      -46.7351  -26.1250    9.5871 H         1 UNK         0.3061 
    143 H143      -46.6319  -29.4003   10.4096 H         1 UNK         0.0734 
    144 H144      -49.3234  -28.3838    9.3521 H         1 UNK         0.0832 
    145 H145      -48.6039  -29.9320    8.9048 H         1 UNK         0.0832 
    146 H146      -49.0569  -29.6190   10.5694 H         1 UNK         0.0832 
    147 H147      -47.2315  -27.7798    8.0148 H         1 UNK         0.3156 
    148 H148      -43.8853  -26.9587    7.3894 H         1 UNK         0.0589 
    149 H149      -45.3235  -29.2353    5.9282 H         1 UNK         0.0808 
    150 H150      -44.1242  -28.1658    5.2004 H         1 UNK         0.0808 
    151 H151      -43.6671  -29.2447    6.5090 H         1 UNK         0.0808 
    152 H152      -46.3306  -26.9136    5.8254 H         1 UNK         0.3098 
    153 H153      -47.5819  -23.8949    7.2404 H         1 UNK         0.0720 
    154 H154      -47.2968  -22.8907    4.9895 H         1 UNK         0.0791 
    155 H155      -46.0988  -24.1142    4.5628 H         1 UNK         0.0791 
    156 H156      -45.7533  -22.9383    5.8233 H         1 UNK         0.0791 
    157 H157      -48.3165  -25.2255    4.8486 H         1 UNK         0.3028 
@<TRIPOS>BOND
     1    1    2 1    
     2    1   82 1    
     3    1   83 1    
     4    1   84 1    
     5    2    3 2    
     6    2    4 am   BACKBONE|DICT|INTERRES
     7    4    5 1    
     8    4   85 1    
     9    5    6 1    
    10    5   80 1    
    11    5   86 1    
    12    6    7 1    
    13    6   87 1    
    14    6   88 1    
    15    7    8 1    
    16    8    9 1    
    17    8   89 1    
    18    8   90 1    
    19    9   10 ar   
    20    9   14 ar   
    21   10   11 ar   
    22   10   91 1    
    23   11   12 ar   
    24   11   58 1    
    25   12   13 ar   
    26   12   92 1    
    27   13   14 ar   
    28   13   15 1    
    29   14   93 1    
    30   15   16 1    
    31   15   94 1    
    32   15   95 1    
    33   16   17 1    
    34   17   18 1    
    35   17   96 1    
    36   17   97 1    
    37   18   19 1    
    38   18   22 1    
    39   18   98 1    
    40   19   20 am   BACKBONE|DICT|INTERRES
    41   19   21 2    
    42   20   99 1    
    43   20  100 1    
    44   22   23 am   BACKBONE|DICT|INTERRES
    45   22  101 1    
    46   23   24 2    
    47   23   25 1    
    48   25   26 1    
    49   25   27 1    
    50   25  102 1    
    51   26  103 1    
    52   26  104 1    
    53   26  105 1    
    54   27   28 am   BACKBONE|DICT|INTERRES
    55   27  106 1    
    56   28   29 2    
    57   28   30 1    
    58   30   31 1    
    59   30   32 1    
    60   30  107 1    
    61   31  108 1    
    62   31  109 1    
    63   31  110 1    
    64   32   33 am   BACKBONE|DICT|INTERRES
    65   32  111 1    
    66   33   34 2    
    67   33   35 1    
    68   35   36 1    
    69   35   37 1    
    70   35  112 1    
    71   36  113 1    
    72   36  114 1    
    73   36  115 1    
    74   37   38 am   BACKBONE|DICT|INTERRES
    75   37  116 1    
    76   38   39 2    
    77   38   40 1    
    78   40   41 1    
    79   40   42 1    
    80   40  117 1    
    81   41  118 1    
    82   41  119 1    
    83   41  120 1    
    84   42   43 am   BACKBONE|DICT|INTERRES
    85   42  121 1    
    86   43   44 2    
    87   43   45 1    
    88   45   46 1    
    89   45   47 1    
    90   45  122 1    
    91   46  123 1    
    92   46  124 1    
    93   46  125 1    
    94   47   48 am   BACKBONE|DICT|INTERRES
    95   47  126 1    
    96   48   49 2    
    97   48   50 1    
    98   50   51 1    
    99   50   52 1    
   100   50  127 1    
   101   51  128 1    
   102   51  129 1    
   103   51  130 1    
   104   52   53 am   BACKBONE|DICT|INTERRES
   105   52  131 1    
   106   53   54 2    
   107   53   55 1    
   108   55   56 1    
   109   55   59 1    
   110   55  132 1    
   111   56   57 1    
   112   56  133 1    
   113   56  134 1    
   114   57   58 1    
   115   58  135 1    
   116   58  136 1    
   117   59   60 am   BACKBONE|DICT|INTERRES
   118   59  137 1    
   119   60   61 2    
   120   60   62 1    
   121   62   63 1    
   122   62   64 1    
   123   62  138 1    
   124   63  139 1    
   125   63  140 1    
   126   63  141 1    
   127   64   65 am   BACKBONE|DICT|INTERRES
   128   64  142 1    
   129   65   66 2    
   130   65   67 1    
   131   67   68 1    
   132   67   69 1    
   133   67  143 1    
   134   68  144 1    
   135   68  145 1    
   136   68  146 1    
   137   69   70 am   BACKBONE|DICT|INTERRES
   138   69  147 1    
   139   70   71 2    
   140   70   72 1    
   141   72   73 1    
   142   72   74 1    
   143   72  148 1    
   144   73  149 1    
   145   73  150 1    
   146   73  151 1    
   147   74   75 am   BACKBONE|DICT|INTERRES
   148   74  152 1    
   149   75   76 2    
   150   75   77 1    
   151   77   78 1    
   152   77   79 1    
   153   77  153 1    
   154   78  154 1    
   155   78  155 1    
   156   78  156 1    
   157   79   80 am   BACKBONE|DICT|INTERRES
   158   79  157 1    
   159   80   81 2    
@<TRIPOS>SUBSTRUCTURE
     1 UNK         1 GROUP             0       ****    0 ROOT    
