@<TRIPOS>MOLECULE
3R207
157   159    1
SMALL
USER_CHARGES


@<TRIPOS>ATOM
      1 CA        -49.9567  -31.3521    6.7456 C.3       0 UNK        -0.1975 
      2 C         -49.6167  -30.5795    5.4799 C.2       0 UNK         0.4852 
      3 O         -48.9914  -31.1304    4.5736 O.2       0 UNK        -0.5216 
      4 N         -50.0296  -29.3068    5.4142 N.am      1 UNK        -0.4461 
      5 CA        -49.8488  -28.4010    4.2709 C.3       1 UNK         0.0864 
      6 C6        -50.6388  -27.0738    4.4339 C.3       14 UNK        -0.0898 
      7 S7        -52.3566  -27.2762    5.0186 S.3       14 UNK        -0.2598 
      8 C8        -52.2806  -26.4818    6.6596 C.3       14 UNK         0.0286 
      9 C9        -51.7157  -27.4122    7.7251 C.ar      14 UNK        -0.0844 
     10 C10       -50.3384  -27.5000    7.9492 C.ar      14 UNK        -0.0881 
     11 C11       -49.8292  -28.3668    8.9221 C.ar      14 UNK        -0.0643 
     12 C12       -50.7121  -29.0920    9.7285 C.ar      14 UNK        -0.0930 
     13 C13       -52.0935  -28.9929    9.5318 C.ar      14 UNK        -0.0827 
     14 C14       -52.5841  -28.1729    8.5107 C.ar      14 UNK        -0.1249 
     15 C15       -53.0609  -29.7709   10.4141 C.3       14 UNK         0.0141 
     16 S16       -54.2180  -28.6481   11.2540 S.3       14 UNK        -0.2313 
     17 C17       -55.1172  -29.7849   12.3574 C.3       14 UNK        -0.0915 
     18 CA        -56.3701  -29.1169   12.9805 C.3       13 UNK         0.0968 
     19 C         -57.1041  -30.0931   13.9378 C.2       13 UNK         0.5732 
     20 N         -56.8600  -30.0441   15.2412 N.am      13 UNK        -0.7310 
     21 O         -57.9127  -30.9027   13.4895 O.2       13 UNK        -0.5035 
     22 N         -56.0551  -27.8143   13.5855 N.am      13 UNK        -0.4233 
     23 C         -56.9390  -26.8261   13.7611 C.2       13 UNK         0.4989 
     24 O         -58.1397  -26.9182   13.4965 O.2       13 UNK        -0.4996 
     25 CA        -56.3576  -25.5034   14.2908 C.3       12 UNK         0.0216 
     26 CB        -57.4243  -24.4195   14.5618 C.3       12 UNK        -0.1964 
     27 N         -55.4897  -25.7175   15.4532 N.am      12 UNK        -0.4276 
     28 C         -55.8572  -26.1627   16.6641 C.2       12 UNK         0.5020 
     29 O         -57.0215  -26.4079   16.9862 O.2       12 UNK        -0.5489 
     30 CA        -54.7236  -26.3651   17.6863 C.3       11 UNK         0.0294 
     31 CB        -55.1812  -27.1173   18.9547 C.3       11 UNK        -0.2019 
     32 N         -53.5298  -26.9994   17.1155 N.am      11 UNK        -0.4493 
     33 C         -53.4397  -28.2149   16.5525 C.2       11 UNK         0.4932 
     34 O         -54.4132  -28.9460   16.3666 O.2       11 UNK        -0.5029 
     35 CA        -52.0433  -28.7133   16.1181 C.3       10 UNK         0.0280 
     36 CB        -52.0879  -29.3540   14.7207 C.3       10 UNK        -0.1976 
     37 N         -51.0147  -27.6708   16.1270 N.am      10 UNK        -0.4242 
     38 C         -50.3521  -27.2285   17.2049 C.2       10 UNK         0.5072 
     39 O         -50.4700  -27.7136   18.3302 O.2       10 UNK        -0.5224 
     40 CA        -49.4569  -25.9903   17.0046 C.3       9 UNK         0.0343 
     41 CB        -48.0466  -26.4038   16.5578 C.3       9 UNK        -0.2003 
     42 N         -50.0193  -25.0285   16.0487 N.am      9 UNK        -0.4272 
     43 C         -51.1896  -24.3912   16.2094 C.2       9 UNK         0.4988 
     44 O         -51.8939  -24.4969   17.2132 O.2       9 UNK        -0.5108 
     45 CA        -51.6911  -23.5426   15.0321 C.3       8 UNK         0.0248 
     46 CB        -51.0464  -22.1471   15.0406 C.3       8 UNK        -0.2001 
     47 N         -51.4495  -24.2020   13.7479 N.am      8 UNK        -0.4140 
     48 C         -52.1230  -25.2754   13.3090 C.2       8 UNK         0.5028 
     49 O         -53.0565  -25.7953   13.9226 O.2       8 UNK        -0.5428 
     50 CA        -51.6517  -25.8855   11.9769 C.3       7 UNK         0.0264 
     51 CB        -52.2614  -25.1248   10.7902 C.3       7 UNK        -0.1988 
     52 N         -50.1920  -25.9171   11.8459 N.am      7 UNK        -0.4454 
     53 C         -49.3883  -26.6526   12.6284 C.2       7 UNK         0.5027 
     54 O         -49.8027  -27.4020   13.5113 O.2       7 UNK        -0.5083 
     55 CA        -47.8647  -26.4849   12.4543 C.3       6 UNK         0.0844 
     56 C56       -47.2732  -27.5282   11.4754 C.3       14 UNK        -0.0967 
     57 S57       -47.4798  -27.1010    9.7080 S.3       14 UNK        -0.2604 
     58 C58       -48.3264  -28.5671    9.0466 C.3       14 UNK         0.0134 
     59 N         -47.4528  -25.1199   12.1207 N.am      6 UNK        -0.4116 
     60 C         -47.7408  -24.0053   12.8035 C.2       5 UNK         0.5034 
     61 O         -48.3800  -24.0075   13.8563 O.2       5 UNK        -0.5045 
     62 CA        -47.2576  -22.6600   12.2199 C.3       5 UNK         0.0224 
     63 CB        -46.4617  -21.8659   13.2702 C.3       5 UNK        -0.1978 
     64 N         -46.4516  -22.7652   10.9937 N.am      5 UNK        -0.4737 
     65 C         -46.9042  -23.1344    9.7882 C.2       4 UNK         0.5027 
     66 O         -48.0756  -23.4534    9.5695 O.2       4 UNK        -0.5211 
     67 CA        -45.8644  -23.1963    8.6601 C.3       4 UNK         0.0297 
     68 CB        -44.7296  -24.1911    8.9769 C.3       4 UNK        -0.1993 
     69 N         -46.5273  -23.6040    7.4259 N.am      4 UNK        -0.4486 
     70 C         -46.1735  -23.2418    6.1890 C.2       3 UNK         0.4961 
     71 O         -45.2237  -22.4986    5.9340 O.2       3 UNK        -0.5105 
     72 CA        -47.0269  -23.8419    5.0559 C.3       3 UNK         0.0299 
     73 CB        -46.6693  -23.2858    3.6605 C.3       3 UNK        -0.1972 
     74 N         -46.9880  -25.3106    5.0689 N.am      3 UNK        -0.4305 
     75 C         -45.9204  -26.1076    4.8883 C.2       2 UNK         0.5006 
     76 O         -44.7869  -25.6972    4.6372 O.2       2 UNK        -0.5106 
     77 CA        -46.1375  -27.6299    5.0206 C.3       2 UNK         0.0296 
     78 CB        -45.4447  -28.1575    6.2889 C.3       2 UNK        -0.2002 
     79 N         -47.5477  -28.0318    5.0491 N.am      2 UNK        -0.4032 
     80 C         -48.3681  -28.0647    3.9875 C.2       1 UNK         0.5000 
     81 O         -48.0117  -27.8025    2.8378 O.2       1 UNK        -0.5238 
     82 H82       -50.7255  -30.8487    7.3316 H         1 UNK         0.0889 
     83 H83       -49.0695  -31.4650    7.3679 H         1 UNK         0.0889 
     84 H84       -50.3264  -32.3456    6.4932 H         1 UNK         0.0889 
     85 H85       -50.5821  -28.9297    6.1741 H         1 UNK         0.3028 
     86 H86       -50.2362  -28.9197    3.3912 H         1 UNK         0.0864 
     87 H87       -50.6828  -26.5557    3.4738 H         1 UNK         0.0720 
     88 H88       -50.1208  -26.3885    5.1057 H         1 UNK         0.0720 
     89 H89       -53.2901  -26.1765    6.9395 H         1 UNK         0.0814 
     90 H90       -51.6996  -25.5596    6.6104 H         1 UNK         0.0814 
     91 H91       -49.6559  -26.9117    7.3535 H         1 UNK         0.1469 
     92 H92       -50.3233  -29.7468   10.4962 H         1 UNK         0.1381 
     93 H93       -53.6514  -28.1045    8.3493 H         1 UNK         0.1206 
     94 H94       -52.5216  -30.3517   11.1640 H         1 UNK         0.0813 
     95 H95       -53.6194  -30.4809    9.8027 H         1 UNK         0.0813 
     96 H96       -54.4343  -30.1255   13.1353 H         1 UNK         0.0638 
     97 H97       -55.4041  -30.6698   11.7862 H         1 UNK         0.0638 
     98 H98       -57.0613  -28.9260   12.1569 H         1 UNK         0.0568 
     99 H99       -57.3458  -30.6754   15.8568 H         1 UNK         0.3450 
    100 H100      -56.1283  -29.4442   15.6103 H         1 UNK         0.3450 
    101 H101      -55.0888  -27.6575   13.8323 H         1 UNK         0.2987 
    102 H102      -55.7099  -25.1237   13.4990 H         1 UNK         0.0766 
    103 H103      -56.9698  -23.4981   14.9256 H         1 UNK         0.0798 
    104 H104      -58.1615  -24.7440   15.2965 H         1 UNK         0.0798 
    105 H105      -57.9674  -24.1740   13.6485 H         1 UNK         0.0798 
    106 H106      -54.4956  -25.6288   15.2532 H         1 UNK         0.3198 
    107 H107      -54.4175  -25.3641   17.9941 H         1 UNK         0.0843 
    108 H108      -55.5518  -28.1161   18.7212 H         1 UNK         0.0831 
    109 H109      -55.9873  -26.5816   19.4576 H         1 UNK         0.0831 
    110 H110      -54.3662  -27.2202   19.6710 H         1 UNK         0.0831 
    111 H111      -52.6867  -26.4398   17.1783 H         1 UNK         0.3133 
    112 H112      -51.7509  -29.4888   16.8286 H         1 UNK         0.0566 
    113 H113      -51.1024  -29.7012   14.4101 H         1 UNK         0.0814 
    114 H114      -52.7475  -30.2217   14.7116 H         1 UNK         0.0814 
    115 H115      -52.4469  -28.6516   13.9671 H         1 UNK         0.0814 
    116 H116      -50.7895  -27.2635   15.2238 H         1 UNK         0.3091 
    117 H117      -49.3734  -25.4811   17.9669 H         1 UNK         0.0702 
    118 H118      -47.4096  -25.5356   16.3871 H         1 UNK         0.0785 
    119 H119      -48.0721  -26.9901   15.6401 H         1 UNK         0.0785 
    120 H120      -47.5642  -27.0177   17.3195 H         1 UNK         0.0785 
    121 H121      -49.4761  -24.8352   15.2113 H         1 UNK         0.2998 
    122 H122      -52.7696  -23.4150   15.1493 H         1 UNK         0.0697 
    123 H123      -49.9620  -22.1944   14.9389 H         1 UNK         0.0825 
    124 H124      -51.2608  -21.6278   15.9756 H         1 UNK         0.0825 
    125 H125      -51.4325  -21.5270   14.2315 H         1 UNK         0.0825 
    126 H126      -50.6556  -23.8783   13.2140 H         1 UNK         0.3029 
    127 H127      -52.0045  -26.9173   11.9426 H         1 UNK         0.0897 
    128 H128      -51.9535  -24.0787   10.7740 H         1 UNK         0.0792 
    129 H129      -53.3512  -25.1480   10.8346 H         1 UNK         0.0792 
    130 H130      -51.9688  -25.5738    9.8423 H         1 UNK         0.0792 
    131 H131      -49.7742  -25.3459   11.1241 H         1 UNK         0.3086 
    132 H132      -47.4284  -26.6910   13.4326 H         1 UNK         0.0583 
    133 H133      -46.2009  -27.6149   11.6573 H         1 UNK         0.1020 
    134 H134      -47.6752  -28.5214   11.6849 H         1 UNK         0.1020 
    135 H135      -47.9224  -28.7786    8.0570 H         1 UNK         0.0694 
    136 H136      -48.0944  -29.4478    9.6468 H         1 UNK         0.0694 
    137 H137      -46.9649  -25.0180   11.2432 H         1 UNK         0.2989 
    138 H138      -48.1583  -22.0915   11.9779 H         1 UNK         0.1055 
    139 H139      -47.0505  -21.7082   14.1753 H         1 UNK         0.0806 
    140 H140      -46.1828  -20.8804   12.8967 H         1 UNK         0.0806 
    141 H141      -45.5492  -22.3866   13.5631 H         1 UNK         0.0806 
    142 H142      -45.4722  -22.5339   11.0868 H         1 UNK         0.3061 
    143 H143      -45.4498  -22.1931    8.5394 H         1 UNK         0.0734 
    144 H144      -44.0096  -24.2399    8.1596 H         1 UNK         0.0832 
    145 H145      -44.1757  -23.9007    9.8699 H         1 UNK         0.0832 
    146 H146      -45.1112  -25.1996    9.1397 H         1 UNK         0.0832 
    147 H147      -47.3705  -24.1450    7.5718 H         1 UNK         0.3156 
    148 H148      -48.0602  -23.5576    5.2617 H         1 UNK         0.0589 
    149 H149      -45.6350  -23.4969    3.3874 H         1 UNK         0.0808 
    150 H150      -47.3122  -23.7089    2.8888 H         1 UNK         0.0808 
    151 H151      -46.7958  -22.2029    3.6307 H         1 UNK         0.0808 
    152 H152      -47.8629  -25.7630    5.2817 H         1 UNK         0.3098 
    153 H153      -45.6675  -28.1011    4.1547 H         1 UNK         0.0720 
    154 H154      -45.5702  -29.2352    6.3953 H         1 UNK         0.0791 
    155 H155      -45.8311  -27.6797    7.1895 H         1 UNK         0.0791 
    156 H156      -44.3721  -27.9607    6.2563 H         1 UNK         0.0791 
    157 H157      -47.9253  -28.3002    5.9444 H         1 UNK         0.3028 
@<TRIPOS>BOND
     1    1    2 1    
     2    1   82 1    
     3    1   83 1    
     4    1   84 1    
     5    2    3 2    
     6    2    4 am   BACKBONE|DICT|INTERRES
     7    4    5 1    
     8    4   85 1    
     9    5    6 1    
    10    5   80 1    
    11    5   86 1    
    12    6    7 1    
    13    6   87 1    
    14    6   88 1    
    15    7    8 1    
    16    8    9 1    
    17    8   89 1    
    18    8   90 1    
    19    9   10 ar   
    20    9   14 ar   
    21   10   11 ar   
    22   10   91 1    
    23   11   12 ar   
    24   11   58 1    
    25   12   13 ar   
    26   12   92 1    
    27   13   14 ar   
    28   13   15 1    
    29   14   93 1    
    30   15   16 1    
    31   15   94 1    
    32   15   95 1    
    33   16   17 1    
    34   17   18 1    
    35   17   96 1    
    36   17   97 1    
    37   18   19 1    
    38   18   22 1    
    39   18   98 1    
    40   19   20 am   BACKBONE|DICT|INTERRES
    41   19   21 2    
    42   20   99 1    
    43   20  100 1    
    44   22   23 am   BACKBONE|DICT|INTERRES
    45   22  101 1    
    46   23   24 2    
    47   23   25 1    
    48   25   26 1    
    49   25   27 1    
    50   25  102 1    
    51   26  103 1    
    52   26  104 1    
    53   26  105 1    
    54   27   28 am   BACKBONE|DICT|INTERRES
    55   27  106 1    
    56   28   29 2    
    57   28   30 1    
    58   30   31 1    
    59   30   32 1    
    60   30  107 1    
    61   31  108 1    
    62   31  109 1    
    63   31  110 1    
    64   32   33 am   BACKBONE|DICT|INTERRES
    65   32  111 1    
    66   33   34 2    
    67   33   35 1    
    68   35   36 1    
    69   35   37 1    
    70   35  112 1    
    71   36  113 1    
    72   36  114 1    
    73   36  115 1    
    74   37   38 am   BACKBONE|DICT|INTERRES
    75   37  116 1    
    76   38   39 2    
    77   38   40 1    
    78   40   41 1    
    79   40   42 1    
    80   40  117 1    
    81   41  118 1    
    82   41  119 1    
    83   41  120 1    
    84   42   43 am   BACKBONE|DICT|INTERRES
    85   42  121 1    
    86   43   44 2    
    87   43   45 1    
    88   45   46 1    
    89   45   47 1    
    90   45  122 1    
    91   46  123 1    
    92   46  124 1    
    93   46  125 1    
    94   47   48 am   BACKBONE|DICT|INTERRES
    95   47  126 1    
    96   48   49 2    
    97   48   50 1    
    98   50   51 1    
    99   50   52 1    
   100   50  127 1    
   101   51  128 1    
   102   51  129 1    
   103   51  130 1    
   104   52   53 am   BACKBONE|DICT|INTERRES
   105   52  131 1    
   106   53   54 2    
   107   53   55 1    
   108   55   56 1    
   109   55   59 1    
   110   55  132 1    
   111   56   57 1    
   112   56  133 1    
   113   56  134 1    
   114   57   58 1    
   115   58  135 1    
   116   58  136 1    
   117   59   60 am   BACKBONE|DICT|INTERRES
   118   59  137 1    
   119   60   61 2    
   120   60   62 1    
   121   62   63 1    
   122   62   64 1    
   123   62  138 1    
   124   63  139 1    
   125   63  140 1    
   126   63  141 1    
   127   64   65 am   BACKBONE|DICT|INTERRES
   128   64  142 1    
   129   65   66 2    
   130   65   67 1    
   131   67   68 1    
   132   67   69 1    
   133   67  143 1    
   134   68  144 1    
   135   68  145 1    
   136   68  146 1    
   137   69   70 am   BACKBONE|DICT|INTERRES
   138   69  147 1    
   139   70   71 2    
   140   70   72 1    
   141   72   73 1    
   142   72   74 1    
   143   72  148 1    
   144   73  149 1    
   145   73  150 1    
   146   73  151 1    
   147   74   75 am   BACKBONE|DICT|INTERRES
   148   74  152 1    
   149   75   76 2    
   150   75   77 1    
   151   77   78 1    
   152   77   79 1    
   153   77  153 1    
   154   78  154 1    
   155   78  155 1    
   156   78  156 1    
   157   79   80 am   BACKBONE|DICT|INTERRES
   158   79  157 1    
   159   80   81 2    
@<TRIPOS>SUBSTRUCTURE
     1 UNK         1 GROUP             0       ****    0 ROOT    
