@<TRIPOS>MOLECULE
3R207
157   159    1
SMALL
USER_CHARGES


@<TRIPOS>ATOM
      1 CA        -52.7458  -31.3179    6.8969 C.3       0 UNK        -0.1975 
      2 C         -51.5165  -30.4315    6.7689 C.2       0 UNK         0.4852 
      3 O         -51.1976  -29.7131    7.7140 O.2       0 UNK        -0.5216 
      4 N         -50.8330  -30.5011    5.6151 N.am      1 UNK        -0.4461 
      5 CA        -49.6498  -29.7530    5.1391 C.3       1 UNK         0.0864 
      6 C6        -49.9688  -28.3422    4.5723 C.3       14 UNK        -0.0898 
      7 S7        -50.5475  -27.1162    5.7880 S.3       14 UNK        -0.2598 
      8 C8        -52.3217  -27.0636    5.4015 C.3       14 UNK         0.0286 
      9 C9        -53.0922  -26.2858    6.4551 C.ar      14 UNK        -0.0844 
     10 C10       -53.3891  -24.9337    6.2625 C.ar      14 UNK        -0.0881 
     11 C11       -54.1218  -24.2238    7.2195 C.ar      14 UNK        -0.0643 
     12 C12       -54.5673  -24.8824    8.3697 C.ar      14 UNK        -0.0930 
     13 C13       -54.2645  -26.2314    8.5783 C.ar      14 UNK        -0.0827 
     14 C14       -53.5268  -26.9277    7.6178 C.ar      14 UNK        -0.1249 
     15 C15       -54.7605  -26.9397    9.8290 C.3       14 UNK         0.0141 
     16 S16       -53.7531  -26.5362   11.2883 S.3       14 UNK        -0.2313 
     17 C17       -52.3176  -27.6479   11.0889 C.3       14 UNK        -0.0915 
     18 CA        -52.5561  -29.0571   11.6909 C.3       13 UNK         0.0968 
     19 C         -51.3172  -29.9748   11.5366 C.2       13 UNK         0.5732 
     20 N         -51.4582  -31.1066   10.8592 N.am      13 UNK        -0.7310 
     21 O         -50.2323  -29.6684   12.0254 O.2       13 UNK        -0.5035 
     22 N         -52.9625  -28.9997   13.1006 N.am      13 UNK        -0.4233 
     23 C         -53.7549  -29.9091   13.6831 C.2       13 UNK         0.4989 
     24 O         -54.2230  -30.8833   13.0897 O.2       13 UNK        -0.4996 
     25 CA        -54.1163  -29.6746   15.1627 C.3       12 UNK         0.0216 
     26 CB        -54.7900  -30.8946   15.8285 C.3       12 UNK        -0.1964 
     27 N         -52.9889  -29.1924   15.9651 N.am      12 UNK        -0.4276 
     28 C         -51.8342  -29.8268   16.2267 C.2       12 UNK         0.5020 
     29 O         -51.5784  -30.9686   15.8418 O.2       12 UNK        -0.5489 
     30 CA        -50.7784  -29.0669   17.0553 C.3       11 UNK         0.0294 
     31 CB        -49.4074  -29.0903   16.3550 C.3       11 UNK        -0.2019 
     32 N         -51.1650  -27.6727   17.2858 N.am      11 UNK        -0.4493 
     33 C         -51.7350  -27.1994   18.4034 C.2       11 UNK         0.4932 
     34 O         -51.9229  -27.8767   19.4138 O.2       11 UNK        -0.5029 
     35 CA        -52.1983  -25.7278   18.3939 C.3       10 UNK         0.0280 
     36 CB        -51.1535  -24.8344   19.0816 C.3       10 UNK        -0.1976 
     37 N         -52.4738  -25.1994   17.0536 N.am      10 UNK        -0.4242 
     38 C         -53.4409  -25.6373   16.2331 C.2       10 UNK         0.5072 
     39 O         -54.2580  -26.5036   16.5435 O.2       10 UNK        -0.5224 
     40 CA        -53.4407  -25.0821   14.7967 C.3       9 UNK         0.0343 
     41 CB        -54.3219  -23.8285   14.6945 C.3       9 UNK        -0.2003 
     42 N         -52.0969  -24.7776   14.2918 N.am      9 UNK        -0.4272 
     43 C         -51.0963  -25.6646   14.1810 C.2       9 UNK         0.4988 
     44 O         -51.2380  -26.8609   14.4392 O.2       9 UNK        -0.5108 
     45 CA        -49.7070  -25.1300   13.7822 C.3       8 UNK         0.0248 
     46 CB        -48.8732  -26.1644   13.0049 C.3       8 UNK        -0.2001 
     47 N         -49.7850  -23.8819   13.0178 N.am      8 UNK        -0.4140 
     48 C         -49.7634  -22.6509   13.5528 C.2       8 UNK         0.5028 
     49 O         -49.6448  -22.4440   14.7606 O.2       8 UNK        -0.5428 
     50 CA        -49.9348  -21.4430   12.6117 C.3       7 UNK         0.0264 
     51 CB        -48.6104  -20.6831   12.4424 C.3       7 UNK        -0.1988 
     52 N         -50.4586  -21.8030   11.2927 N.am      7 UNK        -0.4454 
     53 C         -51.7455  -22.0955   11.0478 C.2       7 UNK         0.5027 
     54 O         -52.6291  -22.0261   11.9029 O.2       7 UNK        -0.5083 
     55 CA        -52.1100  -22.5618    9.6207 C.3       6 UNK         0.0844 
     56 C56       -52.7254  -21.3892    8.8125 C.3       14 UNK        -0.0967 
     57 S57       -52.9525  -21.7134    7.0277 S.3       14 UNK        -0.2604 
     58 C58       -54.4472  -22.7534    6.9942 C.3       14 UNK         0.0134 
     59 N         -51.0063  -23.2203    8.9134 N.am      6 UNK        -0.4116 
     60 C         -50.3633  -24.3193    9.3278 C.2       5 UNK         0.5034 
     61 O         -50.5827  -24.8661   10.4073 O.2       5 UNK        -0.5045 
     62 CA        -49.2504  -24.8812    8.4280 C.3       5 UNK         0.0224 
     63 CB        -49.0852  -24.1438    7.0779 C.3       5 UNK        -0.1978 
     64 N         -47.9721  -24.9439    9.1438 N.am      5 UNK        -0.4737 
     65 C         -47.3097  -23.9174    9.7002 C.2       4 UNK         0.5027 
     66 O         -47.7161  -22.7541    9.6678 O.2       4 UNK        -0.5211 
     67 CA        -45.9837  -24.2233   10.4274 C.3       4 UNK         0.0297 
     68 CB        -45.8521  -23.4147   11.7309 C.3       4 UNK        -0.1993 
     69 N         -45.8122  -25.6429   10.7413 N.am      4 UNK        -0.4486 
     70 C         -45.2597  -26.5619    9.9410 C.2       3 UNK         0.4961 
     71 O         -44.8048  -26.3142    8.8233 O.2       3 UNK        -0.5105 
     72 CA        -45.1995  -28.0070   10.4774 C.3       3 UNK         0.0299 
     73 CB        -45.8196  -28.1942   11.8825 C.3       3 UNK        -0.1972 
     74 N         -45.7829  -28.9832    9.5518 N.am      3 UNK        -0.4305 
     75 C         -47.0117  -28.9649    9.0130 C.2       2 UNK         0.5006 
     76 O         -47.8214  -28.0434    9.1450 O.2       2 UNK        -0.5106 
     77 CA        -47.4042  -30.2456    8.2629 C.3       2 UNK         0.0296 
     78 CB        -47.8495  -31.3232    9.2661 C.3       2 UNK        -0.2002 
     79 N         -48.4997  -30.0180    7.3244 N.am      2 UNK        -0.4032 
     80 C         -48.3706  -29.7874    6.0155 C.2       1 UNK         0.5000 
     81 O         -47.2748  -29.6658    5.4621 O.2       1 UNK        -0.5238 
     82 H82       -52.9431  -31.8805    5.9847 H         1 UNK         0.0889 
     83 H83       -53.6229  -30.7093    7.1158 H         1 UNK         0.0889 
     84 H84       -52.6114  -32.0281    7.7123 H         1 UNK         0.0889 
     85 H85       -51.1730  -31.1645    4.9327 H         1 UNK         0.3028 
     86 H86       -49.3517  -30.3373    4.2667 H         1 UNK         0.0864 
     87 H87       -49.0835  -27.9283    4.0859 H         1 UNK         0.0720 
     88 H88       -50.7104  -28.4315    3.7772 H         1 UNK         0.0720 
     89 H89       -52.4639  -26.6169    4.4163 H         1 UNK         0.0814 
     90 H90       -52.7145  -28.0791    5.3381 H         1 UNK         0.0814 
     91 H91       -53.0500  -24.4297    5.3676 H         1 UNK         0.1469 
     92 H92       -55.1416  -24.3444    9.1114 H         1 UNK         0.1381 
     93 H93       -53.2909  -27.9716    7.7724 H         1 UNK         0.1206 
     94 H94       -54.7828  -28.0205    9.6827 H         1 UNK         0.0813 
     95 H95       -55.7911  -26.6409   10.0250 H         1 UNK         0.0813 
     96 H96       -52.0601  -27.7173   10.0306 H         1 UNK         0.0638 
     97 H97       -51.4658  -27.1719   11.5733 H         1 UNK         0.0638 
     98 H98       -53.3740  -29.4975   11.1172 H         1 UNK         0.0568 
     99 H99       -52.3494  -31.3691   10.4707 H         1 UNK         0.3450 
    100 H100      -50.6645  -31.7165   10.7564 H         1 UNK         0.3450 
    101 H101      -52.5370  -28.2635   13.6532 H         1 UNK         0.2987 
    102 H102      -54.8475  -28.8649   15.1606 H         1 UNK         0.0766 
    103 H103      -55.0526  -30.6858   16.8655 H         1 UNK         0.0798 
    104 H104      -55.7115  -31.1631   15.3105 H         1 UNK         0.0798 
    105 H105      -54.1438  -31.7729   15.8156 H         1 UNK         0.0798 
    106 H106      -53.1079  -28.2561   16.3353 H         1 UNK         0.3198 
    107 H107      -50.6800  -29.5902   18.0087 H         1 UNK         0.0843 
    108 H108      -49.4593  -28.6651   15.3524 H         1 UNK         0.0831 
    109 H109      -49.0386  -30.1117   16.2527 H         1 UNK         0.0831 
    110 H110      -48.6606  -28.5329   16.9204 H         1 UNK         0.0831 
    111 H111      -51.0873  -27.0679   16.4754 H         1 UNK         0.3133 
    112 H112      -53.1256  -25.6740   18.9682 H         1 UNK         0.0566 
    113 H113      -50.2065  -24.8289   18.5403 H         1 UNK         0.0814 
    114 H114      -50.9472  -25.1839   20.0944 H         1 UNK         0.0814 
    115 H115      -51.5016  -23.8045   19.1623 H         1 UNK         0.0814 
    116 H116      -51.8493  -24.4833   16.7109 H         1 UNK         0.3091 
    117 H117      -53.8678  -25.8538   14.1545 H         1 UNK         0.0702 
    118 H118      -54.4033  -23.4876   13.6618 H         1 UNK         0.0785 
    119 H119      -53.9263  -23.0046   15.2898 H         1 UNK         0.0785 
    120 H120      -55.3338  -24.0325   15.0476 H         1 UNK         0.0785 
    121 H121      -51.9135  -23.8166   14.0413 H         1 UNK         0.2998 
    122 H122      -49.1790  -24.9429   14.7193 H         1 UNK         0.0697 
    123 H123      -49.3195  -26.4194   12.0446 H         1 UNK         0.0825 
    124 H124      -48.7688  -27.0933   13.5665 H         1 UNK         0.0825 
    125 H125      -47.8691  -25.7895   12.8180 H         1 UNK         0.0825 
    126 H126      -49.9706  -23.9930   12.0238 H         1 UNK         0.3029 
    127 H127      -50.6456  -20.7665   13.0918 H         1 UNK         0.0897 
    128 H128      -47.8631  -21.2864   11.9302 H         1 UNK         0.0792 
    129 H129      -48.1941  -20.3979   13.4096 H         1 UNK         0.0792 
    130 H130      -48.7503  -19.7672   11.8681 H         1 UNK         0.0792 
    131 H131      -49.7805  -21.9144   10.5479 H         1 UNK         0.3086 
    132 H132      -52.8805  -23.3215    9.7490 H         1 UNK         0.0583 
    133 H133      -53.6848  -21.0967    9.2438 H         1 UNK         0.1020 
    134 H134      -52.0878  -20.5057    8.8875 H         1 UNK         0.1020 
    135 H135      -55.1686  -22.3893    7.7272 H         1 UNK         0.0694 
    136 H136      -54.9238  -22.6463    6.0188 H         1 UNK         0.0694 
    137 H137      -50.7658  -22.8283    8.0150 H         1 UNK         0.2989 
    138 H138      -49.5327  -25.9143    8.2207 H         1 UNK         0.1055 
    139 H139      -48.3335  -24.6350    6.4599 H         1 UNK         0.0806 
    140 H140      -48.7794  -23.1047    7.2035 H         1 UNK         0.0806 
    141 H141      -50.0150  -24.1524    6.5071 H         1 UNK         0.0806 
    142 H142      -47.6001  -25.8804    9.2616 H         1 UNK         0.3061 
    143 H143      -45.1787  -23.9094    9.7596 H         1 UNK         0.0734 
    144 H144      -45.8074  -22.3458   11.5203 H         1 UNK         0.0832 
    145 H145      -46.6954  -23.5834   12.4015 H         1 UNK         0.0832 
    146 H146      -44.9379  -23.6682   12.2678 H         1 UNK         0.0832 
    147 H147      -46.1744  -25.9530   11.6304 H         1 UNK         0.3156 
    148 H148      -44.1389  -28.2514   10.5529 H         1 UNK         0.0589 
    149 H149      -46.8933  -28.0026   11.8841 H         1 UNK         0.0808 
    150 H150      -45.6758  -29.2155   12.2356 H         1 UNK         0.0808 
    151 H151      -45.3535  -27.5414   12.6219 H         1 UNK         0.0808 
    152 H152      -45.1928  -29.7765    9.3429 H         1 UNK         0.3098 
    153 H153      -46.5309  -30.6165    7.7218 H         1 UNK         0.0720 
    154 H154      -48.1390  -32.2439    8.7591 H         1 UNK         0.0791 
    155 H155      -47.0467  -31.5745    9.9604 H         1 UNK         0.0791 
    156 H156      -48.6988  -30.9850    9.8606 H         1 UNK         0.0791 
    157 H157      -49.4423  -29.9672    7.7096 H         1 UNK         0.3028 
@<TRIPOS>BOND
     1    1    2 1    
     2    1   82 1    
     3    1   83 1    
     4    1   84 1    
     5    2    3 2    
     6    2    4 am   BACKBONE|DICT|INTERRES
     7    4    5 1    
     8    4   85 1    
     9    5    6 1    
    10    5   80 1    
    11    5   86 1    
    12    6    7 1    
    13    6   87 1    
    14    6   88 1    
    15    7    8 1    
    16    8    9 1    
    17    8   89 1    
    18    8   90 1    
    19    9   10 ar   
    20    9   14 ar   
    21   10   11 ar   
    22   10   91 1    
    23   11   12 ar   
    24   11   58 1    
    25   12   13 ar   
    26   12   92 1    
    27   13   14 ar   
    28   13   15 1    
    29   14   93 1    
    30   15   16 1    
    31   15   94 1    
    32   15   95 1    
    33   16   17 1    
    34   17   18 1    
    35   17   96 1    
    36   17   97 1    
    37   18   19 1    
    38   18   22 1    
    39   18   98 1    
    40   19   20 am   BACKBONE|DICT|INTERRES
    41   19   21 2    
    42   20   99 1    
    43   20  100 1    
    44   22   23 am   BACKBONE|DICT|INTERRES
    45   22  101 1    
    46   23   24 2    
    47   23   25 1    
    48   25   26 1    
    49   25   27 1    
    50   25  102 1    
    51   26  103 1    
    52   26  104 1    
    53   26  105 1    
    54   27   28 am   BACKBONE|DICT|INTERRES
    55   27  106 1    
    56   28   29 2    
    57   28   30 1    
    58   30   31 1    
    59   30   32 1    
    60   30  107 1    
    61   31  108 1    
    62   31  109 1    
    63   31  110 1    
    64   32   33 am   BACKBONE|DICT|INTERRES
    65   32  111 1    
    66   33   34 2    
    67   33   35 1    
    68   35   36 1    
    69   35   37 1    
    70   35  112 1    
    71   36  113 1    
    72   36  114 1    
    73   36  115 1    
    74   37   38 am   BACKBONE|DICT|INTERRES
    75   37  116 1    
    76   38   39 2    
    77   38   40 1    
    78   40   41 1    
    79   40   42 1    
    80   40  117 1    
    81   41  118 1    
    82   41  119 1    
    83   41  120 1    
    84   42   43 am   BACKBONE|DICT|INTERRES
    85   42  121 1    
    86   43   44 2    
    87   43   45 1    
    88   45   46 1    
    89   45   47 1    
    90   45  122 1    
    91   46  123 1    
    92   46  124 1    
    93   46  125 1    
    94   47   48 am   BACKBONE|DICT|INTERRES
    95   47  126 1    
    96   48   49 2    
    97   48   50 1    
    98   50   51 1    
    99   50   52 1    
   100   50  127 1    
   101   51  128 1    
   102   51  129 1    
   103   51  130 1    
   104   52   53 am   BACKBONE|DICT|INTERRES
   105   52  131 1    
   106   53   54 2    
   107   53   55 1    
   108   55   56 1    
   109   55   59 1    
   110   55  132 1    
   111   56   57 1    
   112   56  133 1    
   113   56  134 1    
   114   57   58 1    
   115   58  135 1    
   116   58  136 1    
   117   59   60 am   BACKBONE|DICT|INTERRES
   118   59  137 1    
   119   60   61 2    
   120   60   62 1    
   121   62   63 1    
   122   62   64 1    
   123   62  138 1    
   124   63  139 1    
   125   63  140 1    
   126   63  141 1    
   127   64   65 am   BACKBONE|DICT|INTERRES
   128   64  142 1    
   129   65   66 2    
   130   65   67 1    
   131   67   68 1    
   132   67   69 1    
   133   67  143 1    
   134   68  144 1    
   135   68  145 1    
   136   68  146 1    
   137   69   70 am   BACKBONE|DICT|INTERRES
   138   69  147 1    
   139   70   71 2    
   140   70   72 1    
   141   72   73 1    
   142   72   74 1    
   143   72  148 1    
   144   73  149 1    
   145   73  150 1    
   146   73  151 1    
   147   74   75 am   BACKBONE|DICT|INTERRES
   148   74  152 1    
   149   75   76 2    
   150   75   77 1    
   151   77   78 1    
   152   77   79 1    
   153   77  153 1    
   154   78  154 1    
   155   78  155 1    
   156   78  156 1    
   157   79   80 am   BACKBONE|DICT|INTERRES
   158   79  157 1    
   159   80   81 2    
@<TRIPOS>SUBSTRUCTURE
     1 UNK         1 GROUP             0       ****    0 ROOT    
