@<TRIPOS>MOLECULE
3R207
157   159    1
SMALL
USER_CHARGES


@<TRIPOS>ATOM
      1 CA        -47.1913  -27.7595    7.2590 C.3       0 UNK        -0.1975 
      2 C         -48.2590  -27.2197    6.3182 C.2       0 UNK         0.4852 
      3 O         -47.9621  -26.3952    5.4542 O.2       0 UNK        -0.5216 
      4 N         -49.5102  -27.6620    6.4923 N.am      1 UNK        -0.4461 
      5 CA        -50.7051  -27.2548    5.7409 C.3       1 UNK         0.0864 
      6 C6        -51.7952  -28.3634    5.8011 C.3       14 UNK        -0.0898 
      7 S7        -52.3338  -28.7774    7.5009 S.3       14 UNK        -0.2598 
      8 C8        -51.5258  -30.3861    7.7902 C.3       14 UNK         0.0286 
      9 C9        -51.3356  -30.6938    9.2738 C.ar      14 UNK        -0.0844 
     10 C10       -50.1289  -31.2417    9.7219 C.ar      14 UNK        -0.0881 
     11 C11       -49.9455  -31.5592   11.0716 C.ar      14 UNK        -0.0643 
     12 C12       -50.9788  -31.3206   11.9819 C.ar      14 UNK        -0.0930 
     13 C13       -52.1899  -30.7729   11.5503 C.ar      14 UNK        -0.0827 
     14 C14       -52.3613  -30.4639   10.1977 C.ar      14 UNK        -0.1249 
     15 C15       -53.2998  -30.4813   12.5482 C.3       14 UNK         0.0141 
     16 S16       -54.8602  -31.3167   12.1243 S.3       14 UNK        -0.2313 
     17 C17       -56.0195  -30.4408   13.2277 C.3       14 UNK        -0.0915 
     18 CA        -56.7655  -29.2867   12.5069 C.3       13 UNK         0.0968 
     19 C         -57.9082  -28.7330   13.3983 C.2       13 UNK         0.5732 
     20 N         -57.6916  -27.6827   14.1798 N.am      13 UNK        -0.7310 
     21 O         -59.0174  -29.2613   13.3713 O.2       13 UNK        -0.5035 
     22 N         -55.8361  -28.2357   12.0621 N.am      13 UNK        -0.4233 
     23 C         -55.6999  -27.8123   10.7982 C.2       13 UNK         0.4989 
     24 O         -56.3676  -28.2483    9.8583 O.2       13 UNK        -0.4996 
     25 CA        -54.6151  -26.7473   10.5217 C.3       12 UNK         0.0216 
     26 CB        -54.9086  -25.9010    9.2656 C.3       12 UNK        -0.1964 
     27 N         -54.3068  -25.8816   11.6655 N.am      12 UNK        -0.4276 
     28 C         -55.1365  -25.0867   12.3533 C.2       12 UNK         0.5020 
     29 O         -56.3290  -24.9353   12.0811 O.2       12 UNK        -0.5489 
     30 CA        -54.5211  -24.3738   13.5787 C.3       11 UNK         0.0294 
     31 CB        -55.5914  -23.7235   14.4799 C.3       11 UNK        -0.2019 
     32 N         -53.6385  -25.2264   14.3943 N.am      11 UNK        -0.4493 
     33 C         -53.9209  -26.4347   14.9070 C.2       11 UNK         0.4932 
     34 O         -54.9656  -27.0428   14.6685 O.2       11 UNK        -0.5029 
     35 CA        -52.8794  -27.0853   15.8376 C.3       10 UNK         0.0280 
     36 CB        -52.7642  -28.5995   15.5996 C.3       10 UNK        -0.1976 
     37 N         -51.5456  -26.4921   15.7141 N.am      10 UNK        -0.4242 
     38 C         -51.0003  -25.6387   16.5907 C.2       10 UNK         0.5072 
     39 O         -51.5794  -25.2154   17.5920 O.2       10 UNK        -0.5224 
     40 CA        -49.5643  -25.1654   16.2999 C.3       9 UNK         0.0343 
     41 CB        -48.5438  -26.2116   16.7747 C.3       9 UNK        -0.2003 
     42 N         -49.3205  -24.8458   14.8905 N.am      9 UNK        -0.4272 
     43 C         -49.9575  -23.8825   14.2084 C.2       9 UNK         0.4988 
     44 O         -50.8467  -23.1733   14.6804 O.2       9 UNK        -0.5108 
     45 CA        -49.5449  -23.6914   12.7413 C.3       8 UNK         0.0248 
     46 CB        -48.2280  -22.9058   12.6514 C.3       8 UNK        -0.2001 
     47 N         -49.4410  -24.9654   12.0233 N.am      8 UNK        -0.4140 
     48 C         -50.4957  -25.7556   11.7760 C.2       8 UNK         0.5028 
     49 O         -51.6540  -25.4471   12.0433 O.2       8 UNK        -0.5428 
     50 CA        -50.2233  -27.1422   11.1818 C.3       7 UNK         0.0264 
     51 CB        -50.0355  -27.0608    9.6648 C.3       7 UNK        -0.1988 
     52 N         -49.0708  -27.7947   11.7990 N.am      7 UNK        -0.4454 
     53 C         -49.0369  -28.1910   13.0796 C.2       7 UNK         0.5027 
     54 O         -49.9784  -28.0550   13.8611 O.2       7 UNK        -0.5083 
     55 CA        -47.7195  -28.7964   13.6001 C.3       6 UNK         0.0844 
     56 C56       -47.7052  -30.3419   13.4808 C.3       14 UNK        -0.0967 
     57 S57       -47.3327  -30.9573   11.7964 S.3       14 UNK        -0.2604 
     58 C58       -48.6417  -32.1931   11.5327 C.3       14 UNK         0.0134 
     59 N         -46.5287  -28.1936   13.0005 N.am      6 UNK        -0.4116 
     60 C         -46.1732  -26.9036   13.0406 C.2       5 UNK         0.5034 
     61 O         -46.8099  -26.0346   13.6419 O.2       5 UNK        -0.5045 
     62 CA        -44.8810  -26.5294   12.2813 C.3       5 UNK         0.0224 
     63 CB        -44.3263  -27.6680   11.3915 C.3       5 UNK        -0.1978 
     64 N         -44.9777  -25.3078   11.4730 N.am      5 UNK        -0.4737 
     65 C         -45.9270  -24.9759   10.5878 C.2       4 UNK         0.5027 
     66 O         -46.9907  -25.5794   10.4291 O.2       4 UNK        -0.5211 
     67 CA        -45.5925  -23.7854    9.6859 C.3       4 UNK         0.0297 
     68 CB        -44.8608  -24.2589    8.4163 C.3       4 UNK        -0.1993 
     69 N         -46.8143  -23.0767    9.3190 N.am      4 UNK        -0.4486 
     70 C         -46.8645  -21.7806    8.9877 C.2       3 UNK         0.4961 
     71 O         -45.8635  -21.0637    8.9272 O.2       3 UNK        -0.5105 
     72 CA        -48.2515  -21.1585    8.7134 C.3       3 UNK         0.0299 
     73 CB        -48.1683  -19.9515    7.7537 C.3       3 UNK        -0.1972 
     74 N         -49.2934  -22.0891    8.2565 N.am      3 UNK        -0.4305 
     75 C         -49.2692  -22.8637    7.1625 C.2       2 UNK         0.5006 
     76 O         -48.2881  -23.0198    6.4335 O.2       2 UNK        -0.5106 
     77 CA        -50.5937  -23.5350    6.7916 C.3       2 UNK         0.0296 
     78 CB        -51.3523  -22.6865    5.7516 C.3       2 UNK        -0.2002 
     79 N         -50.3238  -24.8724    6.2739 N.am      2 UNK        -0.4032 
     80 C         -51.2257  -25.8542    6.1618 C.2       1 UNK         0.5000 
     81 O         -52.4243  -25.6834    6.3948 O.2       1 UNK        -0.5238 
     82 H82       -47.5548  -28.6010    7.8485 H         1 UNK         0.0889 
     83 H83       -46.8691  -26.9785    7.9472 H         1 UNK         0.0889 
     84 H84       -46.3235  -28.0946    6.6919 H         1 UNK         0.0889 
     85 H85       -49.6994  -28.3118    7.2403 H         1 UNK         0.3028 
     86 H86       -50.4157  -27.1540    4.6926 H         1 UNK         0.0864 
     87 H87       -51.4277  -29.2663    5.3113 H         1 UNK         0.0720 
     88 H88       -52.6743  -28.0659    5.2265 H         1 UNK         0.0720 
     89 H89       -50.5621  -30.4005    7.2794 H         1 UNK         0.0814 
     90 H90       -52.1290  -31.1736    7.3369 H         1 UNK         0.0814 
     91 H91       -49.3292  -31.4345    9.0198 H         1 UNK         0.1469 
     92 H92       -50.8401  -31.5632   13.0263 H         1 UNK         0.1381 
     93 H93       -53.3013  -30.0451    9.8653 H         1 UNK         0.1206 
     94 H94       -53.4516  -29.4029   12.5818 H         1 UNK         0.0813 
     95 H95       -53.0094  -30.7930   13.5522 H         1 UNK         0.0813 
     96 H96       -56.7314  -31.1821   13.5957 H         1 UNK         0.0638 
     97 H97       -55.4868  -30.0704   14.1056 H         1 UNK         0.0638 
     98 H98       -57.2608  -29.7244   11.6383 H         1 UNK         0.0568 
     99 H99       -58.4448  -27.3264   14.7448 H         1 UNK         0.3450 
    100 H100      -56.7579  -27.2947   14.2772 H         1 UNK         0.3450 
    101 H101      -55.3151  -27.7727   12.7975 H         1 UNK         0.2987 
    102 H102      -53.7004  -27.3088   10.3241 H         1 UNK         0.0766 
    103 H103      -55.8404  -25.3433    9.3630 H         1 UNK         0.0798 
    104 H104      -54.1061  -25.1888    9.0721 H         1 UNK         0.0798 
    105 H105      -54.9927  -26.5308    8.3787 H         1 UNK         0.0798 
    106 H106      -53.3207  -25.8503   11.9377 H         1 UNK         0.3198 
    107 H107      -53.8913  -23.5769   13.1796 H         1 UNK         0.0843 
    108 H108      -56.1907  -23.0034   13.9214 H         1 UNK         0.0831 
    109 H109      -55.1368  -23.1873   15.3129 H         1 UNK         0.0831 
    110 H110      -56.2749  -24.4671   14.8917 H         1 UNK         0.0831 
    111 H111      -52.7280  -24.8349   14.5991 H         1 UNK         0.3133 
    112 H112      -53.2564  -26.9472   16.8527 H         1 UNK         0.0566 
    113 H113      -52.0913  -29.0615   16.3220 H         1 UNK         0.0814 
    114 H114      -53.7293  -29.0984   15.6940 H         1 UNK         0.0814 
    115 H115      -52.3741  -28.8085   14.6059 H         1 UNK         0.0814 
    116 H116      -50.9778  -26.8280   14.9386 H         1 UNK         0.3091 
    117 H117      -49.3981  -24.2496   16.8709 H         1 UNK         0.0702 
    118 H118      -47.5202  -25.8790   16.6003 H         1 UNK         0.0785 
    119 H119      -48.6793  -27.1650   16.2648 H         1 UNK         0.0785 
    120 H120      -48.6477  -26.3982   17.8444 H         1 UNK         0.0785 
    121 H121      -48.5775  -25.3570   14.4236 H         1 UNK         0.2998 
    122 H122      -50.3228  -23.0962   12.2579 H         1 UNK         0.0697 
    123 H123      -47.3759  -23.4905   12.9986 H         1 UNK         0.0825 
    124 H124      -48.2701  -22.0001   13.2582 H         1 UNK         0.0825 
    125 H125      -48.0309  -22.5903   11.6309 H         1 UNK         0.0825 
    126 H126      -48.5152  -25.2885   11.7585 H         1 UNK         0.3029 
    127 H127      -51.0986  -27.7662   11.3779 H         1 UNK         0.0897 
    128 H128      -49.1870  -26.4379    9.3845 H         1 UNK         0.0792 
    129 H129      -50.9217  -26.6379    9.1896 H         1 UNK         0.0792 
    130 H130      -49.8819  -28.0547    9.2481 H         1 UNK         0.0792 
    131 H131      -48.2422  -27.9044   11.2324 H         1 UNK         0.3086 
    132 H132      -47.6763  -28.5583   14.6640 H         1 UNK         0.0583 
    133 H133      -46.9385  -30.7424   14.1459 H         1 UNK         0.1020 
    134 H134      -48.6434  -30.7649   13.8443 H         1 UNK         0.1020 
    135 H135      -48.3006  -32.9020   10.7767 H         1 UNK         0.0694 
    136 H136      -48.7914  -32.7763   12.4427 H         1 UNK         0.0694 
    137 H137      -45.9523  -28.8285   12.4673 H         1 UNK         0.2989 
    138 H138      -44.1401  -26.3247   13.0559 H         1 UNK         0.1055 
    139 H139      -44.0790  -28.5561   11.9748 H         1 UNK         0.0806 
    140 H140      -43.4060  -27.3610   10.8940 H         1 UNK         0.0806 
    141 H141      -45.0343  -27.9584   10.6135 H         1 UNK         0.0806 
    142 H142      -44.1766  -24.6953   11.5419 H         1 UNK         0.3061 
    143 H143      -44.9417  -23.1094   10.2454 H         1 UNK         0.0734 
    144 H144      -44.5426  -23.4152    7.8038 H         1 UNK         0.0832 
    145 H145      -43.9672  -24.8326    8.6655 H         1 UNK         0.0832 
    146 H146      -45.4981  -24.8942    7.8002 H         1 UNK         0.0832 
    147 H147      -47.6629  -23.6239    9.3754 H         1 UNK         0.3156 
    148 H148      -48.5952  -20.7815    9.6778 H         1 UNK         0.0589 
    149 H149      -47.7762  -20.2407    6.7779 H         1 UNK         0.0808 
    150 H150      -49.1471  -19.4970    7.6001 H         1 UNK         0.0808 
    151 H151      -47.5141  -19.1740    8.1502 H         1 UNK         0.0808 
    152 H152      -50.1539  -22.0548    8.7862 H         1 UNK         0.3098 
    153 H153      -51.2039  -23.6313    7.6926 H         1 UNK         0.0720 
    154 H154      -52.3311  -23.1082    5.5238 H         1 UNK         0.0791 
    155 H155      -50.7960  -22.6084    4.8166 H         1 UNK         0.0791 
    156 H156      -51.5181  -21.6728    6.1187 H         1 UNK         0.0791 
    157 H157      -49.3518  -25.0684    6.0438 H         1 UNK         0.3028 
@<TRIPOS>BOND
     1    1    2 1    
     2    1   82 1    
     3    1   83 1    
     4    1   84 1    
     5    2    3 2    
     6    2    4 am   BACKBONE|DICT|INTERRES
     7    4    5 1    
     8    4   85 1    
     9    5    6 1    
    10    5   80 1    
    11    5   86 1    
    12    6    7 1    
    13    6   87 1    
    14    6   88 1    
    15    7    8 1    
    16    8    9 1    
    17    8   89 1    
    18    8   90 1    
    19    9   10 ar   
    20    9   14 ar   
    21   10   11 ar   
    22   10   91 1    
    23   11   12 ar   
    24   11   58 1    
    25   12   13 ar   
    26   12   92 1    
    27   13   14 ar   
    28   13   15 1    
    29   14   93 1    
    30   15   16 1    
    31   15   94 1    
    32   15   95 1    
    33   16   17 1    
    34   17   18 1    
    35   17   96 1    
    36   17   97 1    
    37   18   19 1    
    38   18   22 1    
    39   18   98 1    
    40   19   20 am   BACKBONE|DICT|INTERRES
    41   19   21 2    
    42   20   99 1    
    43   20  100 1    
    44   22   23 am   BACKBONE|DICT|INTERRES
    45   22  101 1    
    46   23   24 2    
    47   23   25 1    
    48   25   26 1    
    49   25   27 1    
    50   25  102 1    
    51   26  103 1    
    52   26  104 1    
    53   26  105 1    
    54   27   28 am   BACKBONE|DICT|INTERRES
    55   27  106 1    
    56   28   29 2    
    57   28   30 1    
    58   30   31 1    
    59   30   32 1    
    60   30  107 1    
    61   31  108 1    
    62   31  109 1    
    63   31  110 1    
    64   32   33 am   BACKBONE|DICT|INTERRES
    65   32  111 1    
    66   33   34 2    
    67   33   35 1    
    68   35   36 1    
    69   35   37 1    
    70   35  112 1    
    71   36  113 1    
    72   36  114 1    
    73   36  115 1    
    74   37   38 am   BACKBONE|DICT|INTERRES
    75   37  116 1    
    76   38   39 2    
    77   38   40 1    
    78   40   41 1    
    79   40   42 1    
    80   40  117 1    
    81   41  118 1    
    82   41  119 1    
    83   41  120 1    
    84   42   43 am   BACKBONE|DICT|INTERRES
    85   42  121 1    
    86   43   44 2    
    87   43   45 1    
    88   45   46 1    
    89   45   47 1    
    90   45  122 1    
    91   46  123 1    
    92   46  124 1    
    93   46  125 1    
    94   47   48 am   BACKBONE|DICT|INTERRES
    95   47  126 1    
    96   48   49 2    
    97   48   50 1    
    98   50   51 1    
    99   50   52 1    
   100   50  127 1    
   101   51  128 1    
   102   51  129 1    
   103   51  130 1    
   104   52   53 am   BACKBONE|DICT|INTERRES
   105   52  131 1    
   106   53   54 2    
   107   53   55 1    
   108   55   56 1    
   109   55   59 1    
   110   55  132 1    
   111   56   57 1    
   112   56  133 1    
   113   56  134 1    
   114   57   58 1    
   115   58  135 1    
   116   58  136 1    
   117   59   60 am   BACKBONE|DICT|INTERRES
   118   59  137 1    
   119   60   61 2    
   120   60   62 1    
   121   62   63 1    
   122   62   64 1    
   123   62  138 1    
   124   63  139 1    
   125   63  140 1    
   126   63  141 1    
   127   64   65 am   BACKBONE|DICT|INTERRES
   128   64  142 1    
   129   65   66 2    
   130   65   67 1    
   131   67   68 1    
   132   67   69 1    
   133   67  143 1    
   134   68  144 1    
   135   68  145 1    
   136   68  146 1    
   137   69   70 am   BACKBONE|DICT|INTERRES
   138   69  147 1    
   139   70   71 2    
   140   70   72 1    
   141   72   73 1    
   142   72   74 1    
   143   72  148 1    
   144   73  149 1    
   145   73  150 1    
   146   73  151 1    
   147   74   75 am   BACKBONE|DICT|INTERRES
   148   74  152 1    
   149   75   76 2    
   150   75   77 1    
   151   77   78 1    
   152   77   79 1    
   153   77  153 1    
   154   78  154 1    
   155   78  155 1    
   156   78  156 1    
   157   79   80 am   BACKBONE|DICT|INTERRES
   158   79  157 1    
   159   80   81 2    
@<TRIPOS>SUBSTRUCTURE
     1 UNK         1 GROUP             0       ****    0 ROOT    
