@<TRIPOS>MOLECULE
3R207
157   159    1
SMALL
USER_CHARGES


@<TRIPOS>ATOM
      1 CA        -44.9684  -25.2598   10.5138 C.3       0 UNK        -0.1975 
      2 C         -44.9970  -26.6349    9.8683 C.2       0 UNK         0.4852 
      3 O         -43.9823  -27.0823    9.3328 O.2       0 UNK        -0.5216 
      4 N         -46.1534  -27.3095    9.9009 N.am      1 UNK        -0.4461 
      5 CA        -46.3712  -28.6758    9.4077 C.3       1 UNK         0.0864 
      6 C6        -47.5419  -29.3681   10.1606 C.3       14 UNK        -0.0898 
      7 S7        -49.1271  -28.4571   10.1169 S.3       14 UNK        -0.2598 
      8 C8        -50.1663  -29.6322    9.1865 C.3       14 UNK         0.0286 
      9 C9        -51.5206  -29.0417    8.8265 C.ar      14 UNK        -0.0844 
     10 C10       -51.5941  -27.8925    8.0342 C.ar      14 UNK        -0.0881 
     11 C11       -52.8318  -27.3390    7.6954 C.ar      14 UNK        -0.0643 
     12 C12       -54.0034  -27.9717    8.1217 C.ar      14 UNK        -0.0930 
     13 C13       -53.9454  -29.1312    8.9010 C.ar      14 UNK        -0.0827 
     14 C14       -52.7003  -29.6588    9.2541 C.ar      14 UNK        -0.1249 
     15 C15       -55.2260  -29.8342    9.3322 C.3       14 UNK         0.0141 
     16 S16       -55.6694  -29.4902   11.0656 S.3       14 UNK        -0.2313 
     17 C17       -56.0976  -27.7162   11.0113 C.3       14 UNK        -0.0915 
     18 CA        -55.2294  -26.8823   12.0016 C.3       13 UNK         0.0968 
     19 C         -55.3270  -25.3358   11.8194 C.2       13 UNK         0.5732 
     20 N         -55.6917  -24.8387   10.6441 N.am      13 UNK        -0.7310 
     21 O         -55.0159  -24.5675   12.7278 O.2       13 UNK        -0.5035 
     22 N         -55.4214  -27.2948   13.4025 N.am      13 UNK        -0.4233 
     23 C         -56.5538  -27.1548   14.1083 C.2       13 UNK         0.4989 
     24 O         -57.6035  -26.6921   13.6594 O.2       13 UNK        -0.4996 
     25 CA        -56.5077  -27.5979   15.5752 C.3       12 UNK         0.0216 
     26 CB        -56.6575  -29.1242   15.6908 C.3       12 UNK        -0.1964 
     27 N         -55.2601  -27.1754   16.2082 N.am      12 UNK        -0.4276 
     28 C         -55.0705  -25.9918   16.8085 C.2       12 UNK         0.5020 
     29 O         -55.9551  -25.1402   16.9133 O.2       12 UNK        -0.5489 
     30 CA        -53.6678  -25.6854   17.3801 C.3       11 UNK         0.0294 
     31 CB        -53.7356  -24.9914   18.7570 C.3       11 UNK        -0.2019 
     32 N         -52.7566  -26.8385   17.4150 N.am      11 UNK        -0.4493 
     33 C         -52.9095  -27.9798   18.1049 C.2       11 UNK         0.4932 
     34 O         -53.8211  -28.1685   18.9118 O.2       11 UNK        -0.5029 
     35 CA        -51.9055  -29.1174   17.8189 C.3       10 UNK         0.0280 
     36 CB        -52.4849  -30.5030   18.1744 C.3       10 UNK        -0.1976 
     37 N         -51.3697  -29.1520   16.4502 N.am      10 UNK        -0.4242 
     38 C         -52.0389  -29.1595   15.2867 C.2       10 UNK         0.5072 
     39 O         -53.2557  -28.9840   15.1857 O.2       10 UNK        -0.5224 
     40 CA        -51.1787  -29.3656   14.0242 C.3       9 UNK         0.0343 
     41 CB        -52.0259  -29.5896   12.7607 C.3       9 UNK        -0.2003 
     42 N         -50.2842  -28.2271   13.8119 N.am      9 UNK        -0.4272 
     43 C         -49.1587  -28.0002   14.5082 C.2       9 UNK         0.4988 
     44 O         -48.6847  -28.8101   15.3069 O.2       9 UNK        -0.5108 
     45 CA        -48.4791  -26.6253   14.3538 C.3       8 UNK         0.0248 
     46 CB        -47.3212  -26.7097   13.3485 C.3       8 UNK        -0.2001 
     47 N         -49.3996  -25.5545   13.9569 N.am      8 UNK        -0.4140 
     48 C         -50.4910  -25.1859   14.6493 C.2       8 UNK         0.5028 
     49 O         -50.7594  -25.6263   15.7673 O.2       8 UNK        -0.5428 
     50 CA        -51.4843  -24.2116   13.9812 C.3       7 UNK         0.0264 
     51 CB        -51.3682  -22.8130   14.6070 C.3       7 UNK        -0.1988 
     52 N         -51.3450  -24.1024   12.5251 N.am      7 UNK        -0.4454 
     53 C         -51.4602  -25.1183   11.6551 C.2       7 UNK         0.5027 
     54 O         -51.7835  -26.2566   11.9914 O.2       7 UNK        -0.5083 
     55 CA        -51.0747  -24.8469   10.1839 C.3       6 UNK         0.0844 
     56 C56       -52.3323  -24.6547    9.3026 C.3       14 UNK        -0.0967 
     57 S57       -51.8972  -24.6917    7.5266 S.3       14 UNK        -0.2604 
     58 C58       -52.9175  -26.0580    6.8726 C.3       14 UNK         0.0134 
     59 N         -50.1241  -23.7380   10.0094 N.am      6 UNK        -0.4116 
     60 C         -48.9209  -23.6196   10.5852 C.2       5 UNK         0.5034 
     61 O         -48.4505  -24.4460   11.3681 O.2       5 UNK        -0.5045 
     62 CA        -48.1070  -22.3718   10.2026 C.3       5 UNK         0.0224 
     63 CB        -47.0741  -21.9887   11.2786 C.3       5 UNK        -0.1978 
     64 N         -47.4259  -22.5916    8.9275 N.am      5 UNK        -0.4737 
     65 C         -48.0246  -22.5393    7.7309 C.2       4 UNK         0.5027 
     66 O         -49.1946  -22.1878    7.5763 O.2       4 UNK        -0.5211 
     67 CA        -47.2027  -22.9835    6.5130 C.3       4 UNK         0.0297 
     68 CB        -45.6762  -22.9389    6.7346 C.3       4 UNK        -0.1993 
     69 N         -47.5929  -24.3499    6.1769 N.am      4 UNK        -0.4486 
     70 C         -48.4570  -24.7030    5.2172 C.2       3 UNK         0.4961 
     71 O         -49.0096  -23.8997    4.4633 O.2       3 UNK        -0.5105 
     72 CA        -48.7455  -26.2150    5.0751 C.3       3 UNK         0.0299 
     73 CB        -49.2194  -26.5978    3.6576 C.3       3 UNK        -0.1972 
     74 N         -47.6358  -27.0849    5.4976 N.am      3 UNK        -0.4305 
     75 C         -46.3762  -27.1029    5.0330 C.2       2 UNK         0.5006 
     76 O         -45.9685  -26.3575    4.1407 O.2       2 UNK        -0.5106 
     77 CA        -45.4045  -28.1091    5.6918 C.3       2 UNK         0.0296 
     78 CB        -43.9349  -27.8450    5.3117 C.3       2 UNK        -0.2002 
     79 N         -45.5077  -28.1492    7.1562 N.am      2 UNK        -0.4032 
     80 C         -46.4743  -28.7484    7.8633 C.2       1 UNK         0.5000 
     81 O         -47.4244  -29.3152    7.3227 O.2       1 UNK        -0.5238 
     82 H82       -44.7309  -24.4972    9.7738 H         1 UNK         0.0889 
     83 H83       -44.2063  -25.2285   11.2919 H         1 UNK         0.0889 
     84 H84       -45.9247  -25.0145   10.9711 H         1 UNK         0.0889 
     85 H85       -46.9708  -26.8760   10.3086 H         1 UNK         0.3028 
     86 H86       -45.4763  -29.2524    9.6528 H         1 UNK         0.0864 
     87 H87       -47.6839  -30.3866    9.7945 H         1 UNK         0.0720 
     88 H88       -47.2704  -29.4806   11.2114 H         1 UNK         0.0720 
     89 H89       -49.6684  -29.9294    8.2648 H         1 UNK         0.0814 
     90 H90       -50.2837  -30.5415    9.7775 H         1 UNK         0.0814 
     91 H91       -50.6829  -27.4153    7.7021 H         1 UNK         0.1469 
     92 H92       -54.9642  -27.5620    7.8427 H         1 UNK         0.1381 
     93 H93       -52.6545  -30.5563    9.8555 H         1 UNK         0.1206 
     94 H94       -55.1018  -30.9114    9.2124 H         1 UNK         0.0813 
     95 H95       -56.0584  -29.5544    8.6846 H         1 UNK         0.0813 
     96 H96       -55.9727  -27.3636    9.9895 H         1 UNK         0.0638 
     97 H97       -57.1601  -27.6076   11.2309 H         1 UNK         0.0638 
     98 H98       -54.1903  -27.1092   11.7720 H         1 UNK         0.0568 
     99 H99       -55.7435  -23.8384   10.5364 H         1 UNK         0.3450 
    100 H100      -55.9574  -25.4389    9.8810 H         1 UNK         0.3450 
    101 H101      -54.6126  -27.6936   13.8603 H         1 UNK         0.2987 
    102 H102      -57.3512  -27.1387   16.0956 H         1 UNK         0.0766 
    103 H103      -57.6051  -29.4545   15.2632 H         1 UNK         0.0798 
    104 H104      -56.6409  -29.4455   16.7324 H         1 UNK         0.0798 
    105 H105      -55.8624  -29.6543   15.1650 H         1 UNK         0.0798 
    106 H106      -54.4709  -27.8108   16.1164 H         1 UNK         0.3198 
    107 H107      -53.2203  -24.9758   16.6833 H         1 UNK         0.0843 
    108 H108      -54.2438  -25.6079   19.4987 H         1 UNK         0.0831 
    109 H109      -54.2804  -24.0487   18.6937 H         1 UNK         0.0831 
    110 H110      -52.7393  -24.7620   19.1347 H         1 UNK         0.0831 
    111 H111      -51.9532  -26.7484   16.7957 H         1 UNK         0.3133 
    112 H112      -51.0522  -28.9356   18.4736 H         1 UNK         0.0566 
    113 H113      -53.3728  -30.7290   17.5823 H         1 UNK         0.0814 
    114 H114      -52.7707  -30.5555   19.2257 H         1 UNK         0.0814 
    115 H115      -51.7564  -31.2951   18.0016 H         1 UNK         0.0814 
    116 H116      -50.3581  -29.2142   16.3792 H         1 UNK         0.3091 
    117 H117      -50.5787  -30.2649   14.1784 H         1 UNK         0.0702 
    118 H118      -51.3919  -29.7885   11.8985 H         1 UNK         0.0785 
    119 H119      -52.6442  -28.7245   12.5252 H         1 UNK         0.0785 
    120 H120      -52.6936  -30.4438   12.8793 H         1 UNK         0.0785 
    121 H121      -50.6296  -27.5045   13.1878 H         1 UNK         0.2998 
    122 H122      -48.0675  -26.3557   15.3284 H         1 UNK         0.0697 
    123 H123      -46.6095  -27.4866   13.6311 H         1 UNK         0.0825 
    124 H124      -46.7725  -25.7693   13.2954 H         1 UNK         0.0825 
    125 H125      -47.6832  -26.9455   12.3485 H         1 UNK         0.0825 
    126 H126      -49.2279  -25.1330   13.0486 H         1 UNK         0.3029 
    127 H127      -52.4872  -24.5958   14.1808 H         1 UNK         0.0897 
    128 H128      -51.4981  -22.8579   15.6895 H         1 UNK         0.0792 
    129 H129      -52.1335  -22.1400   14.2199 H         1 UNK         0.0792 
    130 H130      -50.3930  -22.3641   14.4141 H         1 UNK         0.0792 
    131 H131      -51.0751  -23.1990   12.1654 H         1 UNK         0.3086 
    132 H132      -50.5605  -25.7480    9.8441 H         1 UNK         0.0583 
    133 H133      -53.0730  -25.4270    9.5146 H         1 UNK         0.1020 
    134 H134      -52.8220  -23.7053    9.5267 H         1 UNK         0.1020 
    135 H135      -53.9497  -25.7101    6.8097 H         1 UNK         0.0694 
    136 H136      -52.6021  -26.2730    5.8508 H         1 UNK         0.0694 
    137 H137      -50.3702  -23.0592    9.2990 H         1 UNK         0.2989 
    138 H138      -48.8003  -21.5332   10.1012 H         1 UNK         0.1055 
    139 H139      -46.3128  -22.7555   11.4152 H         1 UNK         0.0806 
    140 H140      -47.5577  -21.8380   12.2448 H         1 UNK         0.0806 
    141 H141      -46.5665  -21.0581   11.0241 H         1 UNK         0.0806 
    142 H142      -46.4628  -22.8884    8.9723 H         1 UNK         0.3061 
    143 H143      -47.4430  -22.3033    5.6930 H         1 UNK         0.0734 
    144 H144      -45.3381  -23.6617    7.4772 H         1 UNK         0.0832 
    145 H145      -45.1472  -23.1591    5.8069 H         1 UNK         0.0832 
    146 H146      -45.3527  -21.9478    7.0564 H         1 UNK         0.0832 
    147 H147      -47.2160  -25.0839    6.7572 H         1 UNK         0.3156 
    148 H148      -49.5681  -26.4232    5.7604 H         1 UNK         0.0589 
    149 H149      -49.4471  -27.6615    3.5892 H         1 UNK         0.0808 
    150 H150      -48.4654  -26.3661    2.9046 H         1 UNK         0.0808 
    151 H151      -50.1273  -26.0571    3.3873 H         1 UNK         0.0808 
    152 H152      -47.8579  -27.7790    6.2071 H         1 UNK         0.3098 
    153 H153      -45.6709  -29.0949    5.3048 H         1 UNK         0.0720 
    154 H154      -43.7940  -27.8832    4.2306 H         1 UNK         0.0791 
    155 H155      -43.2717  -28.5927    5.7470 H         1 UNK         0.0791 
    156 H156      -43.6023  -26.8631    5.6513 H         1 UNK         0.0791 
    157 H157      -44.7714  -27.6890    7.6855 H         1 UNK         0.3028 
@<TRIPOS>BOND
     1    1    2 1    
     2    1   82 1    
     3    1   83 1    
     4    1   84 1    
     5    2    3 2    
     6    2    4 am   BACKBONE|DICT|INTERRES
     7    4    5 1    
     8    4   85 1    
     9    5    6 1    
    10    5   80 1    
    11    5   86 1    
    12    6    7 1    
    13    6   87 1    
    14    6   88 1    
    15    7    8 1    
    16    8    9 1    
    17    8   89 1    
    18    8   90 1    
    19    9   10 ar   
    20    9   14 ar   
    21   10   11 ar   
    22   10   91 1    
    23   11   12 ar   
    24   11   58 1    
    25   12   13 ar   
    26   12   92 1    
    27   13   14 ar   
    28   13   15 1    
    29   14   93 1    
    30   15   16 1    
    31   15   94 1    
    32   15   95 1    
    33   16   17 1    
    34   17   18 1    
    35   17   96 1    
    36   17   97 1    
    37   18   19 1    
    38   18   22 1    
    39   18   98 1    
    40   19   20 am   BACKBONE|DICT|INTERRES
    41   19   21 2    
    42   20   99 1    
    43   20  100 1    
    44   22   23 am   BACKBONE|DICT|INTERRES
    45   22  101 1    
    46   23   24 2    
    47   23   25 1    
    48   25   26 1    
    49   25   27 1    
    50   25  102 1    
    51   26  103 1    
    52   26  104 1    
    53   26  105 1    
    54   27   28 am   BACKBONE|DICT|INTERRES
    55   27  106 1    
    56   28   29 2    
    57   28   30 1    
    58   30   31 1    
    59   30   32 1    
    60   30  107 1    
    61   31  108 1    
    62   31  109 1    
    63   31  110 1    
    64   32   33 am   BACKBONE|DICT|INTERRES
    65   32  111 1    
    66   33   34 2    
    67   33   35 1    
    68   35   36 1    
    69   35   37 1    
    70   35  112 1    
    71   36  113 1    
    72   36  114 1    
    73   36  115 1    
    74   37   38 am   BACKBONE|DICT|INTERRES
    75   37  116 1    
    76   38   39 2    
    77   38   40 1    
    78   40   41 1    
    79   40   42 1    
    80   40  117 1    
    81   41  118 1    
    82   41  119 1    
    83   41  120 1    
    84   42   43 am   BACKBONE|DICT|INTERRES
    85   42  121 1    
    86   43   44 2    
    87   43   45 1    
    88   45   46 1    
    89   45   47 1    
    90   45  122 1    
    91   46  123 1    
    92   46  124 1    
    93   46  125 1    
    94   47   48 am   BACKBONE|DICT|INTERRES
    95   47  126 1    
    96   48   49 2    
    97   48   50 1    
    98   50   51 1    
    99   50   52 1    
   100   50  127 1    
   101   51  128 1    
   102   51  129 1    
   103   51  130 1    
   104   52   53 am   BACKBONE|DICT|INTERRES
   105   52  131 1    
   106   53   54 2    
   107   53   55 1    
   108   55   56 1    
   109   55   59 1    
   110   55  132 1    
   111   56   57 1    
   112   56  133 1    
   113   56  134 1    
   114   57   58 1    
   115   58  135 1    
   116   58  136 1    
   117   59   60 am   BACKBONE|DICT|INTERRES
   118   59  137 1    
   119   60   61 2    
   120   60   62 1    
   121   62   63 1    
   122   62   64 1    
   123   62  138 1    
   124   63  139 1    
   125   63  140 1    
   126   63  141 1    
   127   64   65 am   BACKBONE|DICT|INTERRES
   128   64  142 1    
   129   65   66 2    
   130   65   67 1    
   131   67   68 1    
   132   67   69 1    
   133   67  143 1    
   134   68  144 1    
   135   68  145 1    
   136   68  146 1    
   137   69   70 am   BACKBONE|DICT|INTERRES
   138   69  147 1    
   139   70   71 2    
   140   70   72 1    
   141   72   73 1    
   142   72   74 1    
   143   72  148 1    
   144   73  149 1    
   145   73  150 1    
   146   73  151 1    
   147   74   75 am   BACKBONE|DICT|INTERRES
   148   74  152 1    
   149   75   76 2    
   150   75   77 1    
   151   77   78 1    
   152   77   79 1    
   153   77  153 1    
   154   78  154 1    
   155   78  155 1    
   156   78  156 1    
   157   79   80 am   BACKBONE|DICT|INTERRES
   158   79  157 1    
   159   80   81 2    
@<TRIPOS>SUBSTRUCTURE
     1 UNK         1 GROUP             0       ****    0 ROOT    
