@<TRIPOS>MOLECULE
3R207
157   159    1
SMALL
USER_CHARGES


@<TRIPOS>ATOM
      1 CA        -45.0896  -28.6932   10.6103 C.3       0 UNK        -0.1975 
      2 C         -45.3686  -28.4060    9.1436 C.2       0 UNK         0.4852 
      3 O         -44.5615  -27.7579    8.4757 O.2       0 UNK        -0.5216 
      4 N         -46.5120  -28.8866    8.6418 N.am      1 UNK        -0.4461 
      5 CA        -46.9398  -28.7934    7.2427 C.3       1 UNK         0.0864 
      6 C6        -48.2461  -29.5860    6.9834 C.3       14 UNK        -0.0898 
      7 S7        -49.6134  -29.1264    8.0976 S.3       14 UNK        -0.2598 
      8 C8        -51.0365  -29.8623    7.2420 C.3       14 UNK         0.0286 
      9 C9        -52.3159  -29.2066    7.7275 C.ar      14 UNK        -0.0844 
     10 C10       -52.7567  -28.0273    7.1248 C.ar      14 UNK        -0.0881 
     11 C11       -53.8763  -27.3534    7.6175 C.ar      14 UNK        -0.0643 
     12 C12       -54.5967  -27.9072    8.6813 C.ar      14 UNK        -0.0930 
     13 C13       -54.1800  -29.1025    9.2774 C.ar      14 UNK        -0.0827 
     14 C14       -53.0318  -29.7434    8.8005 C.ar      14 UNK        -0.1249 
     15 C15       -54.9603  -29.7024   10.4397 C.3       14 UNK         0.0141 
     16 S16       -54.8606  -28.6594   11.9278 S.3       14 UNK        -0.2313 
     17 C17       -56.4217  -27.7096   11.8475 C.3       14 UNK        -0.0915 
     18 CA        -57.3071  -27.8793   13.1112 C.3       13 UNK         0.0968 
     19 C         -57.9611  -29.2914   13.1912 C.2       13 UNK         0.5732 
     20 N         -57.6824  -30.1082   14.2018 N.am      13 UNK        -0.7310 
     21 O         -58.7510  -29.6471   12.3198 O.2       13 UNK        -0.5035 
     22 N         -56.5804  -27.4719   14.3198 N.am      13 UNK        -0.4233 
     23 C         -57.1370  -27.0997   15.4781 C.2       13 UNK         0.4989 
     24 O         -58.3476  -26.9243   15.6259 O.2       13 UNK        -0.4996 
     25 CA        -56.1773  -26.8909   16.6710 C.3       12 UNK         0.0216 
     26 CB        -56.8563  -27.1788   18.0271 C.3       12 UNK        -0.1964 
     27 N         -54.9081  -27.6327   16.5638 N.am      12 UNK        -0.4276 
     28 C         -54.7601  -28.9632   16.4531 C.2       12 UNK         0.5020 
     29 O         -55.7087  -29.7474   16.3956 O.2       12 UNK        -0.5489 
     30 CA        -53.3332  -29.5272   16.3395 C.3       11 UNK         0.0294 
     31 CB        -53.1190  -30.1812   14.9640 C.3       11 UNK        -0.2019 
     32 N         -52.2761  -28.5348   16.5519 N.am      11 UNK        -0.4493 
     33 C         -51.7694  -28.2068   17.7479 C.2       11 UNK         0.4932 
     34 O         -52.2151  -28.6273   18.8156 O.2       11 UNK        -0.5029 
     35 CA        -50.5540  -27.2681   17.7613 C.3       10 UNK         0.0280 
     36 CB        -49.2730  -28.0485   17.4221 C.3       10 UNK        -0.1976 
     37 N         -50.7107  -26.1645   16.8122 N.am      10 UNK        -0.4242 
     38 C         -50.7301  -24.8647   17.1415 C.2       10 UNK         0.5072 
     39 O         -50.5882  -24.4451   18.2913 O.2       10 UNK        -0.5224 
     40 CA        -50.9391  -23.8430   16.0043 C.3       9 UNK         0.0343 
     41 CB        -49.5876  -23.2755   15.5404 C.3       9 UNK        -0.2003 
     42 N         -51.6553  -24.3744   14.8421 N.am      9 UNK        -0.4272 
     43 C         -52.9114  -24.8402   14.8606 C.2       9 UNK         0.4988 
     44 O         -53.6366  -24.8166   15.8539 O.2       9 UNK        -0.5108 
     45 CA        -53.4416  -25.4905   13.5720 C.3       8 UNK         0.0248 
     46 CB        -54.2163  -24.4566   12.7396 C.3       8 UNK        -0.2001 
     47 N         -52.4341  -26.1310   12.7199 N.am      8 UNK        -0.4140 
     48 C         -51.4950  -27.0178   13.0829 C.2       8 UNK         0.5028 
     49 O         -51.2957  -27.3617   14.2493 O.2       8 UNK        -0.5428 
     50 CA        -50.6311  -27.6335   11.9667 C.3       7 UNK         0.0264 
     51 CB        -50.8482  -29.1543   11.8987 C.3       7 UNK        -0.1988 
     52 N         -50.8731  -27.0611   10.6376 N.am      7 UNK        -0.4454 
     53 C         -50.4618  -25.8514   10.2333 C.2       7 UNK         0.5027 
     54 O         -49.8489  -25.0648   10.9570 O.2       7 UNK        -0.5083 
     55 CA        -50.8471  -25.4678    8.7948 C.3       6 UNK         0.0844 
     56 C56       -52.2851  -24.8722    8.7205 C.3       14 UNK        -0.0967 
     57 S57       -52.9103  -24.7945    7.0054 S.3       14 UNK        -0.2604 
     58 C58       -54.2820  -26.0059    7.0304 C.3       14 UNK         0.0134 
     59 N         -49.7811  -24.6797    8.1662 N.am      6 UNK        -0.4116 
     60 C         -49.5708  -23.3560    8.2151 C.2       5 UNK         0.5034 
     61 O         -50.3212  -22.5322    8.7414 O.2       5 UNK        -0.5045 
     62 CA        -48.2578  -22.8911    7.5637 C.3       5 UNK         0.0224 
     63 CB        -48.1222  -21.3566    7.4578 C.3       5 UNK        -0.1978 
     64 N         -47.1073  -23.4896    8.2460 N.am      5 UNK        -0.4737 
     65 C         -46.6968  -23.2933    9.5081 C.2       4 UNK         0.5027 
     66 O         -47.1798  -22.4651   10.2799 O.2       4 UNK        -0.5211 
     67 CA        -45.5448  -24.1872   10.0018 C.3       4 UNK         0.0297 
     68 CB        -46.1059  -25.3225   10.8714 C.3       4 UNK        -0.1993 
     69 N         -44.7485  -24.7491    8.9034 N.am      4 UNK        -0.4486 
     70 C         -43.8649  -24.0433    8.1819 C.2       3 UNK         0.4961 
     71 O         -43.5224  -22.8917    8.4512 O.2       3 UNK        -0.5105 
     72 CA        -43.3056  -24.7181    6.9186 C.3       3 UNK         0.0299 
     73 CB        -42.1122  -25.6267    7.2553 C.3       3 UNK        -0.1972 
     74 N         -44.3349  -25.4753    6.1980 N.am      3 UNK        -0.4305 
     75 C         -45.3273  -24.9082    5.4919 C.2       2 UNK         0.5006 
     76 O         -45.4452  -23.6926    5.3416 O.2       2 UNK        -0.5106 
     77 CA        -46.3809  -25.8307    4.8505 C.3       2 UNK         0.0296 
     78 CB        -46.0754  -26.0360    3.3578 C.3       2 UNK        -0.2002 
     79 N         -46.4985  -27.1364    5.5018 N.am      2 UNK        -0.4032 
     80 C         -47.0130  -27.3389    6.7223 C.2       1 UNK         0.5000 
     81 O         -47.5014  -26.4410    7.4177 O.2       1 UNK        -0.5238 
     82 H82       -45.9696  -28.4958   11.2220 H         1 UNK         0.0889 
     83 H83       -44.2730  -28.0713   10.9759 H         1 UNK         0.0889 
     84 H84       -44.8028  -29.7361   10.7415 H         1 UNK         0.0889 
     85 H85       -47.1612  -29.3626    9.2516 H         1 UNK         0.3028 
     86 H86       -46.1543  -29.2926    6.6710 H         1 UNK         0.0864 
     87 H87       -48.5649  -29.4677    5.9460 H         1 UNK         0.0720 
     88 H88       -48.0572  -30.6527    7.1145 H         1 UNK         0.0720 
     89 H89       -51.0579  -30.9380    7.4232 H         1 UNK         0.0814 
     90 H90       -50.9393  -29.7281    6.1636 H         1 UNK         0.0814 
     91 H91       -52.1942  -27.6009    6.3051 H         1 UNK         0.1469 
     92 H92       -55.4706  -27.3977    9.0622 H         1 UNK         0.1381 
     93 H93       -52.6870  -30.6550    9.2695 H         1 UNK         0.1206 
     94 H94       -54.5634  -30.6865   10.6930 H         1 UNK         0.0813 
     95 H95       -55.9981  -29.8673   10.1478 H         1 UNK         0.0813 
     96 H96       -56.9843  -27.9718   10.9504 H         1 UNK         0.0638 
     97 H97       -56.1642  -26.6582   11.7251 H         1 UNK         0.0638 
     98 H98       -58.1435  -27.1870   12.9986 H         1 UNK         0.0568 
     99 H99       -58.1229  -31.0131   14.2331 H         1 UNK         0.3450 
    100 H100      -57.0254  -29.8458   14.9302 H         1 UNK         0.3450 
    101 H101      -55.5862  -27.6344   14.2961 H         1 UNK         0.2987 
    102 H102      -55.9172  -25.8322   16.6578 H         1 UNK         0.0766 
    103 H103      -57.7180  -26.5283   18.1822 H         1 UNK         0.0798 
    104 H104      -56.1713  -27.0074   18.8575 H         1 UNK         0.0798 
    105 H105      -57.2107  -28.2081   18.0915 H         1 UNK         0.0798 
    106 H106      -54.0713  -27.0637   16.5854 H         1 UNK         0.3198 
    107 H107      -53.2437  -30.3091   17.0969 H         1 UNK         0.0843 
    108 H108      -53.8836  -30.9313   14.7564 H         1 UNK         0.0831 
    109 H109      -52.1528  -30.6827   14.9108 H         1 UNK         0.0831 
    110 H110      -53.1562  -29.4472   14.1604 H         1 UNK         0.0831 
    111 H111      -51.8534  -28.1447   15.7087 H         1 UNK         0.3133 
    112 H112      -50.4537  -26.8867   18.7795 H         1 UNK         0.0566 
    113 H113      -48.3911  -27.4132   17.5054 H         1 UNK         0.0814 
    114 H114      -49.2998  -28.4512   16.4085 H         1 UNK         0.0814 
    115 H115      -49.1333  -28.8878   18.1049 H         1 UNK         0.0814 
    116 H116      -50.8505  -26.4219   15.8382 H         1 UNK         0.3091 
    117 H117      -51.5345  -23.0228   16.4110 H         1 UNK         0.0702 
    118 H118      -49.7207  -22.4853   14.8011 H         1 UNK         0.0785 
    119 H119      -48.9564  -24.0475   15.0981 H         1 UNK         0.0785 
    120 H120      -49.0370  -22.8439   16.3775 H         1 UNK         0.0785 
    121 H121      -51.1344  -24.4447   13.9796 H         1 UNK         0.2998 
    122 H122      -54.1328  -26.2763   13.8739 H         1 UNK         0.0697 
    123 H123      -54.6476  -24.9005   11.8431 H         1 UNK         0.0825 
    124 H124      -53.5750  -23.6321   12.4250 H         1 UNK         0.0825 
    125 H125      -55.0382  -24.0290   13.3158 H         1 UNK         0.0825 
    126 H126      -52.5003  -25.9299   11.7348 H         1 UNK         0.3029 
    127 H127      -49.5884  -27.4491   12.2340 H         1 UNK         0.0897 
    128 H128      -51.8769  -29.4040   11.6372 H         1 UNK         0.0792 
    129 H129      -50.6332  -29.6253   12.8589 H         1 UNK         0.0792 
    130 H130      -50.1932  -29.6170   11.1605 H         1 UNK         0.0792 
    131 H131      -51.3609  -27.6555    9.9792 H         1 UNK         0.3086 
    132 H132      -50.8489  -26.3973    8.2268 H         1 UNK         0.0583 
    133 H133      -52.9778  -25.4693    9.3149 H         1 UNK         0.1020 
    134 H134      -52.3367  -23.8784    9.1643 H         1 UNK         0.1020 
    135 H135      -55.1125  -25.5753    7.5920 H         1 UNK         0.0694 
    136 H136      -54.6419  -26.1552    6.0117 H         1 UNK         0.0694 
    137 H137      -49.0334  -25.2478    7.7769 H         1 UNK         0.2989 
    138 H138      -48.2558  -23.2857    6.5460 H         1 UNK         0.1055 
    139 H139      -48.1589  -20.8706    8.4329 H         1 UNK         0.0806 
    140 H140      -48.9323  -20.9382    6.8594 H         1 UNK         0.0806 
    141 H141      -47.1848  -21.0760    6.9775 H         1 UNK         0.0806 
    142 H142      -46.6480  -24.2336    7.7387 H         1 UNK         0.3061 
    143 H143      -44.8934  -23.5712   10.6254 H         1 UNK         0.0734 
    144 H144      -45.3049  -25.9071   11.3212 H         1 UNK         0.0832 
    145 H145      -46.7099  -24.9250   11.6886 H         1 UNK         0.0832 
    146 H146      -46.7480  -25.9911   10.2964 H         1 UNK         0.0832 
    147 H147      -44.9229  -25.7146    8.6433 H         1 UNK         0.3156 
    148 H148      -42.9420  -23.9294    6.2561 H         1 UNK         0.0589 
    149 H149      -42.3891  -26.4365    7.9301 H         1 UNK         0.0808 
    150 H150      -41.3191  -25.0582    7.7427 H         1 UNK         0.0808 
    151 H151      -41.6850  -26.0705    6.3560 H         1 UNK         0.0808 
    152 H152      -44.3201  -26.4801    6.3084 H         1 UNK         0.3098 
    153 H153      -47.3465  -25.3267    4.9323 H         1 UNK         0.0720 
    154 H154      -46.8564  -26.6184    2.8686 H         1 UNK         0.0791 
    155 H155      -45.1255  -26.5503    3.2056 H         1 UNK         0.0791 
    156 H156      -46.0143  -25.0793    2.8368 H         1 UNK         0.0791 
    157 H157      -46.1260  -27.9252    4.9922 H         1 UNK         0.3028 
@<TRIPOS>BOND
     1    1    2 1    
     2    1   82 1    
     3    1   83 1    
     4    1   84 1    
     5    2    3 2    
     6    2    4 am   BACKBONE|DICT|INTERRES
     7    4    5 1    
     8    4   85 1    
     9    5    6 1    
    10    5   80 1    
    11    5   86 1    
    12    6    7 1    
    13    6   87 1    
    14    6   88 1    
    15    7    8 1    
    16    8    9 1    
    17    8   89 1    
    18    8   90 1    
    19    9   10 ar   
    20    9   14 ar   
    21   10   11 ar   
    22   10   91 1    
    23   11   12 ar   
    24   11   58 1    
    25   12   13 ar   
    26   12   92 1    
    27   13   14 ar   
    28   13   15 1    
    29   14   93 1    
    30   15   16 1    
    31   15   94 1    
    32   15   95 1    
    33   16   17 1    
    34   17   18 1    
    35   17   96 1    
    36   17   97 1    
    37   18   19 1    
    38   18   22 1    
    39   18   98 1    
    40   19   20 am   BACKBONE|DICT|INTERRES
    41   19   21 2    
    42   20   99 1    
    43   20  100 1    
    44   22   23 am   BACKBONE|DICT|INTERRES
    45   22  101 1    
    46   23   24 2    
    47   23   25 1    
    48   25   26 1    
    49   25   27 1    
    50   25  102 1    
    51   26  103 1    
    52   26  104 1    
    53   26  105 1    
    54   27   28 am   BACKBONE|DICT|INTERRES
    55   27  106 1    
    56   28   29 2    
    57   28   30 1    
    58   30   31 1    
    59   30   32 1    
    60   30  107 1    
    61   31  108 1    
    62   31  109 1    
    63   31  110 1    
    64   32   33 am   BACKBONE|DICT|INTERRES
    65   32  111 1    
    66   33   34 2    
    67   33   35 1    
    68   35   36 1    
    69   35   37 1    
    70   35  112 1    
    71   36  113 1    
    72   36  114 1    
    73   36  115 1    
    74   37   38 am   BACKBONE|DICT|INTERRES
    75   37  116 1    
    76   38   39 2    
    77   38   40 1    
    78   40   41 1    
    79   40   42 1    
    80   40  117 1    
    81   41  118 1    
    82   41  119 1    
    83   41  120 1    
    84   42   43 am   BACKBONE|DICT|INTERRES
    85   42  121 1    
    86   43   44 2    
    87   43   45 1    
    88   45   46 1    
    89   45   47 1    
    90   45  122 1    
    91   46  123 1    
    92   46  124 1    
    93   46  125 1    
    94   47   48 am   BACKBONE|DICT|INTERRES
    95   47  126 1    
    96   48   49 2    
    97   48   50 1    
    98   50   51 1    
    99   50   52 1    
   100   50  127 1    
   101   51  128 1    
   102   51  129 1    
   103   51  130 1    
   104   52   53 am   BACKBONE|DICT|INTERRES
   105   52  131 1    
   106   53   54 2    
   107   53   55 1    
   108   55   56 1    
   109   55   59 1    
   110   55  132 1    
   111   56   57 1    
   112   56  133 1    
   113   56  134 1    
   114   57   58 1    
   115   58  135 1    
   116   58  136 1    
   117   59   60 am   BACKBONE|DICT|INTERRES
   118   59  137 1    
   119   60   61 2    
   120   60   62 1    
   121   62   63 1    
   122   62   64 1    
   123   62  138 1    
   124   63  139 1    
   125   63  140 1    
   126   63  141 1    
   127   64   65 am   BACKBONE|DICT|INTERRES
   128   64  142 1    
   129   65   66 2    
   130   65   67 1    
   131   67   68 1    
   132   67   69 1    
   133   67  143 1    
   134   68  144 1    
   135   68  145 1    
   136   68  146 1    
   137   69   70 am   BACKBONE|DICT|INTERRES
   138   69  147 1    
   139   70   71 2    
   140   70   72 1    
   141   72   73 1    
   142   72   74 1    
   143   72  148 1    
   144   73  149 1    
   145   73  150 1    
   146   73  151 1    
   147   74   75 am   BACKBONE|DICT|INTERRES
   148   74  152 1    
   149   75   76 2    
   150   75   77 1    
   151   77   78 1    
   152   77   79 1    
   153   77  153 1    
   154   78  154 1    
   155   78  155 1    
   156   78  156 1    
   157   79   80 am   BACKBONE|DICT|INTERRES
   158   79  157 1    
   159   80   81 2    
@<TRIPOS>SUBSTRUCTURE
     1 UNK         1 GROUP             0       ****    0 ROOT    
