@<TRIPOS>MOLECULE
3R207
157   159    1
SMALL
USER_CHARGES


@<TRIPOS>ATOM
      1 CA        -50.9367  -30.3932    8.9063 C.3       0 UNK        -0.1975 
      2 C         -50.1054  -30.3250    7.6356 C.2       0 UNK         0.4852 
      3 O         -49.2763  -31.2039    7.4011 O.2       0 UNK        -0.5216 
      4 N         -50.3029  -29.2789    6.8220 N.am      1 UNK        -0.4461 
      5 CA        -49.6323  -29.0813    5.5267 C.3       1 UNK         0.0864 
      6 C6        -50.5035  -28.2746    4.5289 C.3       14 UNK        -0.0898 
      7 S7        -52.1494  -29.0237    4.2651 S.3       14 UNK        -0.2598 
      8 C8        -53.2745  -27.7196    4.8586 C.3       14 UNK         0.0286 
      9 C9        -53.2065  -27.5414    6.3687 C.ar      14 UNK        -0.0844 
     10 C10       -52.3973  -26.5466    6.9220 C.ar      14 UNK        -0.0881 
     11 C11       -52.3308  -26.3751    8.3054 C.ar      14 UNK        -0.0643 
     12 C12       -53.1142  -27.1766    9.1387 C.ar      14 UNK        -0.0930 
     13 C13       -53.9262  -28.1829    8.6013 C.ar      14 UNK        -0.0827 
     14 C14       -53.9644  -28.3590    7.2133 C.ar      14 UNK        -0.1249 
     15 C15       -54.7868  -29.0683    9.4987 C.3       14 UNK         0.0141 
     16 S16       -53.9436  -29.5837   11.0342 S.3       14 UNK        -0.2313 
     17 C17       -55.0949  -30.8127   11.7439 C.3       14 UNK        -0.0915 
     18 CA        -56.6017  -30.4077   11.7819 C.3       13 UNK         0.0968 
     19 C         -57.5007  -31.5390   12.3705 C.2       13 UNK         0.5732 
     20 N         -58.5687  -31.2288   13.0961 N.am      13 UNK        -0.7310 
     21 O         -57.2509  -32.7196   12.1372 O.2       13 UNK        -0.5035 
     22 N         -56.8441  -29.0679   12.3521 N.am      13 UNK        -0.4233 
     23 C         -56.5460  -28.6726   13.5953 C.2       13 UNK         0.4989 
     24 O         -56.0097  -29.3852   14.4484 O.2       13 UNK        -0.4996 
     25 CA        -56.9493  -27.2392   13.9582 C.3       12 UNK         0.0216 
     26 CB        -58.4531  -27.1557   14.2869 C.3       12 UNK        -0.1964 
     27 N         -56.1546  -26.8258   15.1087 N.am      12 UNK        -0.4276 
     28 C         -55.9494  -25.5730   15.5286 C.2       12 UNK         0.5020 
     29 O         -56.4599  -24.5807   15.0068 O.2       12 UNK        -0.5489 
     30 CA        -55.0134  -25.3929   16.7382 C.3       11 UNK         0.0294 
     31 CB        -55.8260  -25.3353   18.0422 C.3       11 UNK        -0.2019 
     32 N         -53.9974  -26.4466   16.8442 N.am      11 UNK        -0.4493 
     33 C         -52.9476  -26.5600   16.0201 C.2       11 UNK         0.4932 
     34 O         -52.7145  -25.7797   15.0973 O.2       11 UNK        -0.5029 
     35 CA        -52.0334  -27.7677   16.2471 C.3       10 UNK         0.0280 
     36 CB        -52.4556  -28.9438   15.3494 C.3       10 UNK        -0.1976 
     37 N         -50.6519  -27.4011   15.9437 N.am      10 UNK        -0.4242 
     38 C         -49.5864  -27.7741   16.6638 C.2       10 UNK         0.5072 
     39 O         -49.6527  -28.4871   17.6669 O.2       10 UNK        -0.5224 
     40 CA        -48.2048  -27.2847   16.1955 C.3       9 UNK         0.0343 
     41 CB        -47.6507  -28.2076   15.0982 C.3       9 UNK        -0.2003 
     42 N         -48.1930  -25.9011   15.7184 N.am      9 UNK        -0.4272 
     43 C         -48.4119  -24.8186   16.4804 C.2       9 UNK         0.4988 
     44 O         -48.6608  -24.8637   17.6854 O.2       9 UNK        -0.5108 
     45 CA        -48.3373  -23.4530   15.7791 C.3       8 UNK         0.0248 
     46 CB        -46.8797  -22.9825   15.6405 C.3       8 UNK        -0.2001 
     47 N         -48.9683  -23.5129   14.4608 N.am      8 UNK        -0.4140 
     48 C         -50.2786  -23.3262   14.2484 C.2       8 UNK         0.5028 
     49 O         -51.0546  -22.9110   15.1100 O.2       8 UNK        -0.5428 
     50 CA        -50.8245  -23.6484   12.8448 C.3       7 UNK         0.0264 
     51 CB        -51.0735  -22.3587   12.0458 C.3       7 UNK        -0.1988 
     52 N         -49.9551  -24.5341   12.0658 N.am      7 UNK        -0.4454 
     53 C         -49.8067  -25.8487   12.2901 C.2       7 UNK         0.5027 
     54 O         -50.3675  -26.4575   13.1989 O.2       7 UNK        -0.5083 
     55 CA        -48.8262  -26.6111   11.3746 C.3       6 UNK         0.0844 
     56 C56       -49.5349  -27.1178   10.0928 C.3       14 UNK        -0.0967 
     57 S57       -49.6644  -25.8554    8.7749 S.3       14 UNK        -0.2604 
     58 C58       -51.4019  -25.3268    8.8908 C.3       14 UNK         0.0134 
     59 N         -47.6126  -25.8486   11.0699 N.am      6 UNK        -0.4116 
     60 C         -46.7842  -25.2859   11.9583 C.2       5 UNK         0.5034 
     61 O         -46.8888  -25.4217   13.1769 O.2       5 UNK        -0.5045 
     62 CA        -45.7072  -24.3520   11.3880 C.3       5 UNK         0.0224 
     63 CB        -44.3948  -25.1167   11.1565 C.3       5 UNK        -0.1978 
     64 N         -46.1383  -23.7101   10.1392 N.am      5 UNK        -0.4737 
     65 C         -47.0620  -22.7374   10.0734 C.2       4 UNK         0.5027 
     66 O         -47.6254  -22.2875   11.0708 O.2       4 UNK        -0.5211 
     67 CA        -47.4439  -22.1759    8.6909 C.3       4 UNK         0.0297 
     68 CB        -47.1074  -20.6776    8.6009 C.3       4 UNK        -0.1993 
     69 N         -46.7672  -22.8813    7.6011 N.am      4 UNK        -0.4486 
     70 C         -47.3738  -23.5308    6.5997 C.2       3 UNK         0.4961 
     71 O         -48.5889  -23.5207    6.4019 O.2       3 UNK        -0.5105 
     72 CA        -46.4717  -24.3480    5.6542 C.3       3 UNK         0.0299 
     73 CB        -45.0122  -23.8419    5.5910 C.3       3 UNK        -0.1972 
     74 N         -46.5062  -25.7806    5.9721 N.am      3 UNK        -0.4305 
     75 C         -46.2142  -26.3624    7.1443 C.2       2 UNK         0.5006 
     76 O         -45.8656  -25.7404    8.1495 O.2       2 UNK        -0.5106 
     77 CA        -46.3334  -27.8972    7.2020 C.3       2 UNK         0.0296 
     78 CB        -45.9205  -28.4677    8.5732 C.3       2 UNK        -0.2002 
     79 N         -47.6828  -28.3689    6.8819 N.am      2 UNK        -0.4032 
     80 C         -48.2118  -28.4782    5.6553 C.2       1 UNK         0.5000 
     81 O         -47.6113  -28.1198    4.6392 O.2       1 UNK        -0.5238 
     82 H82       -51.4513  -29.4549    9.1007 H         1 UNK         0.0889 
     83 H83       -50.3029  -30.6127    9.7649 H         1 UNK         0.0889 
     84 H84       -51.6864  -31.1797    8.8243 H         1 UNK         0.0889 
     85 H85       -51.0150  -28.5961    7.0492 H         1 UNK         0.3028 
     86 H86       -49.4834  -30.0671    5.0805 H         1 UNK         0.0864 
     87 H87       -50.6038  -27.2387    4.8520 H         1 UNK         0.0720 
     88 H88       -50.0178  -28.2316    3.5522 H         1 UNK         0.0720 
     89 H89       -54.2940  -27.9792    4.5694 H         1 UNK         0.0814 
     90 H90       -53.0476  -26.7819    4.3486 H         1 UNK         0.0814 
     91 H91       -51.8061  -25.9063    6.2815 H         1 UNK         0.1469 
     92 H92       -53.0780  -27.0263   10.2089 H         1 UNK         0.1381 
     93 H93       -54.5925  -29.1282    6.7845 H         1 UNK         0.1206 
     94 H94       -55.6934  -28.5171    9.7482 H         1 UNK         0.0813 
     95 H95       -55.0969  -29.9639    8.9581 H         1 UNK         0.0813 
     96 H96       -54.9703  -31.7310   11.1674 H         1 UNK         0.0638 
     97 H97       -54.7428  -31.0459   12.7499 H         1 UNK         0.0638 
     98 H98       -56.9385  -30.3363   10.7481 H         1 UNK         0.0568 
     99 H99       -59.1477  -31.9692   13.4598 H         1 UNK         0.3450 
    100 H100      -58.7969  -30.2678   13.2893 H         1 UNK         0.3450 
    101 H101      -57.3136  -28.4173   11.7394 H         1 UNK         0.2987 
    102 H102      -56.7150  -26.5858   13.1150 H         1 UNK         0.0766 
    103 H103      -58.7522  -26.1369   14.5336 H         1 UNK         0.0798 
    104 H104      -58.7152  -27.7932   15.1323 H         1 UNK         0.0798 
    105 H105      -59.0617  -27.4693   13.4381 H         1 UNK         0.0798 
    106 H106      -55.6745  -27.5913   15.5666 H         1 UNK         0.3198 
    107 H107      -54.5001  -24.4363   16.6142 H         1 UNK         0.0843 
    108 H108      -56.5726  -24.5409   18.0000 H         1 UNK         0.0831 
    109 H109      -55.1864  -25.1300   18.9009 H         1 UNK         0.0831 
    110 H110      -56.3563  -26.2695   18.2316 H         1 UNK         0.0831 
    111 H111      -54.1196  -27.1279   17.5805 H         1 UNK         0.3133 
    112 H112      -52.1207  -28.0692   17.2931 H         1 UNK         0.0566 
    113 H113      -51.8135  -29.8110   15.5032 H         1 UNK         0.0814 
    114 H114      -53.4780  -29.2561   15.5644 H         1 UNK         0.0814 
    115 H115      -52.4110  -28.6780   14.2917 H         1 UNK         0.0814 
    116 H116      -50.5302  -26.8239   15.1131 H         1 UNK         0.3091 
    117 H117      -47.5297  -27.3386   17.0522 H         1 UNK         0.0702 
    118 H118      -46.6496  -27.9047   14.7905 H         1 UNK         0.0785 
    119 H119      -48.2883  -28.2076   14.2142 H         1 UNK         0.0785 
    120 H120      -47.5847  -29.2374   15.4520 H         1 UNK         0.0785 
    121 H121      -47.9208  -25.7621   14.7497 H         1 UNK         0.2998 
    122 H122      -48.8625  -22.7252   16.4016 H         1 UNK         0.0697 
    123 H123      -46.2753  -23.6785   15.0588 H         1 UNK         0.0825 
    124 H124      -46.4096  -22.8869   16.6201 H         1 UNK         0.0825 
    125 H125      -46.8232  -22.0066   15.1578 H         1 UNK         0.0825 
    126 H126      -48.3978  -23.8516   13.6977 H         1 UNK         0.3029 
    127 H127      -51.7831  -24.1541   12.9836 H         1 UNK         0.0897 
    128 H128      -51.5126  -22.5721   11.0711 H         1 UNK         0.0792 
    129 H129      -51.7653  -21.7017   12.5748 H         1 UNK         0.0792 
    130 H130      -50.1522  -21.7979   11.8855 H         1 UNK         0.0792 
    131 H131      -49.4246  -24.1062   11.3194 H         1 UNK         0.3086 
    132 H132      -48.5016  -27.4894   11.9353 H         1 UNK         0.0583 
    133 H133      -48.9667  -27.9528    9.6844 H         1 UNK         0.1020 
    134 H134      -50.5178  -27.5326   10.3231 H         1 UNK         0.1020 
    135 H135      -51.6618  -25.1080    9.9268 H         1 UNK         0.0694 
    136 H136      -51.5203  -24.3917    8.3414 H         1 UNK         0.0694 
    137 H137      -47.4431  -25.6657   10.0895 H         1 UNK         0.2989 
    138 H138      -45.5229  -23.5720   12.1305 H         1 UNK         0.1055 
    139 H139      -44.0310  -25.5537   12.0875 H         1 UNK         0.0806 
    140 H140      -43.6122  -24.4573   10.7810 H         1 UNK         0.0806 
    141 H141      -44.5183  -25.9316   10.4425 H         1 UNK         0.0806 
    142 H142      -45.8199  -24.1508    9.2808 H         1 UNK         0.3061 
    143 H143      -48.5263  -22.2913    8.6015 H         1 UNK         0.0734 
    144 H144      -47.6164  -20.1134    9.3838 H         1 UNK         0.0832 
    145 H145      -46.0375  -20.4965    8.7107 H         1 UNK         0.0832 
    146 H146      -47.4228  -20.2585    7.6453 H         1 UNK         0.0832 
    147 H147      -45.7615  -22.9502    7.6654 H         1 UNK         0.3156 
    148 H148      -46.8981  -24.2424    4.6554 H         1 UNK         0.0589 
    149 H149      -44.4704  -24.0028    6.5235 H         1 UNK         0.0808 
    150 H150      -44.4594  -24.3542    4.8035 H         1 UNK         0.0808 
    151 H151      -44.9746  -22.7757    5.3628 H         1 UNK         0.0808 
    152 H152      -46.8346  -26.3947    5.2319 H         1 UNK         0.3098 
    153 H153      -45.6414  -28.2979    6.4584 H         1 UNK         0.0720 
    154 H154      -45.9701  -29.5567    8.5821 H         1 UNK         0.0791 
    155 H155      -46.5542  -28.0955    9.3780 H         1 UNK         0.0791 
    156 H156      -44.8937  -28.1909    8.8164 H         1 UNK         0.0791 
    157 H157      -48.2540  -28.6668    7.6571 H         1 UNK         0.3028 
@<TRIPOS>BOND
     1    1    2 1    
     2    1   82 1    
     3    1   83 1    
     4    1   84 1    
     5    2    3 2    
     6    2    4 am   BACKBONE|DICT|INTERRES
     7    4    5 1    
     8    4   85 1    
     9    5    6 1    
    10    5   80 1    
    11    5   86 1    
    12    6    7 1    
    13    6   87 1    
    14    6   88 1    
    15    7    8 1    
    16    8    9 1    
    17    8   89 1    
    18    8   90 1    
    19    9   10 ar   
    20    9   14 ar   
    21   10   11 ar   
    22   10   91 1    
    23   11   12 ar   
    24   11   58 1    
    25   12   13 ar   
    26   12   92 1    
    27   13   14 ar   
    28   13   15 1    
    29   14   93 1    
    30   15   16 1    
    31   15   94 1    
    32   15   95 1    
    33   16   17 1    
    34   17   18 1    
    35   17   96 1    
    36   17   97 1    
    37   18   19 1    
    38   18   22 1    
    39   18   98 1    
    40   19   20 am   BACKBONE|DICT|INTERRES
    41   19   21 2    
    42   20   99 1    
    43   20  100 1    
    44   22   23 am   BACKBONE|DICT|INTERRES
    45   22  101 1    
    46   23   24 2    
    47   23   25 1    
    48   25   26 1    
    49   25   27 1    
    50   25  102 1    
    51   26  103 1    
    52   26  104 1    
    53   26  105 1    
    54   27   28 am   BACKBONE|DICT|INTERRES
    55   27  106 1    
    56   28   29 2    
    57   28   30 1    
    58   30   31 1    
    59   30   32 1    
    60   30  107 1    
    61   31  108 1    
    62   31  109 1    
    63   31  110 1    
    64   32   33 am   BACKBONE|DICT|INTERRES
    65   32  111 1    
    66   33   34 2    
    67   33   35 1    
    68   35   36 1    
    69   35   37 1    
    70   35  112 1    
    71   36  113 1    
    72   36  114 1    
    73   36  115 1    
    74   37   38 am   BACKBONE|DICT|INTERRES
    75   37  116 1    
    76   38   39 2    
    77   38   40 1    
    78   40   41 1    
    79   40   42 1    
    80   40  117 1    
    81   41  118 1    
    82   41  119 1    
    83   41  120 1    
    84   42   43 am   BACKBONE|DICT|INTERRES
    85   42  121 1    
    86   43   44 2    
    87   43   45 1    
    88   45   46 1    
    89   45   47 1    
    90   45  122 1    
    91   46  123 1    
    92   46  124 1    
    93   46  125 1    
    94   47   48 am   BACKBONE|DICT|INTERRES
    95   47  126 1    
    96   48   49 2    
    97   48   50 1    
    98   50   51 1    
    99   50   52 1    
   100   50  127 1    
   101   51  128 1    
   102   51  129 1    
   103   51  130 1    
   104   52   53 am   BACKBONE|DICT|INTERRES
   105   52  131 1    
   106   53   54 2    
   107   53   55 1    
   108   55   56 1    
   109   55   59 1    
   110   55  132 1    
   111   56   57 1    
   112   56  133 1    
   113   56  134 1    
   114   57   58 1    
   115   58  135 1    
   116   58  136 1    
   117   59   60 am   BACKBONE|DICT|INTERRES
   118   59  137 1    
   119   60   61 2    
   120   60   62 1    
   121   62   63 1    
   122   62   64 1    
   123   62  138 1    
   124   63  139 1    
   125   63  140 1    
   126   63  141 1    
   127   64   65 am   BACKBONE|DICT|INTERRES
   128   64  142 1    
   129   65   66 2    
   130   65   67 1    
   131   67   68 1    
   132   67   69 1    
   133   67  143 1    
   134   68  144 1    
   135   68  145 1    
   136   68  146 1    
   137   69   70 am   BACKBONE|DICT|INTERRES
   138   69  147 1    
   139   70   71 2    
   140   70   72 1    
   141   72   73 1    
   142   72   74 1    
   143   72  148 1    
   144   73  149 1    
   145   73  150 1    
   146   73  151 1    
   147   74   75 am   BACKBONE|DICT|INTERRES
   148   74  152 1    
   149   75   76 2    
   150   75   77 1    
   151   77   78 1    
   152   77   79 1    
   153   77  153 1    
   154   78  154 1    
   155   78  155 1    
   156   78  156 1    
   157   79   80 am   BACKBONE|DICT|INTERRES
   158   79  157 1    
   159   80   81 2    
@<TRIPOS>SUBSTRUCTURE
     1 UNK         1 GROUP             0       ****    0 ROOT    
