@<TRIPOS>MOLECULE
3R207
157   159    1
SMALL
USER_CHARGES


@<TRIPOS>ATOM
      1 CA        -45.5672  -29.7344    3.0612 C.3       0 UNK        -0.1975 
      2 C         -45.4499  -30.8889    4.0539 C.2       0 UNK         0.4852 
      3 O         -44.4299  -31.5760    4.0533 O.2       0 UNK        -0.5216 
      4 N         -46.4503  -31.1602    4.9069 N.am      1 UNK        -0.4461 
      5 CA        -47.7009  -30.4139    5.0984 C.3       1 UNK         0.0864 
      6 C6        -48.6963  -31.2374    5.9537 C.3       14 UNK        -0.0898 
      7 S7        -50.4068  -30.6129    5.8814 S.3       14 UNK        -0.2598 
      8 C8        -50.5546  -29.9544    7.5678 C.3       14 UNK         0.0286 
      9 C9        -51.7921  -29.0903    7.7427 C.ar      14 UNK        -0.0844 
     10 C10       -51.8608  -27.8471    7.1130 C.ar      14 UNK        -0.0881 
     11 C11       -52.9436  -26.9903    7.3349 C.ar      14 UNK        -0.0643 
     12 C12       -53.9719  -27.3949    8.1933 C.ar      14 UNK        -0.0930 
     13 C13       -53.9196  -28.6448    8.8206 C.ar      14 UNK        -0.0827 
     14 C14       -52.8313  -29.4910    8.5859 C.ar      14 UNK        -0.1249 
     15 C15       -55.0311  -29.0886    9.7582 C.3       14 UNK         0.0141 
     16 S16       -54.6954  -28.5691   11.4695 S.3       14 UNK        -0.2313 
     17 C17       -55.9738  -27.2898   11.7176 C.3       14 UNK        -0.0915 
     18 CA        -55.6721  -26.3152   12.8960 C.3       13 UNK         0.0968 
     19 C         -56.7697  -25.2188   13.0479 C.2       13 UNK         0.5732 
     20 N         -57.1296  -24.7994   14.2553 N.am      13 UNK        -0.7310 
     21 O         -57.2863  -24.7130   12.0542 O.2       13 UNK        -0.5035 
     22 N         -55.2987  -27.0011   14.1470 N.am      13 UNK        -0.4233 
     23 C         -56.0488  -27.8514   14.8578 C.2       13 UNK         0.4989 
     24 O         -57.2104  -28.1475   14.5725 O.2       13 UNK        -0.4996 
     25 CA        -55.3710  -28.4853   16.0927 C.3       12 UNK         0.0216 
     26 CB        -56.2946  -29.4676   16.8385 C.3       12 UNK        -0.1964 
     27 N         -54.1209  -29.1756   15.7510 N.am      12 UNK        -0.4276 
     28 C         -52.9523  -28.5721   15.5044 C.2       12 UNK         0.5020 
     29 O         -52.7966  -27.3496   15.5474 O.2       12 UNK        -0.5489 
     30 CA        -51.7758  -29.4672   15.1053 C.3       11 UNK         0.0294 
     31 CB        -51.9684  -30.0272   13.6836 C.3       11 UNK        -0.2019 
     32 N         -50.5580  -28.6636   15.1578 N.am      11 UNK        -0.4493 
     33 C         -49.3140  -29.1340   15.2884 C.2       11 UNK         0.4932 
     34 O         -49.0502  -30.3326   15.3917 O.2       11 UNK        -0.5029 
     35 CA        -48.1588  -28.1170   15.2878 C.3       10 UNK         0.0280 
     36 CB        -47.3313  -28.2550   13.9994 C.3       10 UNK        -0.1976 
     37 N         -48.5943  -26.7227   15.4391 N.am      10 UNK        -0.4242 
     38 C         -48.7851  -26.1174   16.6206 C.2       10 UNK         0.5072 
     39 O         -48.6667  -26.6826   17.7084 O.2       10 UNK        -0.5224 
     40 CA        -49.1698  -24.6316   16.5849 C.3       9 UNK         0.0343 
     41 CB        -47.9595  -23.7594   16.2082 C.3       9 UNK        -0.2003 
     42 N         -50.2562  -24.3983   15.6346 N.am      9 UNK        -0.4272 
     43 C         -51.5467  -24.2651   15.9716 C.2       9 UNK         0.4988 
     44 O         -51.9503  -24.2680   17.1366 O.2       9 UNK        -0.5108 
     45 CA        -52.5551  -24.1058   14.8165 C.3       8 UNK         0.0248 
     46 CB        -53.8983  -23.4891   15.2607 C.3       8 UNK        -0.2001 
     47 N         -52.0075  -23.4062   13.6526 N.am      8 UNK        -0.4140 
     48 C         -51.6092  -22.1276   13.5727 C.2       8 UNK         0.5028 
     49 O         -51.6533  -21.3354   14.5149 O.2       8 UNK        -0.5428 
     50 CA        -51.0516  -21.6365   12.2203 C.3       7 UNK         0.0264 
     51 CB        -49.5723  -21.2415   12.3658 C.3       7 UNK        -0.1988 
     52 N         -51.1689  -22.6091   11.1300 N.am      7 UNK        -0.4454 
     53 C         -52.3086  -22.9890   10.5328 C.2       7 UNK         0.5027 
     54 O         -53.4124  -22.5076   10.7881 O.2       7 UNK        -0.5083 
     55 CA        -52.1857  -24.1295    9.5001 C.3       6 UNK         0.0844 
     56 C56       -51.8274  -23.5196    8.1190 C.3       14 UNK        -0.0967 
     57 S57       -51.4520  -24.7052    6.7893 S.3       14 UNK        -0.2604 
     58 C58       -53.0064  -25.6436    6.6251 C.3       14 UNK         0.0134 
     59 N         -51.2567  -25.1777    9.9526 N.am      6 UNK        -0.4116 
     60 C         -51.4081  -25.9016   11.0753 C.2       5 UNK         0.5034 
     61 O         -52.3621  -25.7825   11.8402 O.2       5 UNK        -0.5045 
     62 CA        -50.2635  -26.8443   11.4751 C.3       5 UNK         0.0224 
     63 CB        -50.3320  -28.1707   10.7162 C.3       5 UNK        -0.1978 
     64 N         -48.9609  -26.2179   11.2596 N.am      5 UNK        -0.4737 
     65 C         -48.4536  -25.2804   12.0715 C.2       4 UNK         0.5027 
     66 O         -48.9723  -24.9673   13.1439 O.2       4 UNK        -0.5211 
     67 CA        -47.1666  -24.5670   11.6189 C.3       4 UNK         0.0297 
     68 CB        -45.9371  -25.2110   12.2759 C.3       4 UNK        -0.1993 
     69 N         -46.9910  -24.5541   10.1640 N.am      4 UNK        -0.4486 
     70 C         -47.8242  -23.9580    9.2994 C.2       3 UNK         0.4961 
     71 O         -48.7861  -23.2751    9.6497 O.2       3 UNK        -0.5105 
     72 CA        -47.5785  -24.1918    7.7979 C.3       3 UNK         0.0299 
     73 CB        -46.9243  -22.9534    7.1660 C.3       3 UNK        -0.1972 
     74 N         -46.7726  -25.3795    7.4876 N.am      3 UNK        -0.4305 
     75 C         -47.1211  -26.6497    7.7415 C.2       2 UNK         0.5006 
     76 O         -48.1507  -26.9788    8.3339 O.2       2 UNK        -0.5106 
     77 CA        -46.0857  -27.7175    7.3449 C.3       2 UNK         0.0296 
     78 CB        -45.2404  -28.1032    8.5707 C.3       2 UNK        -0.2002 
     79 N         -46.6535  -28.9361    6.7579 N.am      2 UNK        -0.4032 
     80 C         -47.4294  -29.0002    5.6645 C.2       1 UNK         0.5000 
     81 O         -47.8404  -28.0148    5.0497 O.2       1 UNK        -0.5238 
     82 H82       -46.5575  -29.6812    2.6114 H         1 UNK         0.0889 
     83 H83       -45.3513  -28.7851    3.5505 H         1 UNK         0.0889 
     84 H84       -44.8503  -29.8600    2.2500 H         1 UNK         0.0889 
     85 H85       -46.3289  -31.9503    5.5246 H         1 UNK         0.3028 
     86 H86       -48.1565  -30.2884    4.1143 H         1 UNK         0.0864 
     87 H87       -48.7316  -32.2632    5.5826 H         1 UNK         0.0720 
     88 H88       -48.3590  -31.3149    6.9891 H         1 UNK         0.0720 
     89 H89       -49.6735  -29.3520    7.7942 H         1 UNK         0.0814 
     90 H90       -50.5546  -30.7818    8.2793 H         1 UNK         0.0814 
     91 H91       -51.0538  -27.5392    6.4614 H         1 UNK         0.1469 
     92 H92       -54.8129  -26.7401    8.3749 H         1 UNK         0.1381 
     93 H93       -52.7802  -30.4489    9.0854 H         1 UNK         0.1206 
     94 H94       -55.1226  -30.1756    9.7367 H         1 UNK         0.0813 
     95 H95       -55.9928  -28.7022    9.4177 H         1 UNK         0.0813 
     96 H96       -56.9309  -27.7912   11.8694 H         1 UNK         0.0638 
     97 H97       -56.0668  -26.7244   10.7888 H         1 UNK         0.0638 
     98 H98       -54.7839  -25.7508   12.6183 H         1 UNK         0.0568 
     99 H99       -57.8340  -24.0838   14.3378 H         1 UNK         0.3450 
    100 H100      -56.7221  -25.2060   15.0805 H         1 UNK         0.3450 
    101 H101      -54.3475  -26.8493   14.4684 H         1 UNK         0.2987 
    102 H102      -55.1390  -27.6684   16.7798 H         1 UNK         0.0766 
    103 H103      -57.2159  -28.9759   17.1540 H         1 UNK         0.0798 
    104 H104      -56.5753  -30.3148   16.2113 H         1 UNK         0.0798 
    105 H105      -55.8164  -29.8583   17.7370 H         1 UNK         0.0798 
    106 H106      -54.1774  -30.1793   15.6518 H         1 UNK         0.3198 
    107 H107      -51.7028  -30.2854   15.8251 H         1 UNK         0.0843 
    108 H108      -52.8547  -30.6594   13.6211 H         1 UNK         0.0831 
    109 H109      -51.1182  -30.6332   13.3705 H         1 UNK         0.0831 
    110 H110      -52.0925  -29.2239   12.9577 H         1 UNK         0.0831 
    111 H111      -50.7278  -27.6651   15.1679 H         1 UNK         0.3133 
    112 H112      -47.5057  -28.3749   16.1243 H         1 UNK         0.0566 
    113 H113      -46.4772  -27.5791   14.0030 H         1 UNK         0.0814 
    114 H114      -46.9364  -29.2668   13.8971 H         1 UNK         0.0814 
    115 H115      -47.9269  -28.0529   13.1101 H         1 UNK         0.0814 
    116 H116      -48.7129  -26.1752   14.5909 H         1 UNK         0.3091 
    117 H117      -49.4815  -24.3436   17.5912 H         1 UNK         0.0702 
    118 H118      -48.2179  -22.7005   16.2269 H         1 UNK         0.0785 
    119 H119      -47.5780  -23.9899   15.2133 H         1 UNK         0.0785 
    120 H120      -47.1402  -23.9057   16.9133 H         1 UNK         0.0785 
    121 H121      -50.0004  -24.4068   14.6506 H         1 UNK         0.2998 
    122 H122      -52.7679  -25.1103   14.4572 H         1 UNK         0.0697 
    123 H123      -53.7612  -22.5112   15.7229 H         1 UNK         0.0825 
    124 H124      -54.3957  -24.1273   15.9918 H         1 UNK         0.0825 
    125 H125      -54.5777  -23.3684   14.4174 H         1 UNK         0.0825 
    126 H126      -51.9321  -23.9786   12.8197 H         1 UNK         0.3029 
    127 H127      -51.6209  -20.7478   11.9402 H         1 UNK         0.0897 
    128 H128      -49.1579  -20.8856   11.4222 H         1 UNK         0.0792 
    129 H129      -49.4510  -20.4401   13.0958 H         1 UNK         0.0792 
    130 H130      -48.9668  -22.0822   12.7043 H         1 UNK         0.0792 
    131 H131      -50.2980  -23.0048   10.7815 H         1 UNK         0.3086 
    132 H132      -53.1680  -24.5990    9.4189 H         1 UNK         0.0583 
    133 H133      -52.6409  -22.8781    7.7740 H         1 UNK         0.1020 
    134 H134      -50.9573  -22.8653    8.2019 H         1 UNK         0.1020 
    135 H135      -53.8432  -25.0433    6.9850 H         1 UNK         0.0694 
    136 H136      -53.1910  -25.8239    5.5654 H         1 UNK         0.0694 
    137 H137      -50.4386  -25.3258    9.3802 H         1 UNK         0.2989 
    138 H138      -50.3807  -27.0666   12.5383 H         1 UNK         0.1055 
    139 H139      -51.3148  -28.6308   10.8193 H         1 UNK         0.0806 
    140 H140      -49.5941  -28.8825   11.0860 H         1 UNK         0.0806 
    141 H141      -50.1520  -28.0178    9.6550 H         1 UNK         0.0806 
    142 H142      -48.4908  -26.4283   10.3855 H         1 UNK         0.3061 
    143 H143      -47.2304  -23.5310   11.9561 H         1 UNK         0.0734 
    144 H144      -46.0298  -25.2076   13.3629 H         1 UNK         0.0832 
    145 H145      -45.8049  -26.2466   11.9600 H         1 UNK         0.0832 
    146 H146      -45.0252  -24.6660   12.0314 H         1 UNK         0.0832 
    147 H147      -46.2186  -25.0850    9.7904 H         1 UNK         0.3156 
    148 H148      -48.5553  -24.3326    7.3330 H         1 UNK         0.0589 
    149 H149      -45.9278  -22.7709    7.5703 H         1 UNK         0.0808 
    150 H150      -46.8365  -23.0581    6.0844 H         1 UNK         0.0808 
    151 H151      -47.5207  -22.0591    7.3538 H         1 UNK         0.0808 
    152 H152      -45.8944  -25.2082    7.0185 H         1 UNK         0.3098 
    153 H153      -45.4211  -27.2891    6.5918 H         1 UNK         0.0720 
    154 H154      -44.4453  -28.7997    8.3036 H         1 UNK         0.0791 
    155 H155      -45.8486  -28.5689    9.3477 H         1 UNK         0.0791 
    156 H156      -44.7627  -27.2276    9.0125 H         1 UNK         0.0791 
    157 H157      -46.3644  -29.8051    7.1816 H         1 UNK         0.3028 
@<TRIPOS>BOND
     1    1    2 1    
     2    1   82 1    
     3    1   83 1    
     4    1   84 1    
     5    2    3 2    
     6    2    4 am   BACKBONE|DICT|INTERRES
     7    4    5 1    
     8    4   85 1    
     9    5    6 1    
    10    5   80 1    
    11    5   86 1    
    12    6    7 1    
    13    6   87 1    
    14    6   88 1    
    15    7    8 1    
    16    8    9 1    
    17    8   89 1    
    18    8   90 1    
    19    9   10 ar   
    20    9   14 ar   
    21   10   11 ar   
    22   10   91 1    
    23   11   12 ar   
    24   11   58 1    
    25   12   13 ar   
    26   12   92 1    
    27   13   14 ar   
    28   13   15 1    
    29   14   93 1    
    30   15   16 1    
    31   15   94 1    
    32   15   95 1    
    33   16   17 1    
    34   17   18 1    
    35   17   96 1    
    36   17   97 1    
    37   18   19 1    
    38   18   22 1    
    39   18   98 1    
    40   19   20 am   BACKBONE|DICT|INTERRES
    41   19   21 2    
    42   20   99 1    
    43   20  100 1    
    44   22   23 am   BACKBONE|DICT|INTERRES
    45   22  101 1    
    46   23   24 2    
    47   23   25 1    
    48   25   26 1    
    49   25   27 1    
    50   25  102 1    
    51   26  103 1    
    52   26  104 1    
    53   26  105 1    
    54   27   28 am   BACKBONE|DICT|INTERRES
    55   27  106 1    
    56   28   29 2    
    57   28   30 1    
    58   30   31 1    
    59   30   32 1    
    60   30  107 1    
    61   31  108 1    
    62   31  109 1    
    63   31  110 1    
    64   32   33 am   BACKBONE|DICT|INTERRES
    65   32  111 1    
    66   33   34 2    
    67   33   35 1    
    68   35   36 1    
    69   35   37 1    
    70   35  112 1    
    71   36  113 1    
    72   36  114 1    
    73   36  115 1    
    74   37   38 am   BACKBONE|DICT|INTERRES
    75   37  116 1    
    76   38   39 2    
    77   38   40 1    
    78   40   41 1    
    79   40   42 1    
    80   40  117 1    
    81   41  118 1    
    82   41  119 1    
    83   41  120 1    
    84   42   43 am   BACKBONE|DICT|INTERRES
    85   42  121 1    
    86   43   44 2    
    87   43   45 1    
    88   45   46 1    
    89   45   47 1    
    90   45  122 1    
    91   46  123 1    
    92   46  124 1    
    93   46  125 1    
    94   47   48 am   BACKBONE|DICT|INTERRES
    95   47  126 1    
    96   48   49 2    
    97   48   50 1    
    98   50   51 1    
    99   50   52 1    
   100   50  127 1    
   101   51  128 1    
   102   51  129 1    
   103   51  130 1    
   104   52   53 am   BACKBONE|DICT|INTERRES
   105   52  131 1    
   106   53   54 2    
   107   53   55 1    
   108   55   56 1    
   109   55   59 1    
   110   55  132 1    
   111   56   57 1    
   112   56  133 1    
   113   56  134 1    
   114   57   58 1    
   115   58  135 1    
   116   58  136 1    
   117   59   60 am   BACKBONE|DICT|INTERRES
   118   59  137 1    
   119   60   61 2    
   120   60   62 1    
   121   62   63 1    
   122   62   64 1    
   123   62  138 1    
   124   63  139 1    
   125   63  140 1    
   126   63  141 1    
   127   64   65 am   BACKBONE|DICT|INTERRES
   128   64  142 1    
   129   65   66 2    
   130   65   67 1    
   131   67   68 1    
   132   67   69 1    
   133   67  143 1    
   134   68  144 1    
   135   68  145 1    
   136   68  146 1    
   137   69   70 am   BACKBONE|DICT|INTERRES
   138   69  147 1    
   139   70   71 2    
   140   70   72 1    
   141   72   73 1    
   142   72   74 1    
   143   72  148 1    
   144   73  149 1    
   145   73  150 1    
   146   73  151 1    
   147   74   75 am   BACKBONE|DICT|INTERRES
   148   74  152 1    
   149   75   76 2    
   150   75   77 1    
   151   77   78 1    
   152   77   79 1    
   153   77  153 1    
   154   78  154 1    
   155   78  155 1    
   156   78  156 1    
   157   79   80 am   BACKBONE|DICT|INTERRES
   158   79  157 1    
   159   80   81 2    
@<TRIPOS>SUBSTRUCTURE
     1 UNK         1 GROUP             0       ****    0 ROOT    
