@<TRIPOS>MOLECULE
3R207
157   159    1
SMALL
USER_CHARGES


@<TRIPOS>ATOM
      1 CA        -50.7331  -24.6163    1.6050 C.3       0 UNK        -0.1975 
      2 C         -50.6793  -26.0902    2.0003 C.2       0 UNK         0.4852 
      3 O         -50.6091  -26.9444    1.1184 O.2       0 UNK        -0.5216 
      4 N         -50.7208  -26.4486    3.2922 N.am      1 UNK        -0.4461 
      5 CA        -50.7259  -25.5750    4.4732 C.3       1 UNK         0.0864 
      6 C6        -51.0493  -26.3591    5.7751 C.3       14 UNK        -0.0898 
      7 S7        -50.0259  -27.8604    6.0157 S.3       14 UNK        -0.2598 
      8 C8        -51.2713  -29.1095    6.4586 C.3       14 UNK         0.0286 
      9 C9        -51.5681  -29.0892    7.9501 C.ar      14 UNK        -0.0844 
     10 C10       -50.8439  -29.9125    8.8156 C.ar      14 UNK        -0.0881 
     11 C11       -51.1207  -29.9233   10.1846 C.ar      14 UNK        -0.0643 
     12 C12       -52.1187  -29.0845   10.6898 C.ar      14 UNK        -0.0930 
     13 C13       -52.8597  -28.2545    9.8338 C.ar      14 UNK        -0.0827 
     14 C14       -52.5727  -28.2658    8.4649 C.ar      14 UNK        -0.1249 
     15 C15       -53.9660  -27.3205   10.3332 C.3       14 UNK         0.0141 
     16 S16       -54.6550  -27.7311   11.9710 S.3       14 UNK        -0.2313 
     17 C17       -55.5133  -29.3020   11.6066 C.3       14 UNK        -0.0915 
     18 CA        -56.8906  -29.3863   12.3097 C.3       13 UNK         0.0968 
     19 C         -57.6593  -30.6657   11.8842 C.2       13 UNK         0.5732 
     20 N         -58.4153  -30.5995   10.7967 N.am      13 UNK        -0.7310 
     21 O         -57.5486  -31.7232   12.5029 O.2       13 UNK        -0.5035 
     22 N         -56.7276  -29.2862   13.7620 N.am      13 UNK        -0.4233 
     23 C         -57.6894  -29.0550   14.6564 C.2       13 UNK         0.4989 
     24 O         -58.8732  -28.8854   14.3611 O.2       13 UNK        -0.4996 
     25 CA        -57.2629  -28.9552   16.1339 C.3       12 UNK         0.0216 
     26 CB        -57.4019  -30.3172   16.8422 C.3       12 UNK        -0.1964 
     27 N         -55.9318  -28.3625   16.3573 N.am      12 UNK        -0.4276 
     28 C         -54.7189  -28.8442   16.0508 C.2       12 UNK         0.5020 
     29 O         -54.5320  -29.9102   15.4611 O.2       12 UNK        -0.5489 
     30 CA        -53.5202  -27.9558   16.4305 C.3       11 UNK         0.0294 
     31 CB        -52.1982  -28.7436   16.4700 C.3       11 UNK        -0.2019 
     32 N         -53.3600  -26.8235   15.5177 N.am      11 UNK        -0.4493 
     33 C         -54.1552  -25.7482   15.4471 C.2       11 UNK         0.4932 
     34 O         -55.1776  -25.6031   16.1216 O.2       11 UNK        -0.5029 
     35 CA        -53.6692  -24.6311   14.5047 C.3       10 UNK         0.0280 
     36 CB        -54.6187  -23.4164   14.4502 C.3       10 UNK        -0.1976 
     37 N         -52.2991  -24.2252   14.8424 N.am      10 UNK        -0.4242 
     38 C         -51.8575  -23.7337   16.0122 C.2       10 UNK         0.5072 
     39 O         -52.5889  -23.4066   16.9478 O.2       10 UNK        -0.5224 
     40 CA        -50.3336  -23.6201   16.1989 C.3       9 UNK         0.0343 
     41 CB        -49.8228  -24.8041   17.0368 C.3       9 UNK        -0.2003 
     42 N         -49.5886  -23.5686   14.9387 N.am      9 UNK        -0.4272 
     43 C         -49.5371  -22.4967   14.1347 C.2       9 UNK         0.4988 
     44 O         -50.0672  -21.4165   14.3973 O.2       9 UNK        -0.5108 
     45 CA        -48.7876  -22.6632   12.8020 C.3       8 UNK         0.0248 
     46 CB        -47.2698  -22.5316   13.0071 C.3       8 UNK        -0.2001 
     47 N         -49.0832  -23.9343   12.1380 N.am      8 UNK        -0.4140 
     48 C         -50.2886  -24.3044   11.6823 C.2       8 UNK         0.5028 
     49 O         -51.2944  -23.5974   11.7388 O.2       8 UNK        -0.5428 
     50 CA        -50.4010  -25.7211   11.1050 C.3       7 UNK         0.0264 
     51 CB        -49.8847  -25.7797    9.6586 C.3       7 UNK        -0.1988 
     52 N         -49.6950  -26.7006   11.9276 N.am      7 UNK        -0.4454 
     53 C         -50.1258  -27.1401   13.1182 C.2       7 UNK         0.5027 
     54 O         -51.1802  -26.7811   13.6445 O.2       7 UNK        -0.5083 
     55 CA        -49.2150  -28.1323   13.8674 C.3       6 UNK         0.0844 
     56 C56       -49.5350  -29.6001   13.4928 C.3       14 UNK        -0.0967 
     57 S57       -48.9014  -30.1128   11.8532 S.3       14 UNK        -0.2604 
     58 C58       -50.3693  -30.8806   11.0989 C.3       14 UNK         0.0134 
     59 N         -47.7912  -27.8216   13.7188 N.am      6 UNK        -0.4116 
     60 C         -47.1920  -26.7132   14.1720 C.2       5 UNK         0.5034 
     61 O         -47.7668  -25.8274   14.8031 O.2       5 UNK        -0.5045 
     62 CA        -45.7094  -26.5384   13.8030 C.3       5 UNK         0.0224 
     63 CB        -44.8120  -27.3327   14.7651 C.3       5 UNK        -0.1978 
     64 N         -45.4022  -26.9103   12.4151 N.am      5 UNK        -0.4737 
     65 C         -45.9647  -26.3397   11.3421 C.2       4 UNK         0.5027 
     66 O         -46.8491  -25.4842   11.4124 O.2       4 UNK        -0.5211 
     67 CA        -45.5028  -26.8347    9.9642 C.3       4 UNK         0.0297 
     68 CB        -46.3689  -28.0204    9.5068 C.3       4 UNK        -0.1993 
     69 N         -45.6212  -25.7567    8.9846 N.am      4 UNK        -0.4486 
     70 C         -44.8068  -24.7007    8.8897 C.2       3 UNK         0.4961 
     71 O         -43.7355  -24.6160    9.4938 O.2       3 UNK        -0.5105 
     72 CA        -45.2788  -23.5434    7.9787 C.3       3 UNK         0.0299 
     73 CB        -44.2417  -22.4084    7.8803 C.3       3 UNK        -0.1972 
     74 N         -45.6526  -23.9607    6.6210 N.am      3 UNK        -0.4305 
     75 C         -46.7479  -24.6550    6.2856 C.2       2 UNK         0.5006 
     76 O         -47.5603  -25.0792    7.1116 O.2       2 UNK        -0.5106 
     77 CA        -46.9397  -24.9483    4.7844 C.3       2 UNK         0.0296 
     78 CB        -45.9081  -25.9803    4.2961 C.3       2 UNK        -0.2002 
     79 N         -48.2798  -25.4618    4.4959 N.am      2 UNK        -0.4032 
     80 C         -49.4193  -24.7672    4.6164 C.2       1 UNK         0.5000 
     81 O         -49.4709  -23.5505    4.8071 O.2       1 UNK        -0.5238 
     82 H82       -51.4663  -24.0639    2.1908 H         1 UNK         0.0889 
     83 H83       -51.0150  -24.5166    0.5570 H         1 UNK         0.0889 
     84 H84       -49.7567  -24.1498    1.7316 H         1 UNK         0.0889 
     85 H85       -50.6916  -27.4348    3.5096 H         1 UNK         0.3028 
     86 H86       -51.5297  -24.8486    4.3410 H         1 UNK         0.0864 
     87 H87       -52.1014  -26.6449    5.7561 H         1 UNK         0.0720 
     88 H88       -50.9409  -25.7209    6.6540 H         1 UNK         0.0720 
     89 H89       -50.8928  -30.0920    6.1726 H         1 UNK         0.0814 
     90 H90       -52.1849  -28.9638    5.8806 H         1 UNK         0.0814 
     91 H91       -50.0696  -30.5560    8.4205 H         1 UNK         0.1469 
     92 H92       -52.3155  -29.0911   11.7519 H         1 UNK         0.1381 
     93 H93       -53.1335  -27.6285    7.7951 H         1 UNK         0.1206 
     94 H94       -54.7854  -27.3043    9.6129 H         1 UNK         0.0813 
     95 H95       -53.5796  -26.3023   10.3681 H         1 UNK         0.0813 
     96 H96       -54.8686  -30.1262   11.9179 H         1 UNK         0.0638 
     97 H97       -55.6342  -29.3995   10.5262 H         1 UNK         0.0638 
     98 H98       -57.4849  -28.5262   11.9947 H         1 UNK         0.0568 
     99 H99       -58.5049  -29.7419   10.2744 H         1 UNK         0.3450 
    100 H100      -58.9117  -31.4233   10.4953 H         1 UNK         0.3450 
    101 H101      -55.7982  -29.4804   14.1230 H         1 UNK         0.2987 
    102 H102      -57.9665  -28.2689   16.6078 H         1 UNK         0.0766 
    103 H103      -56.7461  -31.0724   16.4079 H         1 UNK         0.0798 
    104 H104      -58.4227  -30.6934   16.7625 H         1 UNK         0.0798 
    105 H105      -57.1674  -30.2386   17.9037 H         1 UNK         0.0798 
    106 H106      -55.9443  -27.4054   16.6989 H         1 UNK         0.3198 
    107 H107      -53.7024  -27.5645   17.4339 H         1 UNK         0.0843 
    108 H108      -51.9370  -29.1372   15.4877 H         1 UNK         0.0831 
    109 H109      -52.2695  -29.5915   17.1525 H         1 UNK         0.0831 
    110 H110      -51.3731  -28.1191   16.8127 H         1 UNK         0.0831 
    111 H111      -52.5632  -26.8589   14.8838 H         1 UNK         0.3133 
    112 H112      -53.6246  -25.0620   13.5031 H         1 UNK         0.0566 
    113 H113      -55.6097  -23.7154   14.1069 H         1 UNK         0.0814 
    114 H114      -54.7420  -22.9487   15.4273 H         1 UNK         0.0814 
    115 H115      -54.2497  -22.6586   13.7590 H         1 UNK         0.0814 
    116 H116      -51.6016  -24.4782   14.1549 H         1 UNK         0.3091 
    117 H117      -50.1365  -22.7001   16.7533 H         1 UNK         0.0702 
    118 H118      -48.7549  -24.7168   17.2379 H         1 UNK         0.0785 
    119 H119      -49.9919  -25.7561   16.5314 H         1 UNK         0.0785 
    120 H120      -50.3315  -24.8514   18.0006 H         1 UNK         0.0785 
    121 H121      -49.0583  -24.4001   14.6900 H         1 UNK         0.2998 
    122 H122      -49.1124  -21.8614   12.1358 H         1 UNK         0.0697 
    123 H123      -46.8795  -23.3226   13.6483 H         1 UNK         0.0825 
    124 H124      -47.0193  -21.5779   13.4734 H         1 UNK         0.0825 
    125 H125      -46.7361  -22.5801   12.0576 H         1 UNK         0.0825 
    126 H126      -48.2970  -24.5674   11.9925 H         1 UNK         0.3029 
    127 H127      -51.4569  -25.9901   11.0997 H         1 UNK         0.0897 
    128 H128      -48.8290  -25.5175    9.5893 H         1 UNK         0.0792 
    129 H129      -50.4326  -25.0837    9.0228 H         1 UNK         0.0792 
    130 H130      -50.0111  -26.7748    9.2313 H         1 UNK         0.0792 
    131 H131      -48.8016  -27.0234   11.5864 H         1 UNK         0.3086 
    132 H132      -49.4487  -28.0145   14.9279 H         1 UNK         0.0583 
    133 H133      -49.0878  -30.2630   14.2352 H         1 UNK         0.1020 
    134 H134      -50.6089  -29.7826   13.5594 H         1 UNK         0.1020 
    135 H135      -50.0399  -31.7486   10.5256 H         1 UNK         0.0694 
    136 H136      -51.0364  -31.2756   11.8663 H         1 UNK         0.0694 
    137 H137      -47.2456  -28.4849   13.1881 H         1 UNK         0.2989 
    138 H138      -45.4743  -25.4777   13.9163 H         1 UNK         0.1055 
    139 H139      -45.0164  -27.0616   15.8021 H         1 UNK         0.0806 
    140 H140      -43.7566  -27.1291   14.5828 H         1 UNK         0.0806 
    141 H141      -44.9677  -28.4083   14.6729 H         1 UNK         0.0806 
    142 H142      -44.6900  -27.6140   12.2778 H         1 UNK         0.3061 
    143 H143      -44.4592  -27.1508   10.0231 H         1 UNK         0.0734 
    144 H144      -46.0537  -28.3870    8.5298 H         1 UNK         0.0832 
    145 H145      -46.2939  -28.8555   10.2046 H         1 UNK         0.0832 
    146 H146      -47.4236  -27.7502    9.4352 H         1 UNK         0.0832 
    147 H147      -46.4911  -25.7058    8.4576 H         1 UNK         0.3156 
    148 H148      -46.1697  -23.1266    8.4538 H         1 UNK         0.0589 
    149 H149      -43.3152  -22.7478    7.4156 H         1 UNK         0.0808 
    150 H150      -44.6234  -21.5695    7.2981 H         1 UNK         0.0808 
    151 H151      -43.9887  -22.0217    8.8686 H         1 UNK         0.0808 
    152 H152      -45.0164  -23.6888    5.8852 H         1 UNK         0.3098 
    153 H153      -46.8035  -24.0163    4.2319 H         1 UNK         0.0720 
    154 H154      -46.0316  -26.1920    3.2337 H         1 UNK         0.0791 
    155 H155      -45.9953  -26.9234    4.8379 H         1 UNK         0.0791 
    156 H156      -44.8879  -25.6198    4.4330 H         1 UNK         0.0791 
    157 H157      -48.3611  -26.4619    4.3817 H         1 UNK         0.3028 
@<TRIPOS>BOND
     1    1    2 1    
     2    1   82 1    
     3    1   83 1    
     4    1   84 1    
     5    2    3 2    
     6    2    4 am   BACKBONE|DICT|INTERRES
     7    4    5 1    
     8    4   85 1    
     9    5    6 1    
    10    5   80 1    
    11    5   86 1    
    12    6    7 1    
    13    6   87 1    
    14    6   88 1    
    15    7    8 1    
    16    8    9 1    
    17    8   89 1    
    18    8   90 1    
    19    9   10 ar   
    20    9   14 ar   
    21   10   11 ar   
    22   10   91 1    
    23   11   12 ar   
    24   11   58 1    
    25   12   13 ar   
    26   12   92 1    
    27   13   14 ar   
    28   13   15 1    
    29   14   93 1    
    30   15   16 1    
    31   15   94 1    
    32   15   95 1    
    33   16   17 1    
    34   17   18 1    
    35   17   96 1    
    36   17   97 1    
    37   18   19 1    
    38   18   22 1    
    39   18   98 1    
    40   19   20 am   BACKBONE|DICT|INTERRES
    41   19   21 2    
    42   20   99 1    
    43   20  100 1    
    44   22   23 am   BACKBONE|DICT|INTERRES
    45   22  101 1    
    46   23   24 2    
    47   23   25 1    
    48   25   26 1    
    49   25   27 1    
    50   25  102 1    
    51   26  103 1    
    52   26  104 1    
    53   26  105 1    
    54   27   28 am   BACKBONE|DICT|INTERRES
    55   27  106 1    
    56   28   29 2    
    57   28   30 1    
    58   30   31 1    
    59   30   32 1    
    60   30  107 1    
    61   31  108 1    
    62   31  109 1    
    63   31  110 1    
    64   32   33 am   BACKBONE|DICT|INTERRES
    65   32  111 1    
    66   33   34 2    
    67   33   35 1    
    68   35   36 1    
    69   35   37 1    
    70   35  112 1    
    71   36  113 1    
    72   36  114 1    
    73   36  115 1    
    74   37   38 am   BACKBONE|DICT|INTERRES
    75   37  116 1    
    76   38   39 2    
    77   38   40 1    
    78   40   41 1    
    79   40   42 1    
    80   40  117 1    
    81   41  118 1    
    82   41  119 1    
    83   41  120 1    
    84   42   43 am   BACKBONE|DICT|INTERRES
    85   42  121 1    
    86   43   44 2    
    87   43   45 1    
    88   45   46 1    
    89   45   47 1    
    90   45  122 1    
    91   46  123 1    
    92   46  124 1    
    93   46  125 1    
    94   47   48 am   BACKBONE|DICT|INTERRES
    95   47  126 1    
    96   48   49 2    
    97   48   50 1    
    98   50   51 1    
    99   50   52 1    
   100   50  127 1    
   101   51  128 1    
   102   51  129 1    
   103   51  130 1    
   104   52   53 am   BACKBONE|DICT|INTERRES
   105   52  131 1    
   106   53   54 2    
   107   53   55 1    
   108   55   56 1    
   109   55   59 1    
   110   55  132 1    
   111   56   57 1    
   112   56  133 1    
   113   56  134 1    
   114   57   58 1    
   115   58  135 1    
   116   58  136 1    
   117   59   60 am   BACKBONE|DICT|INTERRES
   118   59  137 1    
   119   60   61 2    
   120   60   62 1    
   121   62   63 1    
   122   62   64 1    
   123   62  138 1    
   124   63  139 1    
   125   63  140 1    
   126   63  141 1    
   127   64   65 am   BACKBONE|DICT|INTERRES
   128   64  142 1    
   129   65   66 2    
   130   65   67 1    
   131   67   68 1    
   132   67   69 1    
   133   67  143 1    
   134   68  144 1    
   135   68  145 1    
   136   68  146 1    
   137   69   70 am   BACKBONE|DICT|INTERRES
   138   69  147 1    
   139   70   71 2    
   140   70   72 1    
   141   72   73 1    
   142   72   74 1    
   143   72  148 1    
   144   73  149 1    
   145   73  150 1    
   146   73  151 1    
   147   74   75 am   BACKBONE|DICT|INTERRES
   148   74  152 1    
   149   75   76 2    
   150   75   77 1    
   151   77   78 1    
   152   77   79 1    
   153   77  153 1    
   154   78  154 1    
   155   78  155 1    
   156   78  156 1    
   157   79   80 am   BACKBONE|DICT|INTERRES
   158   79  157 1    
   159   80   81 2    
@<TRIPOS>SUBSTRUCTURE
     1 UNK         1 GROUP             0       ****    0 ROOT    
