@<TRIPOS>MOLECULE
3R207
157   159    1
SMALL
USER_CHARGES


@<TRIPOS>ATOM
      1 CA        -53.8421  -21.6096   10.2733 C.3       0 UNK        -0.1975 
      2 C         -52.6792  -22.5528   10.5396 C.2       0 UNK         0.4852 
      3 O         -51.9128  -22.3302   11.4752 O.2       0 UNK        -0.5216 
      4 N         -52.5341  -23.6024    9.7197 N.am      1 UNK        -0.4461 
      5 CA        -51.4618  -24.6019    9.8184 C.3       1 UNK         0.0864 
      6 C6        -51.9212  -25.9809    9.2937 C.3       14 UNK        -0.0898 
      7 S7        -52.3522  -26.0060    7.5194 S.3       14 UNK        -0.2598 
      8 C8        -53.2362  -27.6011    7.3971 C.3       14 UNK         0.0286 
      9 C9        -52.4633  -28.7876    7.9721 C.ar      14 UNK        -0.0844 
     10 C10       -51.0875  -28.9290    7.7568 C.ar      14 UNK        -0.0881 
     11 C11       -50.3814  -29.9908    8.3275 C.ar      14 UNK        -0.0643 
     12 C12       -51.0696  -30.9521    9.0723 C.ar      14 UNK        -0.0930 
     13 C13       -52.4455  -30.8323    9.2872 C.ar      14 UNK        -0.0827 
     14 C14       -53.1355  -29.7476    8.7360 C.ar      14 UNK        -0.1249 
     15 C15       -53.1815  -31.8750   10.1184 C.3       14 UNK         0.0141 
     16 S16       -52.6838  -31.8378   11.8714 S.3       14 UNK        -0.2313 
     17 C17       -53.4339  -30.2776   12.4468 C.3       14 UNK        -0.0915 
     18 CA        -54.7123  -30.4849   13.2995 C.3       13 UNK         0.0968 
     19 C         -54.4020  -31.0354   14.7219 C.2       13 UNK         0.5732 
     20 N         -54.2581  -30.1904   15.7368 N.am      13 UNK        -0.7310 
     21 O         -54.3235  -32.2462   14.9150 O.2       13 UNK        -0.5035 
     22 N         -55.5310  -29.2656   13.3134 N.am      13 UNK        -0.4233 
     23 C         -56.8247  -29.2311   13.6674 C.2       13 UNK         0.4989 
     24 O         -57.4754  -30.2346   13.9631 O.2       13 UNK        -0.4996 
     25 CA        -57.5316  -27.8615   13.7076 C.3       12 UNK         0.0216 
     26 CB        -57.7276  -27.4073   15.1639 C.3       12 UNK        -0.1964 
     27 N         -56.8224  -26.8100   12.9790 N.am      12 UNK        -0.4276 
     28 C         -56.6833  -26.7408   11.6481 C.2       12 UNK         0.5020 
     29 O         -57.2492  -27.4987   10.8599 O.2       12 UNK        -0.5489 
     30 CA        -55.7277  -25.6592   11.1056 C.3       11 UNK         0.0294 
     31 CB        -56.5228  -24.4852   10.5125 C.3       11 UNK        -0.2019 
     32 N         -54.7724  -25.1469   12.0998 N.am      11 UNK        -0.4493 
     33 C         -53.8271  -25.8809   12.7051 C.2       11 UNK         0.4932 
     34 O         -53.6568  -27.0776   12.4711 O.2       11 UNK        -0.5029 
     35 CA        -52.9505  -25.1474   13.7360 C.3       10 UNK         0.0280 
     36 CB        -53.7853  -24.3683   14.7761 C.3       10 UNK        -0.1976 
     37 N         -51.9844  -26.0299   14.3963 N.am      10 UNK        -0.4242 
     38 C         -52.2068  -27.0306   15.2624 C.2       10 UNK         0.5072 
     39 O         -53.3242  -27.3787   15.6511 O.2       10 UNK        -0.5224 
     40 CA        -50.9626  -27.7651   15.8026 C.3       9 UNK         0.0343 
     41 CB        -50.7519  -29.0999   15.0695 C.3       9 UNK        -0.2003 
     42 N         -49.7415  -26.9654   15.6641 N.am      9 UNK        -0.4272 
     43 C         -49.2222  -26.1683   16.6085 C.2       9 UNK         0.4988 
     44 O         -49.6883  -26.0569   17.7428 O.2       9 UNK        -0.5108 
     45 CA        -47.9647  -25.3571   16.2318 C.3       8 UNK         0.0248 
     46 CB        -46.6932  -26.1389   16.5991 C.3       8 UNK        -0.2001 
     47 N         -47.9088  -24.9907   14.8135 N.am      8 UNK        -0.4140 
     48 C         -48.7436  -24.1240   14.2188 C.2       8 UNK         0.5028 
     49 O         -49.5768  -23.4540   14.8279 O.2       8 UNK        -0.5428 
     50 CA        -48.6771  -24.0172   12.6819 C.3       7 UNK         0.0264 
     51 CB        -47.7954  -22.8316   12.2621 C.3       7 UNK        -0.1988 
     52 N         -48.1935  -25.2311   12.0126 N.am      7 UNK        -0.4454 
     53 C         -48.7073  -26.4637   12.1475 C.2       7 UNK         0.5027 
     54 O         -49.7319  -26.6852   12.7881 O.2       7 UNK        -0.5083 
     55 CA        -47.9443  -27.6640   11.5418 C.3       6 UNK         0.0844 
     56 C56       -48.7534  -28.2908   10.3816 C.3       14 UNK        -0.0967 
     57 S57       -48.0095  -29.8432    9.7697 S.3       14 UNK        -0.2604 
     58 C58       -48.8688  -30.0705    8.1763 C.3       14 UNK         0.0134 
     59 N         -46.5736  -27.3609   11.1271 N.am      6 UNK        -0.4116 
     60 C         -45.5752  -26.8422   11.8549 C.2       5 UNK         0.5034 
     61 O         -45.6599  -26.5993   13.0602 O.2       5 UNK        -0.5045 
     62 CA        -44.2801  -26.4893   11.0909 C.3       5 UNK         0.0224 
     63 CB        -43.1243  -27.3965   11.5431 C.3       5 UNK        -0.1978 
     64 N         -44.4080  -26.5697    9.6256 N.am      5 UNK        -0.4737 
     65 C         -45.2003  -25.7950    8.8691 C.2       4 UNK         0.5027 
     66 O         -45.8487  -24.8482    9.3206 O.2       4 UNK        -0.5211 
     67 CA        -45.3474  -26.1898    7.3899 C.3       4 UNK         0.0297 
     68 CB        -45.3521  -27.7217    7.1750 C.3       4 UNK        -0.1993 
     69 N         -46.5856  -25.6091    6.8755 N.am      4 UNK        -0.4486 
     70 C         -46.8913  -25.4233    5.5849 C.2       3 UNK         0.4961 
     71 O         -46.1511  -25.7453    4.6546 O.2       3 UNK        -0.5105 
     72 CA        -48.2524  -24.7745    5.2621 C.3       3 UNK         0.0299 
     73 CB        -49.2769  -25.8531    4.8732 C.3       3 UNK        -0.1972 
     74 N         -48.7996  -23.9817    6.3642 N.am      3 UNK        -0.4305 
     75 C         -48.2751  -22.8433    6.8365 C.2       2 UNK         0.5006 
     76 O         -47.3124  -22.2787    6.3148 O.2       2 UNK        -0.5106 
     77 CA        -48.9081  -22.2232    8.1008 C.3       2 UNK         0.0296 
     78 CB        -49.2755  -20.7467    7.8683 C.3       2 UNK        -0.2002 
     79 N         -50.0859  -22.9132    8.6432 N.am      2 UNK        -0.4032 
     80 C         -50.1266  -24.1411    9.1823 C.2       1 UNK         0.5000 
     81 O         -49.1663  -24.9114    9.1656 O.2       1 UNK        -0.5238 
     82 H82       -54.3677  -21.8586    9.3517 H         1 UNK         0.0889 
     83 H83       -53.4807  -20.5851   10.1877 H         1 UNK         0.0889 
     84 H84       -54.5552  -21.6499   11.0961 H         1 UNK         0.0889 
     85 H85       -53.1842  -23.7435    8.9582 H         1 UNK         0.3028 
     86 H86       -51.2411  -24.7467   10.8772 H         1 UNK         0.0864 
     87 H87       -52.7872  -26.3186    9.8633 H         1 UNK         0.0720 
     88 H88       -51.1483  -26.7263    9.4813 H         1 UNK         0.0720 
     89 H89       -53.4579  -27.8013    6.3482 H         1 UNK         0.0814 
     90 H90       -54.1980  -27.4951    7.9016 H         1 UNK         0.0814 
     91 H91       -50.5580  -28.1876    7.1757 H         1 UNK         0.1469 
     92 H92       -50.5266  -31.7756    9.5158 H         1 UNK         0.1381 
     93 H93       -54.1985  -29.6472    8.9089 H         1 UNK         0.1206 
     94 H94       -52.9684  -32.8655    9.7140 H         1 UNK         0.0813 
     95 H95       -54.2623  -31.7426   10.0481 H         1 UNK         0.0813 
     96 H96       -53.6683  -29.6712   11.5713 H         1 UNK         0.0638 
     97 H97       -52.6872  -29.7060   12.9978 H         1 UNK         0.0638 
     98 H98       -55.3113  -31.2472   12.7972 H         1 UNK         0.0568 
     99 H99       -54.0806  -30.5594   16.6566 H         1 UNK         0.3450 
    100 H100      -54.2433  -29.1877   15.5875 H         1 UNK         0.3450 
    101 H101      -55.0429  -28.4049   13.0887 H         1 UNK         0.2987 
    102 H102      -58.5147  -27.9879   13.2492 H         1 UNK         0.0766 
    103 H103      -58.2884  -26.4740   15.2183 H         1 UNK         0.0798 
    104 H104      -56.7735  -27.2585   15.6721 H         1 UNK         0.0798 
    105 H105      -58.2863  -28.1514   15.7335 H         1 UNK         0.0798 
    106 H106      -56.3215  -26.1342   13.5363 H         1 UNK         0.3198 
    107 H107      -55.1535  -26.1225   10.3007 H         1 UNK         0.0843 
    108 H108      -57.0813  -23.9455   11.2782 H         1 UNK         0.0831 
    109 H109      -57.2434  -24.8366    9.7724 H         1 UNK         0.0831 
    110 H110      -55.8687  -23.7767   10.0066 H         1 UNK         0.0831 
    111 H111      -54.8581  -24.1717   12.3460 H         1 UNK         0.3133 
    112 H112      -52.3503  -24.4271   13.1798 H         1 UNK         0.0566 
    113 H113      -53.1434  -23.9143   15.5314 H         1 UNK         0.0814 
    114 H114      -54.3481  -23.5571   14.3141 H         1 UNK         0.0814 
    115 H115      -54.4999  -25.0112   15.2913 H         1 UNK         0.0814 
    116 H116      -51.0386  -25.9599   14.0381 H         1 UNK         0.3091 
    117 H117      -51.1412  -27.9829   16.8576 H         1 UNK         0.0702 
    118 H118      -49.8768  -29.6267   15.4501 H         1 UNK         0.0785 
    119 H119      -50.6155  -28.9568   13.9969 H         1 UNK         0.0785 
    120 H120      -51.6060  -29.7611   15.2068 H         1 UNK         0.0785 
    121 H121      -49.3267  -26.9593   14.7400 H         1 UNK         0.2998 
    122 H122      -47.9802  -24.4354   16.8174 H         1 UNK         0.0697 
    123 H123      -46.6049  -27.0610   16.0228 H         1 UNK         0.0825 
    124 H124      -46.6931  -26.4118   17.6553 H         1 UNK         0.0825 
    125 H125      -45.7966  -25.5455   16.4186 H         1 UNK         0.0825 
    126 H126      -47.2309  -25.4802   14.2404 H         1 UNK         0.3029 
    127 H127      -49.6927  -23.8271   12.3334 H         1 UNK         0.0897 
    128 H128      -47.8021  -22.6974   11.1810 H         1 UNK         0.0792 
    129 H129      -48.1547  -21.9018   12.7055 H         1 UNK         0.0792 
    130 H130      -46.7598  -22.9675   12.5765 H         1 UNK         0.0792 
    131 H131      -47.3883  -25.1214   11.4102 H         1 UNK         0.3086 
    132 H132      -47.8695  -28.4053   12.3399 H         1 UNK         0.0583 
    133 H133      -49.7730  -28.5159   10.7040 H         1 UNK         0.1020 
    134 H134      -48.8402  -27.5866    9.5517 H         1 UNK         0.1020 
    135 H135      -48.5082  -29.3205    7.4704 H         1 UNK         0.0694 
    136 H136      -48.5973  -31.0416    7.7602 H         1 UNK         0.0694 
    137 H137      -46.3788  -27.5339   10.1533 H         1 UNK         0.2989 
    138 H138      -44.0322  -25.4576   11.3501 H         1 UNK         0.1055 
    139 H139      -42.9769  -27.3338   12.6224 H         1 UNK         0.0806 
    140 H140      -42.1839  -27.1062   11.0742 H         1 UNK         0.0806 
    141 H141      -43.3132  -28.4432   11.3011 H         1 UNK         0.0806 
    142 H142      -43.9046  -27.3211    9.1749 H         1 UNK         0.3061 
    143 H143      -44.5048  -25.7513    6.8517 H         1 UNK         0.0734 
    144 H144      -46.1352  -28.2081    7.7574 H         1 UNK         0.0832 
    145 H145      -44.3998  -28.1725    7.4549 H         1 UNK         0.0832 
    146 H146      -45.5159  -27.9789    6.1286 H         1 UNK         0.0832 
    147 H147      -47.2117  -25.2539    7.5913 H         1 UNK         0.3156 
    148 H148      -48.1083  -24.1107    4.4071 H         1 UNK         0.0589 
    149 H149      -49.4682  -26.5417    5.6969 H         1 UNK         0.0808 
    150 H150      -48.9198  -26.4453    4.0295 H         1 UNK         0.0808 
    151 H151      -50.2287  -25.4111    4.5778 H         1 UNK         0.0808 
    152 H152      -49.5648  -24.3923    6.8799 H         1 UNK         0.3098 
    153 H153      -48.1333  -22.2588    8.8684 H         1 UNK         0.0720 
    154 H154      -48.4113  -20.1714    7.5332 H         1 UNK         0.0791 
    155 H155      -49.6333  -20.2769    8.7849 H         1 UNK         0.0791 
    156 H156      -50.0516  -20.6405    7.1093 H         1 UNK         0.0791 
    157 H157      -50.9375  -22.3729    8.6747 H         1 UNK         0.3028 
@<TRIPOS>BOND
     1    1    2 1    
     2    1   82 1    
     3    1   83 1    
     4    1   84 1    
     5    2    3 2    
     6    2    4 am   BACKBONE|DICT|INTERRES
     7    4    5 1    
     8    4   85 1    
     9    5    6 1    
    10    5   80 1    
    11    5   86 1    
    12    6    7 1    
    13    6   87 1    
    14    6   88 1    
    15    7    8 1    
    16    8    9 1    
    17    8   89 1    
    18    8   90 1    
    19    9   10 ar   
    20    9   14 ar   
    21   10   11 ar   
    22   10   91 1    
    23   11   12 ar   
    24   11   58 1    
    25   12   13 ar   
    26   12   92 1    
    27   13   14 ar   
    28   13   15 1    
    29   14   93 1    
    30   15   16 1    
    31   15   94 1    
    32   15   95 1    
    33   16   17 1    
    34   17   18 1    
    35   17   96 1    
    36   17   97 1    
    37   18   19 1    
    38   18   22 1    
    39   18   98 1    
    40   19   20 am   BACKBONE|DICT|INTERRES
    41   19   21 2    
    42   20   99 1    
    43   20  100 1    
    44   22   23 am   BACKBONE|DICT|INTERRES
    45   22  101 1    
    46   23   24 2    
    47   23   25 1    
    48   25   26 1    
    49   25   27 1    
    50   25  102 1    
    51   26  103 1    
    52   26  104 1    
    53   26  105 1    
    54   27   28 am   BACKBONE|DICT|INTERRES
    55   27  106 1    
    56   28   29 2    
    57   28   30 1    
    58   30   31 1    
    59   30   32 1    
    60   30  107 1    
    61   31  108 1    
    62   31  109 1    
    63   31  110 1    
    64   32   33 am   BACKBONE|DICT|INTERRES
    65   32  111 1    
    66   33   34 2    
    67   33   35 1    
    68   35   36 1    
    69   35   37 1    
    70   35  112 1    
    71   36  113 1    
    72   36  114 1    
    73   36  115 1    
    74   37   38 am   BACKBONE|DICT|INTERRES
    75   37  116 1    
    76   38   39 2    
    77   38   40 1    
    78   40   41 1    
    79   40   42 1    
    80   40  117 1    
    81   41  118 1    
    82   41  119 1    
    83   41  120 1    
    84   42   43 am   BACKBONE|DICT|INTERRES
    85   42  121 1    
    86   43   44 2    
    87   43   45 1    
    88   45   46 1    
    89   45   47 1    
    90   45  122 1    
    91   46  123 1    
    92   46  124 1    
    93   46  125 1    
    94   47   48 am   BACKBONE|DICT|INTERRES
    95   47  126 1    
    96   48   49 2    
    97   48   50 1    
    98   50   51 1    
    99   50   52 1    
   100   50  127 1    
   101   51  128 1    
   102   51  129 1    
   103   51  130 1    
   104   52   53 am   BACKBONE|DICT|INTERRES
   105   52  131 1    
   106   53   54 2    
   107   53   55 1    
   108   55   56 1    
   109   55   59 1    
   110   55  132 1    
   111   56   57 1    
   112   56  133 1    
   113   56  134 1    
   114   57   58 1    
   115   58  135 1    
   116   58  136 1    
   117   59   60 am   BACKBONE|DICT|INTERRES
   118   59  137 1    
   119   60   61 2    
   120   60   62 1    
   121   62   63 1    
   122   62   64 1    
   123   62  138 1    
   124   63  139 1    
   125   63  140 1    
   126   63  141 1    
   127   64   65 am   BACKBONE|DICT|INTERRES
   128   64  142 1    
   129   65   66 2    
   130   65   67 1    
   131   67   68 1    
   132   67   69 1    
   133   67  143 1    
   134   68  144 1    
   135   68  145 1    
   136   68  146 1    
   137   69   70 am   BACKBONE|DICT|INTERRES
   138   69  147 1    
   139   70   71 2    
   140   70   72 1    
   141   72   73 1    
   142   72   74 1    
   143   72  148 1    
   144   73  149 1    
   145   73  150 1    
   146   73  151 1    
   147   74   75 am   BACKBONE|DICT|INTERRES
   148   74  152 1    
   149   75   76 2    
   150   75   77 1    
   151   77   78 1    
   152   77   79 1    
   153   77  153 1    
   154   78  154 1    
   155   78  155 1    
   156   78  156 1    
   157   79   80 am   BACKBONE|DICT|INTERRES
   158   79  157 1    
   159   80   81 2    
@<TRIPOS>SUBSTRUCTURE
     1 UNK         1 GROUP             0       ****    0 ROOT    
