@<TRIPOS>MOLECULE
3R207
157   159    1
SMALL
USER_CHARGES


@<TRIPOS>ATOM
      1 CA        -46.0490  -30.4902    3.5611 C.3       0 UNK        -0.1975 
      2 C         -46.7582  -29.3887    4.3338 C.2       0 UNK         0.4852 
      3 O         -46.2936  -29.0009    5.4060 O.2       0 UNK        -0.5216 
      4 N         -47.8638  -28.8626    3.7835 N.am      1 UNK        -0.4461 
      5 CA        -48.7524  -27.8526    4.3877 C.3       1 UNK         0.0864 
      6 C6        -49.5724  -28.4104    5.5796 C.3       14 UNK        -0.0898 
      7 S7        -50.5785  -29.8827    5.1843 S.3       14 UNK        -0.2598 
      8 C8        -52.2826  -29.2233    5.1651 C.3       14 UNK         0.0286 
      9 C9        -52.6644  -28.4956    6.4508 C.ar      14 UNK        -0.0844 
     10 C10       -53.0055  -27.1400    6.4088 C.ar      14 UNK        -0.0881 
     11 C11       -53.3281  -26.4473    7.5792 C.ar      14 UNK        -0.0643 
     12 C12       -53.3178  -27.1265    8.8013 C.ar      14 UNK        -0.0930 
     13 C13       -52.9749  -28.4810    8.8599 C.ar      14 UNK        -0.0827 
     14 C14       -52.6617  -29.1635    7.6798 C.ar      14 UNK        -0.1249 
     15 C15       -52.8859  -29.1914   10.2028 C.3       14 UNK         0.0141 
     16 S16       -54.5039  -29.7936   10.7736 S.3       14 UNK        -0.2313 
     17 C17       -54.0232  -30.6137   12.3332 C.3       14 UNK        -0.0915 
     18 CA        -54.8030  -30.0764   13.5654 C.3       13 UNK         0.0968 
     19 C         -56.1668  -30.8030   13.7387 C.2       13 UNK         0.5732 
     20 N         -57.2243  -30.3009   13.1163 N.am      13 UNK        -0.7310 
     21 O         -56.2628  -31.8367   14.3987 O.2       13 UNK        -0.5035 
     22 N         -53.9620  -30.1275   14.7717 N.am      13 UNK        -0.4233 
     23 C         -54.2690  -29.5952   15.9627 C.2       13 UNK         0.4989 
     24 O         -55.3138  -28.9824   16.1853 O.2       13 UNK        -0.4996 
     25 CA        -53.2332  -29.7494   17.0928 C.3       12 UNK         0.0216 
     26 CB        -51.8701  -30.3049   16.6258 C.3       12 UNK        -0.1964 
     27 N         -53.0081  -28.4512   17.7288 N.am      12 UNK        -0.4276 
     28 C         -53.4919  -28.0664   18.9168 C.2       12 UNK         0.5020 
     29 O         -54.1914  -28.7791   19.6386 O.2       12 UNK        -0.5489 
     30 CA        -53.1251  -26.6525   19.3952 C.3       11 UNK         0.0294 
     31 CB        -51.6957  -26.6323   19.9627 C.3       11 UNK        -0.2019 
     32 N         -53.2267  -25.6711   18.3127 N.am      11 UNK        -0.4493 
     33 C         -54.1011  -24.6546   18.2714 C.2       11 UNK         0.4932 
     34 O         -54.9067  -24.4051   19.1689 O.2       11 UNK        -0.5029 
     35 CA        -54.0809  -23.7516   17.0206 C.3       10 UNK         0.0280 
     36 CB        -53.2313  -22.4981   17.2804 C.3       10 UNK        -0.1976 
     37 N         -53.5824  -24.4417   15.8280 N.am      10 UNK        -0.4242 
     38 C         -54.2430  -25.4335   15.2101 C.2       10 UNK         0.5072 
     39 O         -55.4108  -25.7241   15.4696 O.2       10 UNK        -0.5224 
     40 CA        -53.4936  -26.2693   14.1518 C.3       9 UNK         0.0343 
     41 CB        -54.0944  -26.0468   12.7554 C.3       9 UNK        -0.2003 
     42 N         -52.0424  -26.0713   14.0940 N.am      9 UNK        -0.4272 
     43 C         -51.1691  -26.2675   15.0920 C.2       9 UNK         0.4988 
     44 O         -51.4881  -26.6918   16.2034 O.2       9 UNK        -0.5108 
     45 CA        -49.7097  -25.8516   14.8327 C.3       8 UNK         0.0248 
     46 CB        -48.9094  -27.0302   14.2587 C.3       8 UNK        -0.2001 
     47 N         -49.5833  -24.6822   13.9515 N.am      8 UNK        -0.4140 
     48 C         -50.1134  -23.4735   14.2044 C.2       8 UNK         0.5028 
     49 O         -50.7429  -23.2036   15.2275 O.2       8 UNK        -0.5428 
     50 CA        -49.9747  -22.4085   13.1068 C.3       7 UNK         0.0264 
     51 CB        -48.5707  -21.7813   13.1084 C.3       7 UNK        -0.1988 
     52 N         -50.2764  -22.9833   11.7943 N.am      7 UNK        -0.4454 
     53 C         -51.5238  -23.1641   11.3302 C.2       7 UNK         0.5027 
     54 O         -52.5265  -22.7306   11.8980 O.2       7 UNK        -0.5083 
     55 CA        -51.7026  -23.9839   10.0334 C.3       6 UNK         0.0844 
     56 C56       -52.0120  -23.0625    8.8291 C.3       14 UNK        -0.0967 
     57 S57       -52.1952  -23.9445    7.2392 S.3       14 UNK        -0.2604 
     58 C58       -53.6812  -24.9672    7.5072 C.3       14 UNK         0.0134 
     59 N         -50.5834  -24.8939    9.7792 N.am      6 UNK        -0.4116 
     60 C         -50.3239  -25.9896   10.5036 C.2       5 UNK         0.5034 
     61 O         -51.0058  -26.3527   11.4593 O.2       5 UNK        -0.5045 
     62 CA        -49.0582  -26.7791   10.1404 C.3       5 UNK         0.0224 
     63 CB        -49.3736  -27.8360    9.0782 C.3       5 UNK        -0.1978 
     64 N         -47.9558  -25.9292    9.6798 N.am      5 UNK        -0.4737 
     65 C         -47.3568  -24.9991   10.4360 C.2       4 UNK         0.5027 
     66 O         -47.7486  -24.7091   11.5687 O.2       4 UNK        -0.5211 
     67 CA        -46.1566  -24.2443    9.8271 C.3       4 UNK         0.0297 
     68 CB        -45.1153  -23.8620   10.8995 C.3       4 UNK        -0.1993 
     69 N         -45.5051  -24.9205    8.6939 N.am      4 UNK        -0.4486 
     70 C         -44.9119  -26.1233    8.6735 C.2       3 UNK         0.4961 
     71 O         -44.8762  -26.8816    9.6437 O.2       3 UNK        -0.5105 
     72 CA        -44.2432  -26.5450    7.3452 C.3       3 UNK         0.0299 
     73 CB        -43.7939  -28.0183    7.3555 C.3       3 UNK        -0.1972 
     74 N         -45.0765  -26.3084    6.1577 N.am      3 UNK        -0.4305 
     75 C         -45.2658  -25.1153    5.5705 C.2       2 UNK         0.5006 
     76 O         -44.8116  -24.0658    6.0285 O.2       2 UNK        -0.5106 
     77 CA        -46.0885  -25.0502    4.2680 C.3       2 UNK         0.0296 
     78 CB        -45.1562  -24.8674    3.0588 C.3       2 UNK        -0.2002 
     79 N         -46.9496  -26.2099    4.0317 N.am      2 UNK        -0.4032 
     80 C         -48.0247  -26.5350    4.7638 C.2       1 UNK         0.5000 
     81 O         -48.4251  -25.8493    5.7075 O.2       1 UNK        -0.5238 
     82 H82       -45.0270  -30.1895    3.3322 H         1 UNK         0.0889 
     83 H83       -46.5539  -30.7220    2.6236 H         1 UNK         0.0889 
     84 H84       -46.0107  -31.3998    4.1598 H         1 UNK         0.0889 
     85 H85       -48.1788  -29.2233    2.8932 H         1 UNK         0.3028 
     86 H86       -49.4630  -27.5726    3.6086 H         1 UNK         0.0864 
     87 H87       -50.2273  -27.6342    5.9730 H         1 UNK         0.0720 
     88 H88       -48.9004  -28.6853    6.3929 H         1 UNK         0.0720 
     89 H89       -52.9772  -30.0493    5.0073 H         1 UNK         0.0814 
     90 H90       -52.3900  -28.5660    4.3009 H         1 UNK         0.0814 
     91 H91       -53.0046  -26.6119    5.4650 H         1 UNK         0.1469 
     92 H92       -53.5620  -26.6009    9.7120 H         1 UNK         0.1381 
     93 H93       -52.3871  -30.2089    7.7180 H         1 UNK         0.1206 
     94 H94       -52.4661  -28.5186   10.9509 H         1 UNK         0.0813 
     95 H95       -52.1965  -30.0343   10.1321 H         1 UNK         0.0813 
     96 H96       -54.1441  -31.6929   12.2195 H         1 UNK         0.0638 
     97 H97       -52.9523  -30.4594   12.4745 H         1 UNK         0.0638 
     98 H98       -55.0157  -29.0180   13.4036 H         1 UNK         0.0568 
     99 H99       -58.1134  -30.7669   13.2054 H         1 UNK         0.3450 
    100 H100      -57.1453  -29.4741   12.5453 H         1 UNK         0.3450 
    101 H101      -53.0997  -30.6434   14.6877 H         1 UNK         0.2987 
    102 H102      -53.6541  -30.4547   17.8122 H         1 UNK         0.0766 
    103 H103      -51.9650  -31.3121   16.2182 H         1 UNK         0.0798 
    104 H104      -51.1724  -30.3715   17.4610 H         1 UNK         0.0798 
    105 H105      -51.4081  -29.6719   15.8663 H         1 UNK         0.0798 
    106 H106      -52.4460  -27.7917   17.1923 H         1 UNK         0.3198 
    107 H107      -53.8110  -26.3974   20.2060 H         1 UNK         0.0843 
    108 H108      -50.9523  -26.8693   19.2002 H         1 UNK         0.0831 
    109 H109      -51.5843  -27.3615   20.7664 H         1 UNK         0.0831 
    110 H110      -51.4496  -25.6543   20.3764 H         1 UNK         0.0831 
    111 H111      -52.6106  -25.8126   17.5180 H         1 UNK         0.3133 
    112 H112      -55.1062  -23.4311   16.8242 H         1 UNK         0.0566 
    113 H113      -53.2273  -21.8335   16.4161 H         1 UNK         0.0814 
    114 H114      -52.1961  -22.7534   17.5108 H         1 UNK         0.0814 
    115 H115      -53.6223  -21.9301   18.1256 H         1 UNK         0.0814 
    116 H116      -52.6344  -24.2231   15.5397 H         1 UNK         0.3091 
    117 H117      -53.6509  -27.3123   14.4175 H         1 UNK         0.0702 
    118 H118      -53.6615  -26.7334   12.0304 H         1 UNK         0.0785 
    119 H119      -53.9285  -25.0290   12.4032 H         1 UNK         0.0785 
    120 H120      -55.1711  -26.2218   12.7566 H         1 UNK         0.0785 
    121 H121      -51.6627  -25.8251   13.1841 H         1 UNK         0.2998 
    122 H122      -49.2718  -25.5785   15.7948 H         1 UNK         0.0697 
    123 H123      -49.3403  -27.3949   13.3268 H         1 UNK         0.0825 
    124 H124      -48.8985  -27.8673   14.9580 H         1 UNK         0.0825 
    125 H125      -47.8726  -26.7539   14.0656 H         1 UNK         0.0825 
    126 H126      -49.0470  -24.8052   13.0975 H         1 UNK         0.3029 
    127 H127      -50.6922  -21.6127   13.3205 H         1 UNK         0.0897 
    128 H128      -47.7859  -22.5215   12.9551 H         1 UNK         0.0792 
    129 H129      -48.3689  -21.2921   14.0623 H         1 UNK         0.0792 
    130 H130      -48.4739  -21.0242   12.3302 H         1 UNK         0.0792 
    131 H131      -49.5019  -23.4091   11.3011 H         1 UNK         0.3086 
    132 H132      -52.5843  -24.6027   10.2013 H         1 UNK         0.0583 
    133 H133      -52.9252  -22.4920    9.0113 H         1 UNK         0.1020 
    134 H134      -51.2183  -22.3232    8.7042 H         1 UNK         0.1020 
    135 H135      -54.2112  -24.6478    8.4054 H         1 UNK         0.0694 
    136 H136      -54.3709  -24.8037    6.6779 H         1 UNK         0.0694 
    137 H137      -49.9899  -24.6785    8.9915 H         1 UNK         0.2989 
    138 H138      -48.7172  -27.2933   11.0407 H         1 UNK         0.1055 
    139 H139      -49.8227  -27.3800    8.1970 H         1 UNK         0.0806 
    140 H140      -48.4795  -28.3788    8.7714 H         1 UNK         0.0806 
    141 H141      -50.0826  -28.5708    9.4595 H         1 UNK         0.0806 
    142 H142      -47.5888  -26.1049    8.7551 H         1 UNK         0.3061 
    143 H143      -46.5666  -23.3170    9.4246 H         1 UNK         0.0734 
    144 H144      -44.7039  -24.7429   11.3934 H         1 UNK         0.0832 
    145 H145      -44.2867  -23.3011   10.4674 H         1 UNK         0.0832 
    146 H146      -45.5586  -23.2344   11.6736 H         1 UNK         0.0832 
    147 H147      -45.4490  -24.3846    7.8312 H         1 UNK         0.3156 
    148 H148      -43.3413  -25.9369    7.2491 H         1 UNK         0.0589 
    149 H149      -43.3092  -28.2946    6.4190 H         1 UNK         0.0808 
    150 H150      -43.0772  -28.2047    8.1564 H         1 UNK         0.0808 
    151 H151      -44.6363  -28.6939    7.5090 H         1 UNK         0.0808 
    152 H152      -45.5264  -27.1293    5.7628 H         1 UNK         0.3098 
    153 H153      -46.7301  -24.1693    4.3386 H         1 UNK         0.0720 
    154 H154      -44.5220  -23.9883    3.1831 H         1 UNK         0.0791 
    155 H155      -45.7221  -24.7265    2.1377 H         1 UNK         0.0791 
    156 H156      -44.4982  -25.7267    2.9226 H         1 UNK         0.0791 
    157 H157      -46.6820  -26.8312    3.2820 H         1 UNK         0.3028 
@<TRIPOS>BOND
     1    1    2 1    
     2    1   82 1    
     3    1   83 1    
     4    1   84 1    
     5    2    3 2    
     6    2    4 am   BACKBONE|DICT|INTERRES
     7    4    5 1    
     8    4   85 1    
     9    5    6 1    
    10    5   80 1    
    11    5   86 1    
    12    6    7 1    
    13    6   87 1    
    14    6   88 1    
    15    7    8 1    
    16    8    9 1    
    17    8   89 1    
    18    8   90 1    
    19    9   10 ar   
    20    9   14 ar   
    21   10   11 ar   
    22   10   91 1    
    23   11   12 ar   
    24   11   58 1    
    25   12   13 ar   
    26   12   92 1    
    27   13   14 ar   
    28   13   15 1    
    29   14   93 1    
    30   15   16 1    
    31   15   94 1    
    32   15   95 1    
    33   16   17 1    
    34   17   18 1    
    35   17   96 1    
    36   17   97 1    
    37   18   19 1    
    38   18   22 1    
    39   18   98 1    
    40   19   20 am   BACKBONE|DICT|INTERRES
    41   19   21 2    
    42   20   99 1    
    43   20  100 1    
    44   22   23 am   BACKBONE|DICT|INTERRES
    45   22  101 1    
    46   23   24 2    
    47   23   25 1    
    48   25   26 1    
    49   25   27 1    
    50   25  102 1    
    51   26  103 1    
    52   26  104 1    
    53   26  105 1    
    54   27   28 am   BACKBONE|DICT|INTERRES
    55   27  106 1    
    56   28   29 2    
    57   28   30 1    
    58   30   31 1    
    59   30   32 1    
    60   30  107 1    
    61   31  108 1    
    62   31  109 1    
    63   31  110 1    
    64   32   33 am   BACKBONE|DICT|INTERRES
    65   32  111 1    
    66   33   34 2    
    67   33   35 1    
    68   35   36 1    
    69   35   37 1    
    70   35  112 1    
    71   36  113 1    
    72   36  114 1    
    73   36  115 1    
    74   37   38 am   BACKBONE|DICT|INTERRES
    75   37  116 1    
    76   38   39 2    
    77   38   40 1    
    78   40   41 1    
    79   40   42 1    
    80   40  117 1    
    81   41  118 1    
    82   41  119 1    
    83   41  120 1    
    84   42   43 am   BACKBONE|DICT|INTERRES
    85   42  121 1    
    86   43   44 2    
    87   43   45 1    
    88   45   46 1    
    89   45   47 1    
    90   45  122 1    
    91   46  123 1    
    92   46  124 1    
    93   46  125 1    
    94   47   48 am   BACKBONE|DICT|INTERRES
    95   47  126 1    
    96   48   49 2    
    97   48   50 1    
    98   50   51 1    
    99   50   52 1    
   100   50  127 1    
   101   51  128 1    
   102   51  129 1    
   103   51  130 1    
   104   52   53 am   BACKBONE|DICT|INTERRES
   105   52  131 1    
   106   53   54 2    
   107   53   55 1    
   108   55   56 1    
   109   55   59 1    
   110   55  132 1    
   111   56   57 1    
   112   56  133 1    
   113   56  134 1    
   114   57   58 1    
   115   58  135 1    
   116   58  136 1    
   117   59   60 am   BACKBONE|DICT|INTERRES
   118   59  137 1    
   119   60   61 2    
   120   60   62 1    
   121   62   63 1    
   122   62   64 1    
   123   62  138 1    
   124   63  139 1    
   125   63  140 1    
   126   63  141 1    
   127   64   65 am   BACKBONE|DICT|INTERRES
   128   64  142 1    
   129   65   66 2    
   130   65   67 1    
   131   67   68 1    
   132   67   69 1    
   133   67  143 1    
   134   68  144 1    
   135   68  145 1    
   136   68  146 1    
   137   69   70 am   BACKBONE|DICT|INTERRES
   138   69  147 1    
   139   70   71 2    
   140   70   72 1    
   141   72   73 1    
   142   72   74 1    
   143   72  148 1    
   144   73  149 1    
   145   73  150 1    
   146   73  151 1    
   147   74   75 am   BACKBONE|DICT|INTERRES
   148   74  152 1    
   149   75   76 2    
   150   75   77 1    
   151   77   78 1    
   152   77   79 1    
   153   77  153 1    
   154   78  154 1    
   155   78  155 1    
   156   78  156 1    
   157   79   80 am   BACKBONE|DICT|INTERRES
   158   79  157 1    
   159   80   81 2    
@<TRIPOS>SUBSTRUCTURE
     1 UNK         1 GROUP             0       ****    0 ROOT    
