@<TRIPOS>MOLECULE
3R207
157   159    1
SMALL
USER_CHARGES


@<TRIPOS>ATOM
      1 CA        -44.8611  -28.9164    6.2702 C.3       0 UNK        -0.1975 
      2 C         -46.0579  -28.3923    5.4932 C.2       0 UNK         0.4852 
      3 O         -46.1696  -28.6524    4.2939 O.2       0 UNK        -0.5216 
      4 N         -46.9445  -27.6495    6.1677 N.am      1 UNK        -0.4461 
      5 CA        -48.0552  -26.9152    5.5552 C.3       1 UNK         0.0864 
      6 C6        -49.2617  -26.8245    6.5294 C.3       14 UNK        -0.0898 
      7 S7        -50.8634  -26.8585    5.6520 S.3       14 UNK        -0.2598 
      8 C8        -52.0453  -26.3765    6.9655 C.3       14 UNK         0.0286 
      9 C9        -52.1970  -27.3515    8.1378 C.ar      14 UNK        -0.0844 
     10 C10       -51.6620  -28.6460    8.1229 C.ar      14 UNK        -0.0881 
     11 C11       -51.7612  -29.4744    9.2415 C.ar      14 UNK        -0.0643 
     12 C12       -52.4402  -29.0233   10.3735 C.ar      14 UNK        -0.0930 
     13 C13       -53.0233  -27.7533   10.3953 C.ar      14 UNK        -0.0827 
     14 C14       -52.8955  -26.9254    9.2738 C.ar      14 UNK        -0.1249 
     15 C15       -53.7292  -27.2479   11.6497 C.3       14 UNK         0.0141 
     16 S16       -55.2999  -28.1162   11.9750 S.3       14 UNK        -0.2313 
     17 C17       -54.7099  -29.6290   12.8129 C.3       14 UNK        -0.0915 
     18 CA        -55.6321  -30.1207   13.9582 C.3       13 UNK         0.0968 
     19 C         -55.0882  -31.4556   14.5482 C.2       13 UNK         0.5732 
     20 N         -54.6089  -31.4932   15.7861 N.am      13 UNK        -0.7310 
     21 O         -55.1055  -32.4781   13.8670 O.2       13 UNK        -0.5035 
     22 N         -55.8911  -29.0621   14.9468 N.am      13 UNK        -0.4233 
     23 C         -56.8498  -29.1036   15.8827 C.2       13 UNK         0.4989 
     24 O         -57.6235  -30.0491   16.0371 O.2       13 UNK        -0.4996 
     25 CA        -56.9890  -27.8676   16.7805 C.3       12 UNK         0.0216 
     26 CB        -55.9115  -27.8553   17.8779 C.3       12 UNK        -0.1964 
     27 N         -56.8989  -26.6458   15.9817 N.am      12 UNK        -0.4276 
     28 C         -57.9479  -25.9983   15.4577 C.2       12 UNK         0.5020 
     29 O         -59.1168  -26.3268   15.6687 O.2       12 UNK        -0.5489 
     30 CA        -57.6788  -24.8050   14.5155 C.3       11 UNK         0.0294 
     31 CB        -58.3883  -23.5237   15.0025 C.3       11 UNK        -0.2019 
     32 N         -56.2618  -24.5503   14.2170 N.am      11 UNK        -0.4493 
     33 C         -55.3046  -24.1134   15.0466 C.2       11 UNK         0.4932 
     34 O         -55.4800  -23.8225   16.2308 O.2       11 UNK        -0.5029 
     35 CA        -53.8920  -24.0330   14.4486 C.3       10 UNK         0.0280 
     36 CB        -53.3760  -22.5849   14.4749 C.3       10 UNK        -0.1976 
     37 N         -52.9362  -24.9020   15.1395 N.am      10 UNK        -0.4242 
     38 C         -53.0687  -26.2161   15.3729 C.2       10 UNK         0.5072 
     39 O         -54.0712  -26.8665   15.0656 O.2       10 UNK        -0.5224 
     40 CA        -51.8706  -26.9246   16.0375 C.3       9 UNK         0.0343 
     41 CB        -51.9948  -28.4597   15.9859 C.3       9 UNK        -0.2003 
     42 N         -50.6083  -26.5296   15.4057 N.am      9 UNK        -0.4272 
     43 C         -49.8617  -25.4721   15.7621 C.2       9 UNK         0.4988 
     44 O         -50.1283  -24.7511   16.7237 O.2       9 UNK        -0.5108 
     45 CA        -48.6492  -25.1153   14.8771 C.3       8 UNK         0.0248 
     46 CB        -47.3675  -25.7443   15.4449 C.3       8 UNK        -0.2001 
     47 N         -48.8101  -25.5206   13.4782 N.am      8 UNK        -0.4140 
     48 C         -49.7836  -25.0825   12.6636 C.2       8 UNK         0.5028 
     49 O         -50.5340  -24.1499   12.9482 O.2       8 UNK        -0.5428 
     50 CA        -50.0013  -25.8246   11.3308 C.3       7 UNK         0.0264 
     51 CB        -49.5931  -24.9419   10.1474 C.3       7 UNK        -0.1988 
     52 N         -49.3257  -27.1237   11.2312 N.am      7 UNK        -0.4454 
     53 C         -49.5552  -28.1711   12.0403 C.2       7 UNK         0.5027 
     54 O         -50.4295  -28.1729   12.9082 O.2       7 UNK        -0.5083 
     55 CA        -48.5982  -29.3801   11.9570 C.3       6 UNK         0.0844 
     56 C56       -49.2817  -30.6505   11.3876 C.3       14 UNK        -0.0967 
     57 S57       -49.3284  -30.7425    9.5611 S.3       14 UNK        -0.2604 
     58 C58       -51.1139  -30.8485    9.2222 C.3       14 UNK         0.0134 
     59 N         -47.3112  -29.1002   11.3104 N.am      6 UNK        -0.4116 
     60 C         -46.4084  -28.1881   11.6959 C.2       5 UNK         0.5034 
     61 O         -46.5710  -27.4281   12.6526 O.2       5 UNK        -0.5045 
     62 CA        -45.1092  -28.0889   10.8757 C.3       5 UNK         0.0224 
     63 CB        -44.9500  -29.1918    9.8045 C.3       5 UNK        -0.1978 
     64 N         -44.9382  -26.7555   10.2853 N.am      5 UNK        -0.4737 
     65 C         -45.7478  -26.1385    9.4139 C.2       4 UNK         0.5027 
     66 O         -46.7718  -26.6369    8.9348 O.2       4 UNK        -0.5211 
     67 CA        -45.3096  -24.7340    8.9810 C.3       4 UNK         0.0297 
     68 CB        -44.2100  -24.8098    7.9073 C.3       4 UNK        -0.1993 
     69 N         -46.4632  -24.0020    8.4629 N.am      4 UNK        -0.4486 
     70 C         -46.6426  -22.6779    8.5524 C.2       3 UNK         0.4961 
     71 O         -45.8029  -21.9081    9.0230 O.2       3 UNK        -0.5105 
     72 CA        -47.9983  -22.1315    8.0562 C.3       3 UNK         0.0299 
     73 CB        -48.0832  -20.5895    8.0871 C.3       3 UNK        -0.1972 
     74 N         -48.3837  -22.6601    6.7416 N.am      3 UNK        -0.4305 
     75 C         -47.7597  -22.4654    5.5682 C.2       2 UNK         0.5006 
     76 O         -46.7709  -21.7455    5.4165 O.2       2 UNK        -0.5106 
     77 CA        -48.3483  -23.2421    4.3696 C.3       2 UNK         0.0296 
     78 CB        -47.5407  -23.0554    3.0667 C.3       2 UNK        -0.2002 
     79 N         -48.5266  -24.6693    4.6774 N.am      2 UNK        -0.4032 
     80 C         -47.5742  -25.5224    5.0867 C.2       1 UNK         0.5000 
     81 O         -46.3773  -25.2285    5.1412 O.2       1 UNK        -0.5238 
     82 H82       -44.0034  -29.0418    5.6097 H         1 UNK         0.0889 
     83 H83       -45.0920  -29.8829    6.7171 H         1 UNK         0.0889 
     84 H84       -44.5725  -28.2212    7.0580 H         1 UNK         0.0889 
     85 H85       -46.7868  -27.4396    7.1496 H         1 UNK         0.3028 
     86 H86       -48.3690  -27.4588    4.6612 H         1 UNK         0.0864 
     87 H87       -49.2005  -25.9365    7.1576 H         1 UNK         0.0720 
     88 H88       -49.2468  -27.6687    7.2198 H         1 UNK         0.0720 
     89 H89       -53.0253  -26.2447    6.5051 H         1 UNK         0.0814 
     90 H90       -51.7531  -25.3974    7.3478 H         1 UNK         0.0814 
     91 H91       -51.1380  -29.0174    7.2547 H         1 UNK         0.1469 
     92 H92       -52.4929  -29.6567   11.2455 H         1 UNK         0.1381 
     93 H93       -53.3214  -25.9314    9.2935 H         1 UNK         0.1206 
     94 H94       -53.9443  -26.1829   11.5561 H         1 UNK         0.0813 
     95 H95       -53.0621  -27.3402   12.5075 H         1 UNK         0.0813 
     96 H96       -54.6081  -30.4037   12.0507 H         1 UNK         0.0638 
     97 H97       -53.7093  -29.4503   13.2096 H         1 UNK         0.0638 
     98 H98       -56.5964  -30.3681   13.5106 H         1 UNK         0.0568 
     99 H99       -54.5998  -30.6636   16.3552 H         1 UNK         0.3450 
    100 H100      -54.2641  -32.3651   16.1547 H         1 UNK         0.3450 
    101 H101      -55.2759  -28.2531   14.8984 H         1 UNK         0.2987 
    102 H102      -57.9628  -27.9174   17.2727 H         1 UNK         0.0766 
    103 H103      -55.9679  -28.7569   18.4893 H         1 UNK         0.0798 
    104 H104      -54.9044  -27.8027   17.4657 H         1 UNK         0.0798 
    105 H105      -56.0410  -27.0033   18.5455 H         1 UNK         0.0798 
    106 H106      -55.9664  -26.3423   15.7225 H         1 UNK         0.3198 
    107 H107      -58.1301  -25.0817   13.5613 H         1 UNK         0.0843 
    108 H108      -59.4657  -23.6782   15.0740 H         1 UNK         0.0831 
    109 H109      -58.2271  -22.6935   14.3150 H         1 UNK         0.0831 
    110 H110      -58.0429  -23.2159   15.9897 H         1 UNK         0.0831 
    111 H111      -55.9823  -24.7939   13.2762 H         1 UNK         0.3133 
    112 H112      -53.9252  -24.3604   13.4077 H         1 UNK         0.0566 
    113 H113      -52.4090  -22.4968   13.9795 H         1 UNK         0.0814 
    114 H114      -54.0646  -21.9152   13.9579 H         1 UNK         0.0814 
    115 H115      -53.2651  -22.2147   15.4950 H         1 UNK         0.0814 
    116 H116      -52.0780  -24.4634   15.4445 H         1 UNK         0.3091 
    117 H117      -51.8636  -26.6277   17.0882 H         1 UNK         0.0702 
    118 H118      -51.1377  -28.9427   16.4549 H         1 UNK         0.0785 
    119 H119      -52.0640  -28.8243   14.9607 H         1 UNK         0.0785 
    120 H120      -52.8851  -28.8015   16.5137 H         1 UNK         0.0785 
    121 H121      -50.3640  -27.0422   14.5632 H         1 UNK         0.2998 
    122 H122      -48.5369  -24.0293   14.8954 H         1 UNK         0.0697 
    123 H123      -47.4120  -26.8342   15.4289 H         1 UNK         0.0825 
    124 H124      -47.2058  -25.4380   16.4794 H         1 UNK         0.0825 
    125 H125      -46.4895  -25.4384   14.8755 H         1 UNK         0.0825 
    126 H126      -48.1927  -26.2552   13.1474 H         1 UNK         0.3029 
    127 H127      -51.0729  -26.0075   11.2602 H         1 UNK         0.0897 
    128 H128      -49.8641  -25.4122    9.2054 H         1 UNK         0.0792 
    129 H129      -48.5213  -24.7505   10.1484 H         1 UNK         0.0792 
    130 H130      -50.1033  -23.9784   10.1850 H         1 UNK         0.0792 
    131 H131      -48.5838  -27.1991   10.5472 H         1 UNK         0.3086 
    132 H132      -48.3546  -29.6051   12.9977 H         1 UNK         0.0583 
    133 H133      -48.7304  -31.5272   11.7309 H         1 UNK         0.1020 
    134 H134      -50.2839  -30.7724   11.8031 H         1 UNK         0.1020 
    135 H135      -51.2561  -31.3008    8.2395 H         1 UNK         0.0694 
    136 H136      -51.5946  -31.5199    9.9353 H         1 UNK         0.0694 
    137 H137      -47.1157  -29.6501   10.4863 H         1 UNK         0.2989 
    138 H138      -44.2978  -28.2141   11.5948 H         1 UNK         0.1055 
    139 H139      -44.9698  -30.1854   10.2545 H         1 UNK         0.0806 
    140 H140      -43.9925  -29.1001    9.2919 H         1 UNK         0.0806 
    141 H141      -45.7369  -29.1531    9.0511 H         1 UNK         0.0806 
    142 H142      -44.1377  -26.2404   10.6262 H         1 UNK         0.3061 
    143 H143      -44.9216  -24.2167    9.8614 H         1 UNK         0.0734 
    144 H144      -43.9095  -23.8160    7.5753 H         1 UNK         0.0832 
    145 H145      -43.3181  -25.3068    8.2904 H         1 UNK         0.0832 
    146 H146      -44.5414  -25.3674    7.0310 H         1 UNK         0.0832 
    147 H147      -47.1981  -24.5918    8.0978 H         1 UNK         0.3156 
    148 H148      -48.7449  -22.5011    8.7589 H         1 UNK         0.0589 
    149 H149      -47.3268  -20.1257    7.4534 H         1 UNK         0.0808 
    150 H150      -49.0603  -20.2384    7.7554 H         1 UNK         0.0808 
    151 H151      -47.9311  -20.2118    9.0989 H         1 UNK         0.0808 
    152 H152      -49.1967  -23.2592    6.7386 H         1 UNK         0.3098 
    153 H153      -49.3452  -22.8329    4.1981 H         1 UNK         0.0720 
    154 H154      -47.9970  -23.5949    2.2368 H         1 UNK         0.0791 
    155 H155      -46.5134  -23.4063    3.1701 H         1 UNK         0.0791 
    156 H156      -47.4964  -22.0030    2.7835 H         1 UNK         0.0791 
    157 H157      -49.4801  -25.0098    4.6612 H         1 UNK         0.3028 
@<TRIPOS>BOND
     1    1    2 1    
     2    1   82 1    
     3    1   83 1    
     4    1   84 1    
     5    2    3 2    
     6    2    4 am   BACKBONE|DICT|INTERRES
     7    4    5 1    
     8    4   85 1    
     9    5    6 1    
    10    5   80 1    
    11    5   86 1    
    12    6    7 1    
    13    6   87 1    
    14    6   88 1    
    15    7    8 1    
    16    8    9 1    
    17    8   89 1    
    18    8   90 1    
    19    9   10 ar   
    20    9   14 ar   
    21   10   11 ar   
    22   10   91 1    
    23   11   12 ar   
    24   11   58 1    
    25   12   13 ar   
    26   12   92 1    
    27   13   14 ar   
    28   13   15 1    
    29   14   93 1    
    30   15   16 1    
    31   15   94 1    
    32   15   95 1    
    33   16   17 1    
    34   17   18 1    
    35   17   96 1    
    36   17   97 1    
    37   18   19 1    
    38   18   22 1    
    39   18   98 1    
    40   19   20 am   BACKBONE|DICT|INTERRES
    41   19   21 2    
    42   20   99 1    
    43   20  100 1    
    44   22   23 am   BACKBONE|DICT|INTERRES
    45   22  101 1    
    46   23   24 2    
    47   23   25 1    
    48   25   26 1    
    49   25   27 1    
    50   25  102 1    
    51   26  103 1    
    52   26  104 1    
    53   26  105 1    
    54   27   28 am   BACKBONE|DICT|INTERRES
    55   27  106 1    
    56   28   29 2    
    57   28   30 1    
    58   30   31 1    
    59   30   32 1    
    60   30  107 1    
    61   31  108 1    
    62   31  109 1    
    63   31  110 1    
    64   32   33 am   BACKBONE|DICT|INTERRES
    65   32  111 1    
    66   33   34 2    
    67   33   35 1    
    68   35   36 1    
    69   35   37 1    
    70   35  112 1    
    71   36  113 1    
    72   36  114 1    
    73   36  115 1    
    74   37   38 am   BACKBONE|DICT|INTERRES
    75   37  116 1    
    76   38   39 2    
    77   38   40 1    
    78   40   41 1    
    79   40   42 1    
    80   40  117 1    
    81   41  118 1    
    82   41  119 1    
    83   41  120 1    
    84   42   43 am   BACKBONE|DICT|INTERRES
    85   42  121 1    
    86   43   44 2    
    87   43   45 1    
    88   45   46 1    
    89   45   47 1    
    90   45  122 1    
    91   46  123 1    
    92   46  124 1    
    93   46  125 1    
    94   47   48 am   BACKBONE|DICT|INTERRES
    95   47  126 1    
    96   48   49 2    
    97   48   50 1    
    98   50   51 1    
    99   50   52 1    
   100   50  127 1    
   101   51  128 1    
   102   51  129 1    
   103   51  130 1    
   104   52   53 am   BACKBONE|DICT|INTERRES
   105   52  131 1    
   106   53   54 2    
   107   53   55 1    
   108   55   56 1    
   109   55   59 1    
   110   55  132 1    
   111   56   57 1    
   112   56  133 1    
   113   56  134 1    
   114   57   58 1    
   115   58  135 1    
   116   58  136 1    
   117   59   60 am   BACKBONE|DICT|INTERRES
   118   59  137 1    
   119   60   61 2    
   120   60   62 1    
   121   62   63 1    
   122   62   64 1    
   123   62  138 1    
   124   63  139 1    
   125   63  140 1    
   126   63  141 1    
   127   64   65 am   BACKBONE|DICT|INTERRES
   128   64  142 1    
   129   65   66 2    
   130   65   67 1    
   131   67   68 1    
   132   67   69 1    
   133   67  143 1    
   134   68  144 1    
   135   68  145 1    
   136   68  146 1    
   137   69   70 am   BACKBONE|DICT|INTERRES
   138   69  147 1    
   139   70   71 2    
   140   70   72 1    
   141   72   73 1    
   142   72   74 1    
   143   72  148 1    
   144   73  149 1    
   145   73  150 1    
   146   73  151 1    
   147   74   75 am   BACKBONE|DICT|INTERRES
   148   74  152 1    
   149   75   76 2    
   150   75   77 1    
   151   77   78 1    
   152   77   79 1    
   153   77  153 1    
   154   78  154 1    
   155   78  155 1    
   156   78  156 1    
   157   79   80 am   BACKBONE|DICT|INTERRES
   158   79  157 1    
   159   80   81 2    
@<TRIPOS>SUBSTRUCTURE
     1 UNK         1 GROUP             0       ****    0 ROOT    
