@<TRIPOS>MOLECULE
3R207
157   159    1
SMALL
USER_CHARGES


@<TRIPOS>ATOM
      1 CA        -48.1092  -29.9549    6.0117 C.3       0 UNK        -0.1975 
      2 C         -48.6276  -28.5635    5.6838 C.2       0 UNK         0.4852 
      3 O         -47.9291  -27.5798    5.9284 O.2       0 UNK        -0.5216 
      4 N         -49.8407  -28.4777    5.1195 N.am      1 UNK        -0.4461 
      5 CA        -50.5475  -27.2404    4.7491 C.3       1 UNK         0.0864 
      6 C6        -50.9498  -26.3671    5.9701 C.3       14 UNK        -0.0898 
      7 S7        -51.9401  -27.2940    7.1932 S.3       14 UNK        -0.2598 
      8 C8        -50.8542  -27.2453    8.6540 C.3       14 UNK         0.0286 
      9 C9        -51.1699  -26.0532    9.5464 C.ar      14 UNK        -0.0844 
     10 C10       -50.7318  -24.7716    9.2043 C.ar      14 UNK        -0.0881 
     11 C11       -50.9853  -23.6870   10.0486 C.ar      14 UNK        -0.0643 
     12 C12       -51.6992  -23.8889   11.2330 C.ar      14 UNK        -0.0930 
     13 C13       -52.1473  -25.1634   11.5930 C.ar      14 UNK        -0.0827 
     14 C14       -51.8798  -26.2404   10.7359 C.ar      14 UNK        -0.1249 
     15 C15       -52.9036  -25.3129   12.9158 C.3       14 UNK         0.0141 
     16 S16       -53.0789  -27.0170   13.5427 S.3       14 UNK        -0.2313 
     17 C17       -54.5933  -27.5424   12.6691 C.3       14 UNK        -0.0915 
     18 CA        -54.8482  -29.0727   12.6889 C.3       13 UNK         0.0968 
     19 C         -53.7648  -29.8754   11.9096 C.2       13 UNK         0.5732 
     20 N         -53.7431  -29.7581   10.5880 N.am      13 UNK        -0.7310 
     21 O         -52.9376  -30.5843   12.4817 O.2       13 UNK        -0.5035 
     22 N         -55.0925  -29.5654   14.0531 N.am      13 UNK        -0.4233 
     23 C         -55.6422  -30.7544   14.3396 C.2       13 UNK         0.4989 
     24 O         -56.0631  -31.5405   13.4893 O.2       13 UNK        -0.4996 
     25 CA        -55.7758  -31.1238   15.8239 C.3       12 UNK         0.0216 
     26 CB        -54.4304  -31.6143   16.3862 C.3       12 UNK        -0.1964 
     27 N         -56.2544  -29.9835   16.6064 N.am      12 UNK        -0.4276 
     28 C         -57.5412  -29.7389   16.8919 C.2       12 UNK         0.5020 
     29 O         -58.4652  -30.4912   16.5788 O.2       12 UNK        -0.5489 
     30 CA        -57.8673  -28.4456   17.6656 C.3       11 UNK         0.0294 
     31 CB        -57.9985  -28.7399   19.1692 C.3       11 UNK        -0.2019 
     32 N         -56.8804  -27.3809   17.4692 N.am      11 UNK        -0.4493 
     33 C         -56.7162  -26.6954   16.3290 C.2       11 UNK         0.4932 
     34 O         -57.4419  -26.8249   15.3432 O.2       11 UNK        -0.5029 
     35 CA        -55.5300  -25.7136   16.2630 C.3       10 UNK         0.0280 
     36 CB        -55.9986  -24.2868   16.5910 C.3       10 UNK        -0.1976 
     37 N         -54.3753  -26.0481   17.1102 N.am      10 UNK        -0.4242 
     38 C         -53.7082  -27.2128   17.1234 C.2       10 UNK         0.5072 
     39 O         -54.0642  -28.2095   16.4926 O.2       10 UNK        -0.5224 
     40 CA        -52.4370  -27.2667   17.9827 C.3       9 UNK         0.0343 
     41 CB        -51.5520  -28.4882   17.6645 C.3       9 UNK        -0.2003 
     42 N         -51.6577  -26.0420   17.8046 N.am      9 UNK        -0.4272 
     43 C         -51.0110  -25.3810   18.7701 C.2       9 UNK         0.4988 
     44 O         -51.0198  -25.7198   19.9551 O.2       9 UNK        -0.5108 
     45 CA        -50.1980  -24.1491   18.3219 C.3       8 UNK         0.0248 
     46 CB        -49.5476  -23.4042   19.5035 C.3       8 UNK        -0.2001 
     47 N         -49.1551  -24.5155   17.3582 N.am      8 UNK        -0.4140 
     48 C         -49.3598  -24.7505   16.0567 C.2       8 UNK         0.5028 
     49 O         -50.4640  -24.6662   15.5111 O.2       8 UNK        -0.5428 
     50 CA        -48.1431  -25.1940   15.2397 C.3       7 UNK         0.0264 
     51 CB        -47.8817  -26.7010   15.4212 C.3       7 UNK        -0.1988 
     52 N         -48.4007  -24.9031   13.8330 N.am      7 UNK        -0.4454 
     53 C         -47.4665  -24.6795   12.9036 C.2       7 UNK         0.5027 
     54 O         -46.2535  -24.7027   13.1303 O.2       7 UNK        -0.5083 
     55 CA        -47.9764  -24.3312   11.4928 C.3       6 UNK         0.0844 
     56 C56       -48.1639  -22.7970   11.3359 C.3       14 UNK        -0.0967 
     57 S57       -48.6275  -22.2802    9.6424 S.3       14 UNK        -0.2604 
     58 C58       -50.4484  -22.3056    9.7045 C.3       14 UNK         0.0134 
     59 N         -47.1059  -24.8910   10.4590 N.am      6 UNK        -0.4116 
     60 C         -46.9905  -26.1876   10.1526 C.2       5 UNK         0.5034 
     61 O         -47.6020  -27.0867   10.7331 O.2       5 UNK        -0.5045 
     62 CA        -46.0601  -26.5228    8.9690 C.3       5 UNK         0.0224 
     63 CB        -45.9560  -28.0366    8.7066 C.3       5 UNK        -0.1978 
     64 N         -46.4910  -25.8612    7.7335 N.am      5 UNK        -0.4737 
     65 C         -46.2890  -24.5711    7.4323 C.2       4 UNK         0.5027 
     66 O         -45.6939  -23.7896    8.1774 O.2       4 UNK        -0.5211 
     67 CA        -46.8447  -24.0891    6.0786 C.3       4 UNK         0.0297 
     68 CB        -46.4035  -22.6566    5.7128 C.3       4 UNK        -0.1993 
     69 N         -46.5457  -25.0314    4.9955 N.am      4 UNK        -0.4486 
     70 C         -45.3366  -25.4309    4.5679 C.2       3 UNK         0.4961 
     71 O         -44.2725  -24.9541    4.9639 O.2       3 UNK        -0.5105 
     72 CA        -45.2913  -26.5799    3.5422 C.3       3 UNK         0.0299 
     73 CB        -44.7581  -27.8622    4.2044 C.3       3 UNK        -0.1972 
     74 N         -46.5963  -26.8663    2.9427 N.am      3 UNK        -0.4305 
     75 C         -47.1352  -26.1869    1.9206 C.2       2 UNK         0.5006 
     76 O         -46.5577  -25.2810    1.3189 O.2       2 UNK        -0.5106 
     77 CA        -48.5674  -26.5734    1.5040 C.3       2 UNK         0.0296 
     78 CB        -48.5350  -27.5758    0.3384 C.3       2 UNK        -0.2002 
     79 N         -49.3733  -27.1279    2.5987 N.am      2 UNK        -0.4032 
     80 C         -49.7616  -26.4425    3.6851 C.2       1 UNK         0.5000 
     81 O         -49.4741  -25.2591    3.8778 O.2       1 UNK        -0.5238 
     82 H82       -47.0793  -30.0631    5.6730 H         1 UNK         0.0889 
     83 H83       -48.7049  -30.7331    5.5351 H         1 UNK         0.0889 
     84 H84       -48.1336  -30.1188    7.0883 H         1 UNK         0.0889 
     85 H85       -50.3595  -29.3290    4.9533 H         1 UNK         0.3028 
     86 H86       -51.4713  -27.5530    4.2595 H         1 UNK         0.0864 
     87 H87       -50.0610  -25.9500    6.4444 H         1 UNK         0.0720 
     88 H88       -51.5461  -25.5124    5.6456 H         1 UNK         0.0720 
     89 H89       -49.8041  -27.2263    8.3573 H         1 UNK         0.0814 
     90 H90       -50.9861  -28.1744    9.2104 H         1 UNK         0.0814 
     91 H91       -50.1657  -24.6165    8.2974 H         1 UNK         0.1469 
     92 H92       -51.8922  -23.0512   11.8897 H         1 UNK         0.1381 
     93 H93       -52.2092  -27.2373   10.9881 H         1 UNK         0.1206 
     94 H94       -52.3845  -24.7381   13.6833 H         1 UNK         0.0813 
     95 H95       -53.8917  -24.8616   12.8170 H         1 UNK         0.0813 
     96 H96       -55.4403  -27.0276   13.1249 H         1 UNK         0.0638 
     97 H97       -54.5535  -27.1816   11.6400 H         1 UNK         0.0638 
     98 H98       -55.7812  -29.2352   12.1456 H         1 UNK         0.0568 
     99 H99       -53.0489  -30.2681   10.0655 H         1 UNK         0.3450 
    100 H100      -54.4104  -29.1797   10.1024 H         1 UNK         0.3450 
    101 H101      -54.7131  -29.0010   14.8071 H         1 UNK         0.2987 
    102 H102      -56.4881  -31.9481   15.9032 H         1 UNK         0.0766 
    103 H103      -54.0776  -32.4898   15.8390 H         1 UNK         0.0798 
    104 H104      -54.5197  -31.9009   17.4343 H         1 UNK         0.0798 
    105 H105      -53.6536  -30.8525   16.3122 H         1 UNK         0.0798 
    106 H106      -55.5575  -29.2767   16.8292 H         1 UNK         0.3198 
    107 H107      -58.8325  -28.0837   17.3036 H         1 UNK         0.0843 
    108 H108      -57.0596  -29.0957   19.5957 H         1 UNK         0.0831 
    109 H109      -58.7501  -29.5096   19.3511 H         1 UNK         0.0831 
    110 H110      -58.3066  -27.8527   19.7232 H         1 UNK         0.0831 
    111 H111      -56.2437  -27.1987   18.2312 H         1 UNK         0.3133 
    112 H112      -55.1753  -25.7172   15.2315 H         1 UNK         0.0566 
    113 H113      -55.2055  -23.5583   16.4213 H         1 UNK         0.0814 
    114 H114      -56.3237  -24.1972   17.6285 H         1 UNK         0.0814 
    115 H115      -56.8401  -23.9965   15.9598 H         1 UNK         0.0814 
    116 H116      -54.0084  -25.2975   17.6776 H         1 UNK         0.3091 
    117 H117      -52.7728  -27.3462   19.0188 H         1 UNK         0.0702 
    118 H118      -50.6624  -28.5091   18.2941 H         1 UNK         0.0785 
    119 H119      -51.2267  -28.4853   16.6229 H         1 UNK         0.0785 
    120 H120      -52.0915  -29.4203   17.8376 H         1 UNK         0.0785 
    121 H121      -51.5697  -25.6928   16.8529 H         1 UNK         0.2998 
    122 H122      -50.8958  -23.4592   17.8419 H         1 UNK         0.0697 
    123 H123      -48.8304  -24.0322   20.0338 H         1 UNK         0.0825 
    124 H124      -50.3000  -23.0863   20.2268 H         1 UNK         0.0825 
    125 H125      -49.0255  -22.5077   19.1685 H         1 UNK         0.0825 
    126 H126      -48.2273  -24.6493   17.7348 H         1 UNK         0.3029 
    127 H127      -47.2742  -24.6234   15.5761 H         1 UNK         0.0897 
    128 H128      -48.7353  -27.2977   15.0958 H         1 UNK         0.0792 
    129 H129      -47.6913  -26.9461   16.4668 H         1 UNK         0.0792 
    130 H130      -47.0112  -27.0251   14.8504 H         1 UNK         0.0792 
    131 H131      -49.3852  -24.8194   13.6061 H         1 UNK         0.3086 
    132 H132      -48.9463  -24.8149   11.3802 H         1 UNK         0.0583 
    133 H133      -48.9152  -22.4293   12.0375 H         1 UNK         0.1020 
    134 H134      -47.2380  -22.2768   11.5899 H         1 UNK         0.1020 
    135 H135      -50.7913  -21.5593   10.4228 H         1 UNK         0.0694 
    136 H136      -50.8402  -22.0022    8.7328 H         1 UNK         0.0694 
    137 H137      -46.5864  -24.2253    9.8960 H         1 UNK         0.2989 
    138 H138      -45.0628  -26.1615    9.2304 H         1 UNK         0.1055 
    139 H139      -45.2831  -28.2516    7.8761 H         1 UNK         0.0806 
    140 H140      -46.9284  -28.4688    8.4704 H         1 UNK         0.0806 
    141 H141      -45.5701  -28.5597    9.5824 H         1 UNK         0.0806 
    142 H142      -47.0016  -26.4395    7.0669 H         1 UNK         0.3061 
    143 H143      -47.9309  -24.0816    6.1826 H         1 UNK         0.0734 
    144 H144      -45.3189  -22.5702    5.6423 H         1 UNK         0.0832 
    145 H145      -46.8295  -22.3420    4.7601 H         1 UNK         0.0832 
    146 H146      -46.7369  -21.9442    6.4686 H         1 UNK         0.0832 
    147 H147      -47.3564  -25.5016    4.6114 H         1 UNK         0.3156 
    148 H148      -44.5943  -26.2905    2.7527 H         1 UNK         0.0589 
    149 H149      -44.6936  -28.6834    3.4903 H         1 UNK         0.0808 
    150 H150      -43.7561  -27.7050    4.6061 H         1 UNK         0.0808 
    151 H151      -45.3906  -28.1829    5.0328 H         1 UNK         0.0808 
    152 H152      -47.1478  -27.5855    3.3875 H         1 UNK         0.3098 
    153 H153      -49.0605  -25.6628    1.1568 H         1 UNK         0.0720 
    154 H154      -47.9636  -27.1785   -0.5019 H         1 UNK         0.0791 
    155 H155      -49.5387  -27.7907   -0.0289 H         1 UNK         0.0791 
    156 H156      -48.0727  -28.5202    0.6289 H         1 UNK         0.0791 
    157 H157      -49.6379  -28.0999    2.5225 H         1 UNK         0.3028 
@<TRIPOS>BOND
     1    1    2 1    
     2    1   82 1    
     3    1   83 1    
     4    1   84 1    
     5    2    3 2    
     6    2    4 am   BACKBONE|DICT|INTERRES
     7    4    5 1    
     8    4   85 1    
     9    5    6 1    
    10    5   80 1    
    11    5   86 1    
    12    6    7 1    
    13    6   87 1    
    14    6   88 1    
    15    7    8 1    
    16    8    9 1    
    17    8   89 1    
    18    8   90 1    
    19    9   10 ar   
    20    9   14 ar   
    21   10   11 ar   
    22   10   91 1    
    23   11   12 ar   
    24   11   58 1    
    25   12   13 ar   
    26   12   92 1    
    27   13   14 ar   
    28   13   15 1    
    29   14   93 1    
    30   15   16 1    
    31   15   94 1    
    32   15   95 1    
    33   16   17 1    
    34   17   18 1    
    35   17   96 1    
    36   17   97 1    
    37   18   19 1    
    38   18   22 1    
    39   18   98 1    
    40   19   20 am   BACKBONE|DICT|INTERRES
    41   19   21 2    
    42   20   99 1    
    43   20  100 1    
    44   22   23 am   BACKBONE|DICT|INTERRES
    45   22  101 1    
    46   23   24 2    
    47   23   25 1    
    48   25   26 1    
    49   25   27 1    
    50   25  102 1    
    51   26  103 1    
    52   26  104 1    
    53   26  105 1    
    54   27   28 am   BACKBONE|DICT|INTERRES
    55   27  106 1    
    56   28   29 2    
    57   28   30 1    
    58   30   31 1    
    59   30   32 1    
    60   30  107 1    
    61   31  108 1    
    62   31  109 1    
    63   31  110 1    
    64   32   33 am   BACKBONE|DICT|INTERRES
    65   32  111 1    
    66   33   34 2    
    67   33   35 1    
    68   35   36 1    
    69   35   37 1    
    70   35  112 1    
    71   36  113 1    
    72   36  114 1    
    73   36  115 1    
    74   37   38 am   BACKBONE|DICT|INTERRES
    75   37  116 1    
    76   38   39 2    
    77   38   40 1    
    78   40   41 1    
    79   40   42 1    
    80   40  117 1    
    81   41  118 1    
    82   41  119 1    
    83   41  120 1    
    84   42   43 am   BACKBONE|DICT|INTERRES
    85   42  121 1    
    86   43   44 2    
    87   43   45 1    
    88   45   46 1    
    89   45   47 1    
    90   45  122 1    
    91   46  123 1    
    92   46  124 1    
    93   46  125 1    
    94   47   48 am   BACKBONE|DICT|INTERRES
    95   47  126 1    
    96   48   49 2    
    97   48   50 1    
    98   50   51 1    
    99   50   52 1    
   100   50  127 1    
   101   51  128 1    
   102   51  129 1    
   103   51  130 1    
   104   52   53 am   BACKBONE|DICT|INTERRES
   105   52  131 1    
   106   53   54 2    
   107   53   55 1    
   108   55   56 1    
   109   55   59 1    
   110   55  132 1    
   111   56   57 1    
   112   56  133 1    
   113   56  134 1    
   114   57   58 1    
   115   58  135 1    
   116   58  136 1    
   117   59   60 am   BACKBONE|DICT|INTERRES
   118   59  137 1    
   119   60   61 2    
   120   60   62 1    
   121   62   63 1    
   122   62   64 1    
   123   62  138 1    
   124   63  139 1    
   125   63  140 1    
   126   63  141 1    
   127   64   65 am   BACKBONE|DICT|INTERRES
   128   64  142 1    
   129   65   66 2    
   130   65   67 1    
   131   67   68 1    
   132   67   69 1    
   133   67  143 1    
   134   68  144 1    
   135   68  145 1    
   136   68  146 1    
   137   69   70 am   BACKBONE|DICT|INTERRES
   138   69  147 1    
   139   70   71 2    
   140   70   72 1    
   141   72   73 1    
   142   72   74 1    
   143   72  148 1    
   144   73  149 1    
   145   73  150 1    
   146   73  151 1    
   147   74   75 am   BACKBONE|DICT|INTERRES
   148   74  152 1    
   149   75   76 2    
   150   75   77 1    
   151   77   78 1    
   152   77   79 1    
   153   77  153 1    
   154   78  154 1    
   155   78  155 1    
   156   78  156 1    
   157   79   80 am   BACKBONE|DICT|INTERRES
   158   79  157 1    
   159   80   81 2    
@<TRIPOS>SUBSTRUCTURE
     1 UNK         1 GROUP             0       ****    0 ROOT    
