@<TRIPOS>MOLECULE
3R207
157   159    1
SMALL
USER_CHARGES


@<TRIPOS>ATOM
      1 CA        -46.7103  -29.6079    4.1134 C.3       0 UNK        -0.1975 
      2 C         -47.8042  -28.5598    4.2512 C.2       0 UNK         0.4852 
      3 O         -47.5552  -27.3790    4.0057 O.2       0 UNK        -0.5216 
      4 N         -49.0153  -28.9799    4.6384 N.am      1 UNK        -0.4461 
      5 CA        -50.1529  -28.1012    4.9294 C.3       1 UNK         0.0864 
      6 C6        -51.5014  -28.8693    4.9462 C.3       14 UNK        -0.0898 
      7 S7        -51.5009  -30.4075    5.9334 S.3       14 UNK        -0.2598 
      8 C8        -53.0007  -30.2083    6.9476 C.3       14 UNK         0.0286 
      9 C9        -52.7977  -29.2043    8.0715 C.ar      14 UNK        -0.0844 
     10 C10       -51.9427  -29.5162    9.1321 C.ar      14 UNK        -0.0881 
     11 C11       -51.7470  -28.6084   10.1742 C.ar      14 UNK        -0.0643 
     12 C12       -52.4146  -27.3816   10.1525 C.ar      14 UNK        -0.0930 
     13 C13       -53.2830  -27.0619    9.1048 C.ar      14 UNK        -0.0827 
     14 C14       -53.4696  -27.9773    8.0641 C.ar      14 UNK        -0.1249 
     15 C15       -53.9946  -25.7161    9.0880 C.3       14 UNK         0.0141 
     16 S16       -55.1215  -25.5021   10.5000 S.3       14 UNK        -0.2313 
     17 C17       -56.5442  -26.5226    9.9925 C.3       14 UNK        -0.0915 
     18 CA        -57.1068  -27.3618   11.1685 C.3       13 UNK         0.0968 
     19 C         -58.4928  -27.9747   10.8108 C.2       13 UNK         0.5732 
     20 N         -58.6629  -29.2920   10.8055 N.am      13 UNK        -0.7310 
     21 O         -59.4394  -27.2376   10.5449 O.2       13 UNK        -0.5035 
     22 N         -56.1231  -28.3435   11.6561 N.am      13 UNK        -0.4233 
     23 C         -56.0749  -28.8090   12.9102 C.2       13 UNK         0.4989 
     24 O         -56.7958  -28.3997   13.8210 O.2       13 UNK        -0.4996 
     25 CA        -55.0638  -29.9222   13.2146 C.3       12 UNK         0.0216 
     26 CB        -54.4086  -30.5600   11.9708 C.3       12 UNK        -0.1964 
     27 N         -54.0400  -29.3933   14.1118 N.am      12 UNK        -0.4276 
     28 C         -53.4215  -30.0941   15.0692 C.2       12 UNK         0.5020 
     29 O         -53.6404  -31.2858   15.2934 O.2       12 UNK        -0.5489 
     30 CA        -52.3604  -29.3633   15.9133 C.3       11 UNK         0.0294 
     31 CB        -50.9539  -29.7765   15.4589 C.3       11 UNK        -0.2019 
     32 N         -52.4606  -27.9002   15.8791 N.am      11 UNK        -0.4493 
     33 C         -53.4068  -27.1965   16.5187 C.2       11 UNK         0.4932 
     34 O         -54.3408  -27.7128   17.1342 O.2       11 UNK        -0.5029 
     35 CA        -53.2635  -25.6630   16.4728 C.3       10 UNK         0.0280 
     36 CB        -54.2135  -24.9325   17.4450 C.3       10 UNK        -0.1976 
     37 N         -51.8767  -25.2270   16.6697 N.am      10 UNK        -0.4242 
     38 C         -51.0809  -25.4508   17.7292 C.2       10 UNK         0.5072 
     39 O         -51.4466  -26.0186   18.7591 O.2       10 UNK        -0.5224 
     40 CA        -49.6149  -24.9840   17.6222 C.3       9 UNK         0.0343 
     41 CB        -48.6723  -26.1947   17.5091 C.3       9 UNK        -0.2003 
     42 N         -49.3808  -24.0959   16.4815 N.am      9 UNK        -0.4272 
     43 C         -49.6778  -22.7889   16.4544 C.2       9 UNK         0.4988 
     44 O         -50.0795  -22.1547   17.4300 O.2       9 UNK        -0.5108 
     45 CA        -49.5387  -22.0805   15.0961 C.3       8 UNK         0.0248 
     46 CB        -48.1384  -21.4648   14.9449 C.3       8 UNK        -0.2001 
     47 N         -49.8151  -22.9774   13.9675 N.am      8 UNK        -0.4140 
     48 C         -51.0398  -23.4326   13.6544 C.2       8 UNK         0.5028 
     49 O         -52.0584  -23.1186   14.2681 O.2       8 UNK        -0.5428 
     50 CA        -51.1534  -24.4416   12.4989 C.3       7 UNK         0.0264 
     51 CB        -51.3265  -23.7044   11.1621 C.3       7 UNK        -0.1988 
     52 N         -49.9993  -25.3331   12.3992 N.am      7 UNK        -0.4454 
     53 C         -49.6127  -26.2282   13.3209 C.2       7 UNK         0.5027 
     54 O         -50.2703  -26.4912   14.3302 O.2       7 UNK        -0.5083 
     55 CA        -48.2467  -26.9212   13.0904 C.3       6 UNK         0.0844 
     56 C56       -48.4037  -28.3891   12.6260 C.3       14 UNK        -0.0967 
     57 S57       -49.1076  -28.5463   10.9472 S.3       14 UNK        -0.2604 
     58 C58       -50.8338  -28.9604   11.3342 C.3       14 UNK         0.0134 
     59 N         -47.3672  -26.1813   12.1793 N.am      6 UNK        -0.4116 
     60 C         -46.8840  -24.9478   12.3665 C.2       5 UNK         0.5034 
     61 O         -47.1096  -24.2815   13.3769 O.2       5 UNK        -0.5045 
     62 CA        -46.1012  -24.3104   11.2065 C.3       5 UNK         0.0224 
     63 CB        -44.7079  -23.8205   11.6507 C.3       5 UNK        -0.1978 
     64 N         -46.0396  -25.1313    9.9857 N.am      5 UNK        -0.4737 
     65 C         -45.2992  -26.2255    9.7378 C.2       4 UNK         0.5027 
     66 O         -44.5679  -26.7553   10.5733 O.2       4 UNK        -0.5211 
     67 CA        -45.4009  -26.8588    8.3314 C.3       4 UNK         0.0297 
     68 CB        -46.0135  -28.2668    8.4087 C.3       4 UNK        -0.1993 
     69 N         -46.1795  -26.0578    7.3827 N.am      4 UNK        -0.4486 
     70 C         -45.7839  -24.8871    6.8605 C.2       3 UNK         0.4961 
     71 O         -44.6472  -24.4341    6.9973 O.2       3 UNK        -0.5105 
     72 CA        -46.8323  -24.0471    6.1044 C.3       3 UNK         0.0299 
     73 CB        -46.4894  -23.9607    4.6083 C.3       3 UNK        -0.1972 
     74 N         -48.2152  -24.5122    6.2589 N.am      3 UNK        -0.4305 
     75 C         -48.9226  -24.5233    7.4007 C.2       2 UNK         0.5006 
     76 O         -48.4779  -24.1413    8.4844 O.2       2 UNK        -0.5106 
     77 CA        -50.3557  -25.0863    7.3256 C.3       2 UNK         0.0296 
     78 CB        -51.3559  -23.9377    7.1172 C.3       2 UNK        -0.2002 
     79 N         -50.5413  -26.0820    6.2629 N.am      2 UNK        -0.4032 
     80 C         -49.9100  -27.2644    6.2054 C.2       1 UNK         0.5000 
     81 O         -49.1303  -27.6621    7.0755 O.2       1 UNK        -0.5238 
     82 H82       -45.8737  -29.3625    4.7672 H         1 UNK         0.0889 
     83 H83       -46.3450  -29.6363    3.0873 H         1 UNK         0.0889 
     84 H84       -47.0654  -30.6042    4.3762 H         1 UNK         0.0889 
     85 H85       -49.1633  -29.9534    4.8642 H         1 UNK         0.3028 
     86 H86       -50.2102  -27.3882    4.1035 H         1 UNK         0.0864 
     87 H87       -51.7571  -29.1530    3.9242 H         1 UNK         0.0720 
     88 H88       -52.3130  -28.2161    5.2714 H         1 UNK         0.0720 
     89 H89       -53.2627  -31.1750    7.3800 H         1 UNK         0.0814 
     90 H90       -53.8394  -29.9239    6.3101 H         1 UNK         0.0814 
     91 H91       -51.4226  -30.4643    9.1418 H         1 UNK         0.1469 
     92 H92       -52.2662  -26.6771   10.9571 H         1 UNK         0.1381 
     93 H93       -54.1345  -27.7339    7.2468 H         1 UNK         0.1206 
     94 H94       -54.5466  -25.5715    8.1580 H         1 UNK         0.0813 
     95 H95       -53.2513  -24.9222    9.1251 H         1 UNK         0.0813 
     96 H96       -56.2620  -27.1741    9.1637 H         1 UNK         0.0638 
     97 H97       -57.3015  -25.8406    9.6016 H         1 UNK         0.0638 
     98 H98       -57.3119  -26.6644   11.9831 H         1 UNK         0.0568 
     99 H99       -59.5692  -29.6692   10.5773 H         1 UNK         0.3450 
    100 H100      -57.8995  -29.9107   11.0230 H         1 UNK         0.3450 
    101 H101      -55.4855  -28.7133   10.9668 H         1 UNK         0.2987 
    102 H102      -55.6268  -30.7011   13.7337 H         1 UNK         0.0766 
    103 H103      -53.7440  -31.3767   12.2533 H         1 UNK         0.0798 
    104 H104      -53.8191  -29.8396   11.4078 H         1 UNK         0.0798 
    105 H105      -55.1576  -30.9795   11.2979 H         1 UNK         0.0798 
    106 H106      -53.8413  -28.4058   14.0350 H         1 UNK         0.3198 
    107 H107      -52.4896  -29.6840   16.9495 H         1 UNK         0.0843 
    108 H108      -50.8177  -29.5791   14.3978 H         1 UNK         0.0831 
    109 H109      -50.7934  -30.8445   15.6123 H         1 UNK         0.0831 
    110 H110      -50.1769  -29.2467   16.0105 H         1 UNK         0.0831 
    111 H111      -51.7176  -27.3979   15.3998 H         1 UNK         0.3133 
    112 H112      -53.5350  -25.3622   15.4599 H         1 UNK         0.0566 
    113 H113      -54.0998  -23.8510   17.3706 H         1 UNK         0.0814 
    114 H114      -55.2554  -25.1642   17.2208 H         1 UNK         0.0814 
    115 H115      -54.0329  -25.2189   18.4816 H         1 UNK         0.0814 
    116 H116      -51.4667  -24.7495   15.8788 H         1 UNK         0.3091 
    117 H117      -49.3729  -24.4477   18.5423 H         1 UNK         0.0702 
    118 H118      -47.6285  -25.8834   17.4664 H         1 UNK         0.0785 
    119 H119      -48.8822  -26.7918   16.6212 H         1 UNK         0.0785 
    120 H120      -48.7776  -26.8523   18.3731 H         1 UNK         0.0785 
    121 H121      -49.0436  -24.5291   15.6337 H         1 UNK         0.2998 
    122 H122      -50.2689  -21.2685   15.0694 H         1 UNK         0.0697 
    123 H123      -47.3527  -22.2179   15.0116 H         1 UNK         0.0825 
    124 H124      -47.9506  -20.7325   15.7313 H         1 UNK         0.0825 
    125 H125      -48.0301  -20.9494   13.9905 H         1 UNK         0.0825 
    126 H126      -49.0106  -23.3178   13.4538 H         1 UNK         0.3029 
    127 H127      -52.0388  -25.0549   12.6796 H         1 UNK         0.0897 
    128 H128      -52.2518  -23.1266   11.1524 H         1 UNK         0.0792 
    129 H129      -51.3679  -24.4022   10.3278 H         1 UNK         0.0792 
    130 H130      -50.5051  -23.0126   10.9697 H         1 UNK         0.0792 
    131 H131      -49.4122  -25.2187   11.5858 H         1 UNK         0.3086 
    132 H132      -47.7492  -26.9362   14.0623 H         1 UNK         0.0583 
    133 H133      -47.4235  -28.8689   12.6167 H         1 UNK         0.1020 
    134 H134      -48.9877  -28.9652   13.3410 H         1 UNK         0.1020 
    135 H135      -50.9082  -30.0237   11.5672 H         1 UNK         0.0694 
    136 H136      -51.1611  -28.4280   12.2276 H         1 UNK         0.0694 
    137 H137      -47.1389  -26.6475   11.3133 H         1 UNK         0.2989 
    138 H138      -46.6759  -23.4262   10.9248 H         1 UNK         0.1055 
    139 H139      -44.7924  -23.0836   12.4507 H         1 UNK         0.0806 
    140 H140      -44.1733  -23.3448   10.8285 H         1 UNK         0.0806 
    141 H141      -44.0890  -24.6338   12.0301 H         1 UNK         0.0806 
    142 H142      -46.6640  -24.8204    9.2470 H         1 UNK         0.3061 
    143 H143      -44.3833  -26.9506    7.9462 H         1 UNK         0.0734 
    144 H144      -46.0261  -28.7491    7.4312 H         1 UNK         0.0832 
    145 H145      -45.4419  -28.9097    9.0794 H         1 UNK         0.0832 
    146 H146      -47.0388  -28.2396    8.7781 H         1 UNK         0.0832 
    147 H147      -47.1274  -26.3683    7.2058 H         1 UNK         0.3156 
    148 H148      -46.7833  -23.0379    6.5185 H         1 UNK         0.0589 
    149 H149      -46.5202  -24.9394    4.1292 H         1 UNK         0.0808 
    150 H150      -47.1789  -23.3036    4.0780 H         1 UNK         0.0808 
    151 H151      -45.4858  -23.5597    4.4600 H         1 UNK         0.0808 
    152 H152      -48.6564  -24.8718    5.4249 H         1 UNK         0.3098 
    153 H153      -50.5733  -25.5761    8.2772 H         1 UNK         0.0720 
    154 H154      -52.3782  -24.3043    7.0315 H         1 UNK         0.0791 
    155 H155      -51.1341  -23.3684    6.2134 H         1 UNK         0.0791 
    156 H156      -51.3276  -23.2398    7.9553 H         1 UNK         0.0791 
    157 H157      -51.1684  -25.8265    5.5136 H         1 UNK         0.3028 
@<TRIPOS>BOND
     1    1    2 1    
     2    1   82 1    
     3    1   83 1    
     4    1   84 1    
     5    2    3 2    
     6    2    4 am   BACKBONE|DICT|INTERRES
     7    4    5 1    
     8    4   85 1    
     9    5    6 1    
    10    5   80 1    
    11    5   86 1    
    12    6    7 1    
    13    6   87 1    
    14    6   88 1    
    15    7    8 1    
    16    8    9 1    
    17    8   89 1    
    18    8   90 1    
    19    9   10 ar   
    20    9   14 ar   
    21   10   11 ar   
    22   10   91 1    
    23   11   12 ar   
    24   11   58 1    
    25   12   13 ar   
    26   12   92 1    
    27   13   14 ar   
    28   13   15 1    
    29   14   93 1    
    30   15   16 1    
    31   15   94 1    
    32   15   95 1    
    33   16   17 1    
    34   17   18 1    
    35   17   96 1    
    36   17   97 1    
    37   18   19 1    
    38   18   22 1    
    39   18   98 1    
    40   19   20 am   BACKBONE|DICT|INTERRES
    41   19   21 2    
    42   20   99 1    
    43   20  100 1    
    44   22   23 am   BACKBONE|DICT|INTERRES
    45   22  101 1    
    46   23   24 2    
    47   23   25 1    
    48   25   26 1    
    49   25   27 1    
    50   25  102 1    
    51   26  103 1    
    52   26  104 1    
    53   26  105 1    
    54   27   28 am   BACKBONE|DICT|INTERRES
    55   27  106 1    
    56   28   29 2    
    57   28   30 1    
    58   30   31 1    
    59   30   32 1    
    60   30  107 1    
    61   31  108 1    
    62   31  109 1    
    63   31  110 1    
    64   32   33 am   BACKBONE|DICT|INTERRES
    65   32  111 1    
    66   33   34 2    
    67   33   35 1    
    68   35   36 1    
    69   35   37 1    
    70   35  112 1    
    71   36  113 1    
    72   36  114 1    
    73   36  115 1    
    74   37   38 am   BACKBONE|DICT|INTERRES
    75   37  116 1    
    76   38   39 2    
    77   38   40 1    
    78   40   41 1    
    79   40   42 1    
    80   40  117 1    
    81   41  118 1    
    82   41  119 1    
    83   41  120 1    
    84   42   43 am   BACKBONE|DICT|INTERRES
    85   42  121 1    
    86   43   44 2    
    87   43   45 1    
    88   45   46 1    
    89   45   47 1    
    90   45  122 1    
    91   46  123 1    
    92   46  124 1    
    93   46  125 1    
    94   47   48 am   BACKBONE|DICT|INTERRES
    95   47  126 1    
    96   48   49 2    
    97   48   50 1    
    98   50   51 1    
    99   50   52 1    
   100   50  127 1    
   101   51  128 1    
   102   51  129 1    
   103   51  130 1    
   104   52   53 am   BACKBONE|DICT|INTERRES
   105   52  131 1    
   106   53   54 2    
   107   53   55 1    
   108   55   56 1    
   109   55   59 1    
   110   55  132 1    
   111   56   57 1    
   112   56  133 1    
   113   56  134 1    
   114   57   58 1    
   115   58  135 1    
   116   58  136 1    
   117   59   60 am   BACKBONE|DICT|INTERRES
   118   59  137 1    
   119   60   61 2    
   120   60   62 1    
   121   62   63 1    
   122   62   64 1    
   123   62  138 1    
   124   63  139 1    
   125   63  140 1    
   126   63  141 1    
   127   64   65 am   BACKBONE|DICT|INTERRES
   128   64  142 1    
   129   65   66 2    
   130   65   67 1    
   131   67   68 1    
   132   67   69 1    
   133   67  143 1    
   134   68  144 1    
   135   68  145 1    
   136   68  146 1    
   137   69   70 am   BACKBONE|DICT|INTERRES
   138   69  147 1    
   139   70   71 2    
   140   70   72 1    
   141   72   73 1    
   142   72   74 1    
   143   72  148 1    
   144   73  149 1    
   145   73  150 1    
   146   73  151 1    
   147   74   75 am   BACKBONE|DICT|INTERRES
   148   74  152 1    
   149   75   76 2    
   150   75   77 1    
   151   77   78 1    
   152   77   79 1    
   153   77  153 1    
   154   78  154 1    
   155   78  155 1    
   156   78  156 1    
   157   79   80 am   BACKBONE|DICT|INTERRES
   158   79  157 1    
   159   80   81 2    
@<TRIPOS>SUBSTRUCTURE
     1 UNK         1 GROUP             0       ****    0 ROOT    
