@<TRIPOS>MOLECULE
3R207
157   159    1
SMALL
USER_CHARGES


@<TRIPOS>ATOM
      1 CA        -47.1028  -26.6233    4.1625 C.3       0 UNK        -0.1975 
      2 C         -48.0832  -26.8940    5.2943 C.2       0 UNK         0.4852 
      3 O         -49.1431  -26.2707    5.3415 O.2       0 UNK        -0.5216 
      4 N         -47.7254  -27.8064    6.2039 N.am      1 UNK        -0.4461 
      5 CA        -48.5182  -28.2185    7.3638 C.3       1 UNK         0.0864 
      6 C6        -49.1202  -29.6345    7.1663 C.3       14 UNK        -0.0898 
      7 S7        -50.3569  -29.7005    5.8297 S.3       14 UNK        -0.2598 
      8 C8        -51.8921  -29.9753    6.7670 C.3       14 UNK         0.0286 
      9 C9        -52.2717  -28.7770    7.6260 C.ar      14 UNK        -0.0844 
     10 C10       -52.7531  -27.6110    7.0256 C.ar      14 UNK        -0.0881 
     11 C11       -53.1679  -26.5280    7.8054 C.ar      14 UNK        -0.0643 
     12 C12       -53.1018  -26.6176    9.1995 C.ar      14 UNK        -0.0930 
     13 C13       -52.6201  -27.7788    9.8135 C.ar      14 UNK        -0.0827 
     14 C14       -52.1907  -28.8481    9.0197 C.ar      14 UNK        -0.1249 
     15 C15       -52.5888  -27.8873   11.3341 C.3       14 UNK         0.0141 
     16 S16       -53.5529  -29.3107   11.9455 S.3       14 UNK        -0.2313 
     17 C17       -55.2335  -28.8888   11.3761 C.3       14 UNK        -0.0915 
     18 CA        -56.3634  -29.2372   12.3816 C.3       13 UNK         0.0968 
     19 C         -56.5278  -30.7681   12.6280 C.2       13 UNK         0.5732 
     20 N         -56.6121  -31.2494   13.8633 N.am      13 UNK        -0.7310 
     21 O         -56.6102  -31.5379   11.6733 O.2       13 UNK        -0.5035 
     22 N         -56.2978  -28.4142   13.6001 N.am      13 UNK        -0.4233 
     23 C         -57.3690  -28.0711   14.3260 C.2       13 UNK         0.4989 
     24 O         -58.5266  -28.3589   14.0133 O.2       13 UNK        -0.4996 
     25 CA        -57.0970  -27.2833   15.6218 C.3       12 UNK         0.0216 
     26 CB        -58.3856  -26.9522   16.4047 C.3       12 UNK        -0.1964 
     27 N         -56.1255  -27.9378   16.5066 N.am      12 UNK        -0.4276 
     28 C         -56.1612  -29.1851   16.9993 C.2       12 UNK         0.5020 
     29 O         -57.0270  -30.0165   16.7201 O.2       12 UNK        -0.5489 
     30 CA        -55.0242  -29.5467   17.9768 C.3       11 UNK         0.0294 
     31 CB        -54.9799  -31.0490   18.3339 C.3       11 UNK        -0.2019 
     32 N         -53.7157  -29.0604   17.5162 N.am      11 UNK        -0.4493 
     33 C         -53.0518  -29.4528   16.4182 C.2       11 UNK         0.4932 
     34 O         -53.4214  -30.3575   15.6687 O.2       11 UNK        -0.5029 
     35 CA        -51.7700  -28.6555   16.1042 C.3       10 UNK         0.0280 
     36 CB        -50.9823  -29.2232   14.9085 C.3       10 UNK        -0.1976 
     37 N         -52.0020  -27.2166   15.9066 N.am      10 UNK        -0.4242 
     38 C         -52.9446  -26.6200   15.1554 C.2       10 UNK         0.5072 
     39 O         -53.8554  -27.2042   14.5708 O.2       10 UNK        -0.5224 
     40 CA        -52.8734  -25.0885   15.0508 C.3       9 UNK         0.0343 
     41 CB        -53.6875  -24.4336   16.1788 C.3       9 UNK        -0.2003 
     42 N         -51.5045  -24.5649   15.0626 N.am      9 UNK        -0.4272 
     43 C         -50.6188  -24.7539   14.0752 C.2       9 UNK         0.4988 
     44 O         -50.8417  -25.4138   13.0585 O.2       9 UNK        -0.5108 
     45 CA        -49.2484  -24.0915   14.2484 C.3       8 UNK         0.0248 
     46 CB        -48.1386  -25.1461   14.3936 C.3       8 UNK        -0.2001 
     47 N         -49.0002  -23.2597   13.0733 N.am      8 UNK        -0.4140 
     48 C         -49.2840  -21.9528   13.0059 C.2       8 UNK         0.5028 
     49 O         -49.6123  -21.2710   13.9783 O.2       8 UNK        -0.5428 
     50 CA        -49.2132  -21.2857   11.6197 C.3       7 UNK         0.0264 
     51 CB        -47.8489  -20.6075   11.4114 C.3       7 UNK        -0.1988 
     52 N         -49.4865  -22.1855   10.4927 N.am      7 UNK        -0.4454 
     53 C         -50.6541  -22.8061   10.2550 C.2       7 UNK         0.5027 
     54 O         -51.6217  -22.7205   11.0121 O.2       7 UNK        -0.5083 
     55 CA        -50.8012  -23.6144    8.9397 C.3       6 UNK         0.0844 
     56 C56       -52.1161  -23.2173    8.2174 C.3       14 UNK        -0.0967 
     57 S57       -52.4021  -24.1234    6.6584 S.3       14 UNK        -0.2604 
     58 C58       -53.7227  -25.2830    7.1305 C.3       14 UNK         0.0134 
     59 N         -49.6387  -23.4930    8.0485 N.am      6 UNK        -0.4116 
     60 C         -48.4721  -24.1266    8.2027 C.2       5 UNK         0.5034 
     61 O         -48.2206  -24.8891    9.1452 O.2       5 UNK        -0.5045 
     62 CA        -47.3822  -23.8065    7.1667 C.3       5 UNK         0.0224 
     63 CB        -46.8671  -22.3639    7.3530 C.3       5 UNK        -0.1978 
     64 N         -46.3123  -24.7634    7.4003 N.am      5 UNK        -0.4737 
     65 C         -45.1450  -24.9398    6.7741 C.2       4 UNK         0.5027 
     66 O         -44.8062  -24.3397    5.7542 O.2       4 UNK        -0.5211 
     67 CA        -44.2104  -25.9846    7.4253 C.3       4 UNK         0.0297 
     68 CB        -42.7153  -25.7193    7.1502 C.3       4 UNK        -0.1993 
     69 N         -44.4986  -26.1398    8.8633 N.am      4 UNK        -0.4486 
     70 C         -44.3525  -25.1985    9.8132 C.2       3 UNK         0.4961 
     71 O         -43.6728  -24.1825    9.6652 O.2       3 UNK        -0.5105 
     72 CA        -45.1702  -25.3624   11.1104 C.3       3 UNK         0.0299 
     73 CB        -45.7280  -24.0063   11.5815 C.3       3 UNK        -0.1972 
     74 N         -46.2967  -26.2896   10.9420 N.am      3 UNK        -0.4305 
     75 C         -46.3260  -27.5416   11.4166 C.2       2 UNK         0.5006 
     76 O         -45.4179  -28.0426   12.0804 O.2       2 UNK        -0.5106 
     77 CA        -47.5603  -28.4017   11.0853 C.3       2 UNK         0.0296 
     78 CB        -48.6152  -28.2959   12.1969 C.3       2 UNK        -0.2002 
     79 N         -48.1996  -28.1448    9.7891 N.am      2 UNK        -0.4032 
     80 C         -47.5973  -28.2266    8.5949 C.2       1 UNK         0.5000 
     81 O         -46.3780  -28.3551    8.4467 O.2       1 UNK        -0.5238 
     82 H82       -46.8725  -25.5593    4.1112 H         1 UNK         0.0889 
     83 H83       -47.5390  -26.9237    3.2103 H         1 UNK         0.0889 
     84 H84       -46.1663  -27.1649    4.2943 H         1 UNK         0.0889 
     85 H85       -46.8147  -28.2434    6.1562 H         1 UNK         0.3028 
     86 H86       -49.3215  -27.5011    7.5505 H         1 UNK         0.0864 
     87 H87       -48.3342  -30.3541    6.9284 H         1 UNK         0.0720 
     88 H88       -49.5811  -29.9950    8.0878 H         1 UNK         0.0720 
     89 H89       -51.7898  -30.8756    7.3750 H         1 UNK         0.0814 
     90 H90       -52.7002  -30.1782    6.0628 H         1 UNK         0.0814 
     91 H91       -52.8133  -27.5509    5.9473 H         1 UNK         0.1469 
     92 H92       -53.4367  -25.7872    9.8059 H         1 UNK         0.1381 
     93 H93       -51.8301  -29.7513    9.4930 H         1 UNK         0.1206 
     94 H94       -52.9659  -26.9769   11.8033 H         1 UNK         0.0813 
     95 H95       -51.5554  -27.9903   11.6635 H         1 UNK         0.0813 
     96 H96       -55.4017  -29.3935   10.4232 H         1 UNK         0.0638 
     97 H97       -55.2745  -27.8220   11.1514 H         1 UNK         0.0638 
     98 H98       -57.2862  -28.9588   11.8693 H         1 UNK         0.0568 
     99 H99       -56.7246  -32.2412   13.9954 H         1 UNK         0.3450 
    100 H100      -56.5874  -30.6354   14.6671 H         1 UNK         0.3450 
    101 H101      -55.3681  -28.1475   13.9196 H         1 UNK         0.2987 
    102 H102      -56.6472  -26.3388   15.3118 H         1 UNK         0.0766 
    103 H103      -59.0863  -26.3892   15.7868 H         1 UNK         0.0798 
    104 H104      -58.1709  -26.3446   17.2838 H         1 UNK         0.0798 
    105 H105      -58.8979  -27.8554   16.7387 H         1 UNK         0.0798 
    106 H106      -55.3199  -27.3783   16.7449 H         1 UNK         0.3198 
    107 H107      -55.2422  -29.0049   18.8986 H         1 UNK         0.0843 
    108 H108      -54.8451  -31.6751   17.4516 H         1 UNK         0.0831 
    109 H109      -55.9102  -31.3619   18.8097 H         1 UNK         0.0831 
    110 H110      -54.1707  -31.2691   19.0299 H         1 UNK         0.0831 
    111 H111      -53.3114  -28.3114   18.0622 H         1 UNK         0.3133 
    112 H112      -51.1313  -28.7491   16.9839 H         1 UNK         0.0566 
    113 H113      -50.0247  -28.7167   14.7948 H         1 UNK         0.0814 
    114 H114      -51.5323  -29.1081   13.9765 H         1 UNK         0.0814 
    115 H115      -50.7750  -30.2860   15.0388 H         1 UNK         0.0814 
    116 H116      -51.3356  -26.6085   16.3605 H         1 UNK         0.3091 
    117 H117      -53.3277  -24.8073   14.0978 H         1 UNK         0.0702 
    118 H118      -53.7155  -23.3493   16.0682 H         1 UNK         0.0785 
    119 H119      -53.2753  -24.6603   17.1629 H         1 UNK         0.0785 
    120 H120      -54.7209  -24.7826   16.1685 H         1 UNK         0.0785 
    121 H121      -51.2414  -23.9934   15.8530 H         1 UNK         0.2998 
    122 H122      -49.2524  -23.4823   15.1550 H         1 UNK         0.0697 
    123 H123      -47.9959  -25.7155   13.4762 H         1 UNK         0.0825 
    124 H124      -48.3726  -25.8572   15.1870 H         1 UNK         0.0825 
    125 H125      -47.1868  -24.6816   14.6503 H         1 UNK         0.0825 
    126 H126      -48.8194  -23.7507   12.2098 H         1 UNK         0.3029 
    127 H127      -49.9806  -20.5086   11.6043 H         1 UNK         0.0897 
    128 H128      -47.0317  -21.3282   11.4044 H         1 UNK         0.0792 
    129 H129      -47.6437  -19.8946   12.2114 H         1 UNK         0.0792 
    130 H130      -47.8181  -20.0536   10.4729 H         1 UNK         0.0792 
    131 H131      -48.7463  -22.3041    9.8183 H         1 UNK         0.3086 
    132 H132      -50.8862  -24.6629    9.2334 H         1 UNK         0.0583 
    133 H133      -52.9745  -23.3653    8.8750 H         1 UNK         0.1020 
    134 H134      -52.1099  -22.1513    7.9813 H         1 UNK         0.1020 
    135 H135      -54.4543  -24.7875    7.7704 H         1 UNK         0.0694 
    136 H136      -54.2653  -25.5717    6.2290 H         1 UNK         0.0694 
    137 H137      -49.7678  -22.8956    7.2446 H         1 UNK         0.2989 
    138 H138      -47.7822  -23.9455    6.1608 H         1 UNK         0.1055 
    139 H139      -46.0991  -22.1163    6.6203 H         1 UNK         0.0806 
    140 H140      -46.4375  -22.2141    8.3446 H         1 UNK         0.0806 
    141 H141      -47.6670  -21.6335    7.2266 H         1 UNK         0.0806 
    142 H142      -46.4953  -25.3338    8.2158 H         1 UNK         0.3061 
    143 H143      -44.4610  -26.9410    6.9642 H         1 UNK         0.0734 
    144 H144      -42.4104  -24.7222    7.4682 H         1 UNK         0.0832 
    145 H145      -42.0820  -26.4449    7.6601 H         1 UNK         0.0832 
    146 H146      -42.4999  -25.7935    6.0836 H         1 UNK         0.0832 
    147 H147      -45.0567  -26.9595    9.0867 H         1 UNK         0.3156 
    148 H148      -44.4816  -25.7252   11.8758 H         1 UNK         0.0589 
    149 H149      -46.2759  -24.1057   12.5156 H         1 UNK         0.0808 
    150 H150      -46.3980  -23.5718   10.8396 H         1 UNK         0.0808 
    151 H151      -44.9282  -23.2870   11.7623 H         1 UNK         0.0808 
    152 H152      -47.0891  -25.9498   10.4037 H         1 UNK         0.3098 
    153 H153      -47.2119  -29.4364   11.0602 H         1 UNK         0.0720 
    154 H154      -49.1264  -27.3334   12.1775 H         1 UNK         0.0791 
    155 H155      -48.1620  -28.4088   13.1828 H         1 UNK         0.0791 
    156 H156      -49.3692  -29.0773   12.1003 H         1 UNK         0.0791 
    157 H157      -49.1996  -28.0050    9.8107 H         1 UNK         0.3028 
@<TRIPOS>BOND
     1    1    2 1    
     2    1   82 1    
     3    1   83 1    
     4    1   84 1    
     5    2    3 2    
     6    2    4 am   BACKBONE|DICT|INTERRES
     7    4    5 1    
     8    4   85 1    
     9    5    6 1    
    10    5   80 1    
    11    5   86 1    
    12    6    7 1    
    13    6   87 1    
    14    6   88 1    
    15    7    8 1    
    16    8    9 1    
    17    8   89 1    
    18    8   90 1    
    19    9   10 ar   
    20    9   14 ar   
    21   10   11 ar   
    22   10   91 1    
    23   11   12 ar   
    24   11   58 1    
    25   12   13 ar   
    26   12   92 1    
    27   13   14 ar   
    28   13   15 1    
    29   14   93 1    
    30   15   16 1    
    31   15   94 1    
    32   15   95 1    
    33   16   17 1    
    34   17   18 1    
    35   17   96 1    
    36   17   97 1    
    37   18   19 1    
    38   18   22 1    
    39   18   98 1    
    40   19   20 am   BACKBONE|DICT|INTERRES
    41   19   21 2    
    42   20   99 1    
    43   20  100 1    
    44   22   23 am   BACKBONE|DICT|INTERRES
    45   22  101 1    
    46   23   24 2    
    47   23   25 1    
    48   25   26 1    
    49   25   27 1    
    50   25  102 1    
    51   26  103 1    
    52   26  104 1    
    53   26  105 1    
    54   27   28 am   BACKBONE|DICT|INTERRES
    55   27  106 1    
    56   28   29 2    
    57   28   30 1    
    58   30   31 1    
    59   30   32 1    
    60   30  107 1    
    61   31  108 1    
    62   31  109 1    
    63   31  110 1    
    64   32   33 am   BACKBONE|DICT|INTERRES
    65   32  111 1    
    66   33   34 2    
    67   33   35 1    
    68   35   36 1    
    69   35   37 1    
    70   35  112 1    
    71   36  113 1    
    72   36  114 1    
    73   36  115 1    
    74   37   38 am   BACKBONE|DICT|INTERRES
    75   37  116 1    
    76   38   39 2    
    77   38   40 1    
    78   40   41 1    
    79   40   42 1    
    80   40  117 1    
    81   41  118 1    
    82   41  119 1    
    83   41  120 1    
    84   42   43 am   BACKBONE|DICT|INTERRES
    85   42  121 1    
    86   43   44 2    
    87   43   45 1    
    88   45   46 1    
    89   45   47 1    
    90   45  122 1    
    91   46  123 1    
    92   46  124 1    
    93   46  125 1    
    94   47   48 am   BACKBONE|DICT|INTERRES
    95   47  126 1    
    96   48   49 2    
    97   48   50 1    
    98   50   51 1    
    99   50   52 1    
   100   50  127 1    
   101   51  128 1    
   102   51  129 1    
   103   51  130 1    
   104   52   53 am   BACKBONE|DICT|INTERRES
   105   52  131 1    
   106   53   54 2    
   107   53   55 1    
   108   55   56 1    
   109   55   59 1    
   110   55  132 1    
   111   56   57 1    
   112   56  133 1    
   113   56  134 1    
   114   57   58 1    
   115   58  135 1    
   116   58  136 1    
   117   59   60 am   BACKBONE|DICT|INTERRES
   118   59  137 1    
   119   60   61 2    
   120   60   62 1    
   121   62   63 1    
   122   62   64 1    
   123   62  138 1    
   124   63  139 1    
   125   63  140 1    
   126   63  141 1    
   127   64   65 am   BACKBONE|DICT|INTERRES
   128   64  142 1    
   129   65   66 2    
   130   65   67 1    
   131   67   68 1    
   132   67   69 1    
   133   67  143 1    
   134   68  144 1    
   135   68  145 1    
   136   68  146 1    
   137   69   70 am   BACKBONE|DICT|INTERRES
   138   69  147 1    
   139   70   71 2    
   140   70   72 1    
   141   72   73 1    
   142   72   74 1    
   143   72  148 1    
   144   73  149 1    
   145   73  150 1    
   146   73  151 1    
   147   74   75 am   BACKBONE|DICT|INTERRES
   148   74  152 1    
   149   75   76 2    
   150   75   77 1    
   151   77   78 1    
   152   77   79 1    
   153   77  153 1    
   154   78  154 1    
   155   78  155 1    
   156   78  156 1    
   157   79   80 am   BACKBONE|DICT|INTERRES
   158   79  157 1    
   159   80   81 2    
@<TRIPOS>SUBSTRUCTURE
     1 UNK         1 GROUP             0       ****    0 ROOT    
