@<TRIPOS>MOLECULE
3R207
157   159    1
SMALL
USER_CHARGES


@<TRIPOS>ATOM
      1 CA        -45.5972  -30.7218    5.9453 C.3       0 UNK        -0.1975 
      2 C         -46.9450  -30.1451    6.3546 C.2       0 UNK         0.4852 
      3 O         -47.4150  -30.4402    7.4518 O.2       0 UNK        -0.5216 
      4 N         -47.5562  -29.3500    5.4654 N.am      1 UNK        -0.4461 
      5 CA        -48.7922  -28.5718    5.6261 C.3       1 UNK         0.0864 
      6 C6        -49.9619  -29.3182    6.3317 C.3       14 UNK        -0.0898 
      7 S7        -51.5957  -28.6873    5.8160 S.3       14 UNK        -0.2598 
      8 C8        -52.6839  -29.2971    7.1455 C.3       14 UNK         0.0286 
      9 C9        -52.5065  -28.5505    8.4634 C.ar      14 UNK        -0.0844 
     10 C10       -52.7564  -27.1762    8.5430 C.ar      14 UNK        -0.0881 
     11 C11       -52.6302  -26.4956    9.7592 C.ar      14 UNK        -0.0643 
     12 C12       -52.2637  -27.2057   10.9071 C.ar      14 UNK        -0.0930 
     13 C13       -52.0148  -28.5798   10.8421 C.ar      14 UNK        -0.0827 
     14 C14       -52.1351  -29.2452    9.6182 C.ar      14 UNK        -0.1249 
     15 C15       -51.5806  -29.3416   12.0873 C.3       14 UNK         0.0141 
     16 S16       -52.9480  -29.6262   13.2514 S.3       14 UNK        -0.2313 
     17 C17       -54.0655  -30.6919   12.2810 C.3       14 UNK        -0.0915 
     18 CA        -55.3920  -31.0361   13.0104 C.3       13 UNK         0.0968 
     19 C         -55.1838  -31.9976   14.2171 C.2       13 UNK         0.5732 
     20 N         -55.5501  -31.6242   15.4379 N.am      13 UNK        -0.7310 
     21 O         -54.7002  -33.1131   14.0376 O.2       13 UNK        -0.5035 
     22 N         -56.1805  -29.8289   13.3102 N.am      13 UNK        -0.4233 
     23 C         -57.5198  -29.7970   13.3866 C.2       13 UNK         0.4989 
     24 O         -58.2350  -30.7851   13.2145 O.2       13 UNK        -0.4996 
     25 CA        -58.1942  -28.4462   13.7040 C.3       12 UNK         0.0216 
     26 CB        -58.6511  -28.4049   15.1717 C.3       12 UNK        -0.1964 
     27 N         -57.3321  -27.2930   13.4429 N.am      12 UNK        -0.4276 
     28 C         -56.9434  -26.8730   12.2336 C.2       12 UNK         0.5020 
     29 O         -57.4129  -27.3196   11.1859 O.2       12 UNK        -0.5489 
     30 CA        -55.8377  -25.7950   12.1604 C.3       11 UNK         0.0294 
     31 CB        -56.2989  -24.6006   11.3058 C.3       11 UNK        -0.2019 
     32 N         -55.3075  -25.2783   13.4339 N.am      11 UNK        -0.4493 
     33 C         -54.7096  -25.9758   14.4098 C.2       11 UNK         0.4932 
     34 O         -54.6877  -27.2051   14.4635 O.2       11 UNK        -0.5029 
     35 CA        -54.0977  -25.1552   15.5577 C.3       10 UNK         0.0280 
     36 CB        -55.1279  -24.9648   16.6830 C.3       10 UNK        -0.1976 
     37 N         -52.8924  -25.7818   16.1100 N.am      10 UNK        -0.4242 
     38 C         -51.7550  -25.9803   15.4297 C.2       10 UNK         0.5072 
     39 O         -51.5891  -25.6372   14.2602 O.2       10 UNK        -0.5224 
     40 CA        -50.6238  -26.6884   16.1851 C.3       9 UNK         0.0343 
     41 CB        -50.8345  -28.2135   16.1905 C.3       9 UNK        -0.2003 
     42 N         -49.3309  -26.3769   15.5734 N.am      9 UNK        -0.4272 
     43 C         -48.1637  -26.3472   16.2297 C.2       9 UNK         0.4988 
     44 O         -48.0565  -26.5581   17.4390 O.2       9 UNK        -0.5108 
     45 CA        -46.8927  -26.0458   15.4171 C.3       8 UNK         0.0248 
     46 CB        -46.3885  -27.3101   14.7011 C.3       8 UNK        -0.2001 
     47 N         -47.0729  -24.9658   14.4463 N.am      8 UNK        -0.4140 
     48 C         -47.0875  -23.6606   14.7543 C.2       8 UNK         0.5028 
     49 O         -46.9438  -23.2249   15.8975 O.2       8 UNK        -0.5428 
     50 CA        -47.2866  -22.6664   13.5951 C.3       7 UNK         0.0264 
     51 CB        -45.9345  -22.2459   12.9969 C.3       7 UNK        -0.1988 
     52 N         -48.1352  -23.2101   12.5357 N.am      7 UNK        -0.4454 
     53 C         -49.4604  -23.3785   12.6438 C.2       7 UNK         0.5027 
     54 O         -50.1213  -22.9457   13.5884 O.2       7 UNK        -0.5083 
     55 CA        -50.1617  -24.1646   11.5171 C.3       6 UNK         0.0844 
     56 C56       -50.7937  -23.1997   10.4864 C.3       14 UNK        -0.0967 
     57 S57       -51.5746  -24.0303    9.0619 S.3       14 UNK        -0.2604 
     58 C58       -52.9140  -25.0007    9.8252 C.3       14 UNK         0.0134 
     59 N         -49.2821  -25.1629   10.9013 N.am      6 UNK        -0.4116 
     60 C         -48.8406  -26.2743   11.5057 C.2       5 UNK         0.5034 
     61 O         -49.1026  -26.5783   12.6672 O.2       5 UNK        -0.5045 
     62 CA        -47.9059  -27.1810   10.6927 C.3       5 UNK         0.0224 
     63 CB        -48.7136  -28.1792    9.8599 C.3       5 UNK        -0.1978 
     64 N         -47.0090  -26.4253    9.8172 N.am      5 UNK        -0.4737 
     65 C         -46.0098  -25.6614   10.2765 C.2       4 UNK         0.5027 
     66 O         -45.7352  -25.5422   11.4709 O.2       4 UNK        -0.5211 
     67 CA        -45.2159  -24.8614    9.2333 C.3       4 UNK         0.0297 
     68 CB        -44.2390  -25.7767    8.4776 C.3       4 UNK        -0.1993 
     69 N         -46.0593  -24.1428    8.2721 N.am      4 UNK        -0.4486 
     70 C         -47.0065  -23.2439    8.5802 C.2       3 UNK         0.4961 
     71 O         -47.3357  -22.9669    9.7325 O.2       3 UNK        -0.5105 
     72 CA        -47.7080  -22.5168    7.4180 C.3       3 UNK         0.0299 
     73 CB        -47.2954  -21.0362    7.4011 C.3       3 UNK        -0.1972 
     74 N         -47.4076  -23.1032    6.1064 N.am      3 UNK        -0.4305 
     75 C         -48.0106  -24.1455    5.5160 C.2       2 UNK         0.5006 
     76 O         -47.6295  -24.5668    4.4233 O.2       2 UNK        -0.5106 
     77 CA        -49.2444  -24.7971    6.1781 C.3       2 UNK         0.0296 
     78 CB        -50.5251  -24.0885    5.7036 C.3       2 UNK        -0.2002 
     79 N         -49.3564  -26.2138    5.8408 N.am      2 UNK        -0.4032 
     80 C         -48.5117  -27.1775    6.2271 C.2       1 UNK         0.5000 
     81 O         -47.5644  -26.9890    6.9979 O.2       1 UNK        -0.5238 
     82 H82       -45.6353  -31.8107    5.9597 H         1 UNK         0.0889 
     83 H83       -44.8256  -30.3985    6.6436 H         1 UNK         0.0889 
     84 H84       -45.3022  -30.4062    4.9447 H         1 UNK         0.0889 
     85 H85       -47.0748  -29.1690    4.5955 H         1 UNK         0.3028 
     86 H86       -49.1006  -28.3984    4.5933 H         1 UNK         0.0864 
     87 H87       -49.8680  -29.2651    7.4170 H         1 UNK         0.0720 
     88 H88       -49.9370  -30.3790    6.0780 H         1 UNK         0.0720 
     89 H89       -52.5182  -30.3677    7.2758 H         1 UNK         0.0814 
     90 H90       -53.7202  -29.1880    6.8233 H         1 UNK         0.0814 
     91 H91       -53.0473  -26.6330    7.6543 H         1 UNK         0.1469 
     92 H92       -52.1690  -26.6962   11.8565 H         1 UNK         0.1381 
     93 H93       -51.9432  -30.3082    9.5672 H         1 UNK         0.1206 
     94 H94       -50.8031  -28.7732   12.5998 H         1 UNK         0.0813 
     95 H95       -51.1322  -30.2996   11.8204 H         1 UNK         0.0813 
     96 H96       -53.5297  -31.6004   12.0006 H         1 UNK         0.0638 
     97 H97       -54.2981  -30.1816   11.3455 H         1 UNK         0.0638 
     98 H98       -55.9734  -31.6218   12.2958 H         1 UNK         0.0568 
     99 H99       -55.4172  -32.2585   16.2093 H         1 UNK         0.3450 
    100 H100      -55.9377  -30.7085   15.5948 H         1 UNK         0.3450 
    101 H101      -55.6463  -28.9912   13.5108 H         1 UNK         0.2987 
    102 H102      -59.0763  -28.3633   13.0656 H         1 UNK         0.0766 
    103 H103      -59.1986  -27.4880   15.3910 H         1 UNK         0.0798 
    104 H104      -57.8072  -28.4654   15.8602 H         1 UNK         0.0798 
    105 H105      -59.3170  -29.2391   15.3975 H         1 UNK         0.0798 
    106 H106      -56.8306  -26.9142   14.2349 H         1 UNK         0.3198 
    107 H107      -55.0005  -26.2723   11.6480 H         1 UNK         0.0843 
    108 H108      -57.1486  -24.0886   11.7591 H         1 UNK         0.0831 
    109 H109      -55.5011  -23.8707   11.1693 H         1 UNK         0.0831 
    110 H110      -56.6074  -24.9235   10.3104 H         1 UNK         0.0831 
    111 H111      -55.3214  -24.2727   13.5281 H         1 UNK         0.3133 
    112 H112      -53.8131  -24.1735   15.1730 H         1 UNK         0.0566 
    113 H113      -54.7294  -24.3452   17.4867 H         1 UNK         0.0814 
    114 H114      -56.0274  -24.4709   16.3130 H         1 UNK         0.0814 
    115 H115      -55.4349  -25.9188   17.1145 H         1 UNK         0.0814 
    116 H116      -52.9599  -26.1337   17.0536 H         1 UNK         0.3091 
    117 H117      -50.6339  -26.3196   17.2131 H         1 UNK         0.0702 
    118 H118      -50.7692  -28.6256   15.1831 H         1 UNK         0.0785 
    119 H119      -51.8150  -28.4787   16.5879 H         1 UNK         0.0785 
    120 H120      -50.0878  -28.7157   16.8057 H         1 UNK         0.0785 
    121 H121      -49.3595  -26.2057   14.5692 H         1 UNK         0.2998 
    122 H122      -46.1168  -25.7379   16.1216 H         1 UNK         0.0697 
    123 H123      -47.1266  -27.7069   14.0043 H         1 UNK         0.0825 
    124 H124      -46.1663  -28.0997   15.4200 H         1 UNK         0.0825 
    125 H125      -45.4735  -27.1123   14.1421 H         1 UNK         0.0825 
    126 H126      -47.1931  -25.2366   13.4792 H         1 UNK         0.3029 
    127 H127      -47.7706  -21.7753   14.0012 H         1 UNK         0.0897 
    128 H128      -46.0641  -21.5093   12.2035 H         1 UNK         0.0792 
    129 H129      -45.2949  -21.7962   13.7575 H         1 UNK         0.0792 
    130 H130      -45.3951  -23.0958   12.5776 H         1 UNK         0.0792 
    131 H131      -47.6796  -23.4869   11.6711 H         1 UNK         0.3086 
    132 H132      -50.9770  -24.7120   11.9863 H         1 UNK         0.0583 
    133 H133      -51.5443  -22.5703   10.9688 H         1 UNK         0.1020 
    134 H134      -50.0390  -22.5160   10.0926 H         1 UNK         0.1020 
    135 H135      -53.0778  -24.6798   10.8548 H         1 UNK         0.0694 
    136 H136      -53.8423  -24.7909    9.2923 H         1 UNK         0.0694 
    137 H137      -48.9930  -24.9803    9.9529 H         1 UNK         0.2989 
    138 H138      -47.2911  -27.7459   11.3971 H         1 UNK         0.1055 
    139 H139      -49.4486  -27.6809    9.2260 H         1 UNK         0.0806 
    140 H140      -49.2469  -28.8769   10.5034 H         1 UNK         0.0806 
    141 H141      -48.0621  -28.7714    9.2219 H         1 UNK         0.0806 
    142 H142      -47.1569  -26.5084    8.8128 H         1 UNK         0.3061 
    143 H143      -44.6325  -24.1129    9.7736 H         1 UNK         0.0734 
    144 H144      -43.5869  -25.2044    7.8176 H         1 UNK         0.0832 
    145 H145      -43.5969  -26.3200    9.1724 H         1 UNK         0.0832 
    146 H146      -44.7643  -26.5173    7.8725 H         1 UNK         0.0832 
    147 H147      -45.8794  -24.3234    7.2953 H         1 UNK         0.3156 
    148 H148      -48.7819  -22.5478    7.6063 H         1 UNK         0.0589 
    149 H149      -46.2240  -20.9147    7.2359 H         1 UNK         0.0808 
    150 H150      -47.8208  -20.4864    6.6199 H         1 UNK         0.0808 
    151 H151      -47.5346  -20.5525    8.3496 H         1 UNK         0.0808 
    152 H152      -46.6336  -22.6797    5.6145 H         1 UNK         0.3098 
    153 H153      -49.1751  -24.7399    7.2643 H         1 UNK         0.0720 
    154 H154      -51.4178  -24.5581    6.1172 H         1 UNK         0.0791 
    155 H155      -50.6159  -24.1039    4.6166 H         1 UNK         0.0791 
    156 H156      -50.5367  -23.0437    6.0156 H         1 UNK         0.0791 
    157 H157      -50.1084  -26.4632    5.2148 H         1 UNK         0.3028 
@<TRIPOS>BOND
     1    1    2 1    
     2    1   82 1    
     3    1   83 1    
     4    1   84 1    
     5    2    3 2    
     6    2    4 am   BACKBONE|DICT|INTERRES
     7    4    5 1    
     8    4   85 1    
     9    5    6 1    
    10    5   80 1    
    11    5   86 1    
    12    6    7 1    
    13    6   87 1    
    14    6   88 1    
    15    7    8 1    
    16    8    9 1    
    17    8   89 1    
    18    8   90 1    
    19    9   10 ar   
    20    9   14 ar   
    21   10   11 ar   
    22   10   91 1    
    23   11   12 ar   
    24   11   58 1    
    25   12   13 ar   
    26   12   92 1    
    27   13   14 ar   
    28   13   15 1    
    29   14   93 1    
    30   15   16 1    
    31   15   94 1    
    32   15   95 1    
    33   16   17 1    
    34   17   18 1    
    35   17   96 1    
    36   17   97 1    
    37   18   19 1    
    38   18   22 1    
    39   18   98 1    
    40   19   20 am   BACKBONE|DICT|INTERRES
    41   19   21 2    
    42   20   99 1    
    43   20  100 1    
    44   22   23 am   BACKBONE|DICT|INTERRES
    45   22  101 1    
    46   23   24 2    
    47   23   25 1    
    48   25   26 1    
    49   25   27 1    
    50   25  102 1    
    51   26  103 1    
    52   26  104 1    
    53   26  105 1    
    54   27   28 am   BACKBONE|DICT|INTERRES
    55   27  106 1    
    56   28   29 2    
    57   28   30 1    
    58   30   31 1    
    59   30   32 1    
    60   30  107 1    
    61   31  108 1    
    62   31  109 1    
    63   31  110 1    
    64   32   33 am   BACKBONE|DICT|INTERRES
    65   32  111 1    
    66   33   34 2    
    67   33   35 1    
    68   35   36 1    
    69   35   37 1    
    70   35  112 1    
    71   36  113 1    
    72   36  114 1    
    73   36  115 1    
    74   37   38 am   BACKBONE|DICT|INTERRES
    75   37  116 1    
    76   38   39 2    
    77   38   40 1    
    78   40   41 1    
    79   40   42 1    
    80   40  117 1    
    81   41  118 1    
    82   41  119 1    
    83   41  120 1    
    84   42   43 am   BACKBONE|DICT|INTERRES
    85   42  121 1    
    86   43   44 2    
    87   43   45 1    
    88   45   46 1    
    89   45   47 1    
    90   45  122 1    
    91   46  123 1    
    92   46  124 1    
    93   46  125 1    
    94   47   48 am   BACKBONE|DICT|INTERRES
    95   47  126 1    
    96   48   49 2    
    97   48   50 1    
    98   50   51 1    
    99   50   52 1    
   100   50  127 1    
   101   51  128 1    
   102   51  129 1    
   103   51  130 1    
   104   52   53 am   BACKBONE|DICT|INTERRES
   105   52  131 1    
   106   53   54 2    
   107   53   55 1    
   108   55   56 1    
   109   55   59 1    
   110   55  132 1    
   111   56   57 1    
   112   56  133 1    
   113   56  134 1    
   114   57   58 1    
   115   58  135 1    
   116   58  136 1    
   117   59   60 am   BACKBONE|DICT|INTERRES
   118   59  137 1    
   119   60   61 2    
   120   60   62 1    
   121   62   63 1    
   122   62   64 1    
   123   62  138 1    
   124   63  139 1    
   125   63  140 1    
   126   63  141 1    
   127   64   65 am   BACKBONE|DICT|INTERRES
   128   64  142 1    
   129   65   66 2    
   130   65   67 1    
   131   67   68 1    
   132   67   69 1    
   133   67  143 1    
   134   68  144 1    
   135   68  145 1    
   136   68  146 1    
   137   69   70 am   BACKBONE|DICT|INTERRES
   138   69  147 1    
   139   70   71 2    
   140   70   72 1    
   141   72   73 1    
   142   72   74 1    
   143   72  148 1    
   144   73  149 1    
   145   73  150 1    
   146   73  151 1    
   147   74   75 am   BACKBONE|DICT|INTERRES
   148   74  152 1    
   149   75   76 2    
   150   75   77 1    
   151   77   78 1    
   152   77   79 1    
   153   77  153 1    
   154   78  154 1    
   155   78  155 1    
   156   78  156 1    
   157   79   80 am   BACKBONE|DICT|INTERRES
   158   79  157 1    
   159   80   81 2    
@<TRIPOS>SUBSTRUCTURE
     1 UNK         1 GROUP             0       ****    0 ROOT    
