@<TRIPOS>MOLECULE
3R207
157   159    1
SMALL
USER_CHARGES


@<TRIPOS>ATOM
      1 CA        -49.2220  -30.4505    2.1516 C.3       0 UNK        -0.1975 
      2 C         -48.3864  -29.7220    3.1938 C.2       0 UNK         0.4852 
      3 O         -47.1583  -29.7218    3.1024 O.2       0 UNK        -0.5216 
      4 N         -49.0435  -29.1029    4.1842 N.am      1 UNK        -0.4461 
      5 CA        -48.4043  -28.3472    5.2700 C.3       1 UNK         0.0864 
      6 C6        -49.4198  -27.4549    6.0319 C.3       14 UNK        -0.0898 
      7 S7        -50.0894  -26.1170    4.9926 S.3       14 UNK        -0.2598 
      8 C8        -51.7825  -26.7002    4.6422 C.3       14 UNK         0.0286 
      9 C9        -52.7165  -26.6739    5.8501 C.ar      14 UNK        -0.0844 
     10 C10       -52.8117  -25.5367    6.6633 C.ar      14 UNK        -0.0881 
     11 C11       -53.7324  -25.4908    7.7149 C.ar      14 UNK        -0.0643 
     12 C12       -54.5669  -26.5859    7.9451 C.ar      14 UNK        -0.0930 
     13 C13       -54.4762  -27.7311    7.1523 C.ar      14 UNK        -0.0827 
     14 C14       -53.5467  -27.7716    6.1084 C.ar      14 UNK        -0.1249 
     15 C15       -55.4193  -28.8994    7.4037 C.3       14 UNK         0.0141 
     16 S16       -54.6703  -30.2225    8.4085 S.3       14 UNK        -0.2313 
     17 C17       -54.1633  -29.3664    9.9400 C.3       14 UNK        -0.0915 
     18 CA        -55.3059  -28.8585   10.8584 C.3       13 UNK         0.0968 
     19 C         -56.0796  -30.0264   11.5440 C.2       13 UNK         0.5732 
     20 N         -55.8919  -30.2874   12.8330 N.am      13 UNK        -0.7310 
     21 O         -56.8852  -30.6945   10.9008 O.2       13 UNK        -0.5035 
     22 N         -54.7724  -27.8557   11.7922 N.am      13 UNK        -0.4233 
     23 C         -55.5066  -27.0258   12.5430 C.2       13 UNK         0.4989 
     24 O         -56.7273  -26.9061   12.4245 O.2       13 UNK        -0.4996 
     25 CA        -54.7534  -26.1941   13.6085 C.3       12 UNK         0.0216 
     26 CB        -55.6485  -25.8511   14.8171 C.3       12 UNK        -0.1964 
     27 N         -53.4855  -26.7758   14.0837 N.am      12 UNK        -0.4276 
     28 C         -53.2785  -28.0033   14.5891 C.2       12 UNK         0.5020 
     29 O         -54.1362  -28.8844   14.6463 O.2       12 UNK        -0.5489 
     30 CA        -51.8660  -28.2914   15.1144 C.3       11 UNK         0.0294 
     31 CB        -50.9026  -28.6092   13.9585 C.3       11 UNK        -0.2019 
     32 N         -51.3514  -27.1556   15.8771 N.am      11 UNK        -0.4493 
     33 C         -51.5880  -26.9370   17.1781 C.2       11 UNK         0.4932 
     34 O         -52.2314  -27.7096   17.8898 O.2       11 UNK        -0.5029 
     35 CA        -51.0361  -25.6292   17.7843 C.3       10 UNK         0.0280 
     36 CB        -50.6165  -25.7857   19.2615 C.3       10 UNK        -0.1976 
     37 N         -49.9680  -25.0141   16.9856 N.am      10 UNK        -0.4242 
     38 C         -48.7443  -25.5078   16.7277 C.2       10 UNK         0.5072 
     39 O         -48.3042  -26.5424   17.2299 O.2       10 UNK        -0.5224 
     40 CA        -47.8713  -24.7541   15.7045 C.3       9 UNK         0.0343 
     41 CB        -47.5773  -25.6526   14.4888 C.3       9 UNK        -0.2003 
     42 N         -48.4946  -23.5108   15.2417 N.am      9 UNK        -0.4272 
     43 C         -48.3706  -22.3215   15.8496 C.2       9 UNK         0.4988 
     44 O         -47.6148  -22.1156   16.7991 O.2       9 UNK        -0.5108 
     45 CA        -49.2653  -21.1731   15.3441 C.3       8 UNK         0.0248 
     46 CB        -48.4757  -20.1979   14.4583 C.3       8 UNK        -0.2001 
     47 N         -50.4552  -21.6354   14.6219 N.am      8 UNK        -0.4140 
     48 C         -51.5023  -22.2367   15.2058 C.2       8 UNK         0.5028 
     49 O         -51.5759  -22.4548   16.4143 O.2       8 UNK        -0.5428 
     50 CA        -52.6192  -22.7477   14.2823 C.3       7 UNK         0.0264 
     51 CB        -53.6455  -21.6413   13.9966 C.3       7 UNK        -0.1988 
     52 N         -52.1070  -23.2814   13.0184 N.am      7 UNK        -0.4454 
     53 C         -51.3358  -24.3711   12.9110 C.2       7 UNK         0.5027 
     54 O         -51.0075  -25.0578   13.8814 O.2       7 UNK        -0.5083 
     55 CA        -50.8590  -24.7888   11.5044 C.3       6 UNK         0.0844 
     56 C56       -51.6478  -24.1764   10.3111 C.3       14 UNK        -0.0967 
     57 S57       -53.4240  -24.5893   10.3141 S.3       14 UNK        -0.2604 
     58 C58       -53.8737  -24.2510    8.5837 C.3       14 UNK         0.0134 
     59 N         -49.4159  -24.5777   11.3760 N.am      6 UNK        -0.4116 
     60 C         -48.7780  -23.3955   11.3779 C.2       5 UNK         0.5034 
     61 O         -49.3395  -22.3262   11.6219 O.2       5 UNK        -0.5045 
     62 CA        -47.2695  -23.3808   11.0490 C.3       5 UNK         0.0224 
     63 CB        -46.4562  -22.6092   12.1023 C.3       5 UNK        -0.1978 
     64 N         -46.6884  -24.7145   10.8745 N.am      5 UNK        -0.4737 
     65 C         -46.7966  -25.4578    9.7662 C.2       4 UNK         0.5027 
     66 O         -47.3790  -25.0839    8.7481 O.2       4 UNK        -0.5211 
     67 CA        -46.1860  -26.8694    9.8046 C.3       4 UNK         0.0297 
     68 CB        -45.2654  -27.1369   11.0188 C.3       4 UNK        -0.1993 
     69 N         -47.2288  -27.8944    9.7112 N.am      4 UNK        -0.4486 
     70 C         -48.2575  -28.0870   10.5538 C.2       3 UNK         0.4961 
     71 O         -48.4655  -27.3799   11.5408 O.2       3 UNK        -0.5105 
     72 CA        -49.2502  -29.2278   10.2467 C.3       3 UNK         0.0299 
     73 CB        -50.6681  -28.6670   10.0624 C.3       3 UNK        -0.1972 
     74 N         -48.9221  -30.0024    9.0506 N.am      3 UNK        -0.4305 
     75 C         -47.9460  -30.9120    8.9229 C.2       2 UNK         0.5006 
     76 O         -47.2445  -31.3056    9.8543 O.2       2 UNK        -0.5106 
     77 CA        -47.6823  -31.4310    7.4929 C.3       2 UNK         0.0296 
     78 CB        -48.3521  -32.7984    7.2822 C.3       2 UNK        -0.2002 
     79 N         -48.1325  -30.5026    6.4442 N.am      2 UNK        -0.4032 
     80 C         -47.6651  -29.2543    6.2745 C.2       1 UNK         0.5000 
     81 O         -46.7308  -28.7897    6.9297 O.2       1 UNK        -0.5238 
     82 H82       -49.0297  -30.0371    1.1619 H         1 UNK         0.0889 
     83 H83       -50.2900  -30.3664    2.3518 H         1 UNK         0.0889 
     84 H84       -48.9622  -31.5087    2.1353 H         1 UNK         0.0889 
     85 H85       -50.0524  -29.1239    4.1961 H         1 UNK         0.3028 
     86 H86       -47.6475  -27.6970    4.8248 H         1 UNK         0.0864 
     87 H87       -50.2377  -28.0499    6.4427 H         1 UNK         0.0720 
     88 H88       -48.9416  -26.9708    6.8869 H         1 UNK         0.0720 
     89 H89       -51.7314  -27.7008    4.2119 H         1 UNK         0.0814 
     90 H90       -52.2110  -26.0614    3.8689 H         1 UNK         0.0814 
     91 H91       -52.1826  -24.6802    6.4630 H         1 UNK         0.1469 
     92 H92       -55.2891  -26.5414    8.7486 H         1 UNK         0.1381 
     93 H93       -53.4920  -28.6511    5.4814 H         1 UNK         0.1206 
     94 H94       -55.7304  -29.3246    6.4485 H         1 UNK         0.0813 
     95 H95       -56.3354  -28.5550    7.8852 H         1 UNK         0.0813 
     96 H96       -53.5283  -28.5315    9.6435 H         1 UNK         0.0638 
     97 H97       -53.5157  -30.0432   10.4998 H         1 UNK         0.0638 
     98 H98       -56.0347  -28.3386   10.2359 H         1 UNK         0.0568 
     99 H99       -55.2503  -29.7367   13.3988 H         1 UNK         0.3450 
    100 H100      -56.4089  -31.0392   13.2590 H         1 UNK         0.3450 
    101 H101      -53.7811  -27.8963   11.9663 H         1 UNK         0.2987 
    102 H102      -54.4930  -25.2550   13.1189 H         1 UNK         0.0766 
    103 H103      -55.1186  -25.2320   15.5410 H         1 UNK         0.0798 
    104 H104      -55.9883  -26.7510   15.3313 H         1 UNK         0.0798 
    105 H105      -56.5351  -25.2957   14.5088 H         1 UNK         0.0798 
    106 H106      -52.6876  -26.1494   14.0789 H         1 UNK         0.3198 
    107 H107      -51.9204  -29.1694   15.7621 H         1 UNK         0.0843 
    108 H108      -50.7511  -27.7507   13.3042 H         1 UNK         0.0831 
    109 H109      -51.2790  -29.4301   13.3465 H         1 UNK         0.0831 
    110 H110      -49.9240  -28.9092   14.3337 H         1 UNK         0.0831 
    111 H111      -50.8617  -26.4391   15.3517 H         1 UNK         0.3133 
    112 H112      -51.8654  -24.9213   17.7570 H         1 UNK         0.0566 
    113 H113      -50.2332  -24.8492   19.6664 H         1 UNK         0.0814 
    114 H114      -51.4653  -26.0803   19.8798 H         1 UNK         0.0814 
    115 H115      -49.8467  -26.5474   19.3876 H         1 UNK         0.0814 
    116 H116      -50.2307  -24.1409   16.5441 H         1 UNK         0.3091 
    117 H117      -46.9220  -24.5271   16.1940 H         1 UNK         0.0702 
    118 H118      -46.8863  -25.1747   13.7979 H         1 UNK         0.0785 
    119 H119      -48.4833  -25.9082   13.9392 H         1 UNK         0.0785 
    120 H120      -47.1149  -26.5915   14.7961 H         1 UNK         0.0785 
    121 H121      -49.1583  -23.5986   14.4851 H         1 UNK         0.2998 
    122 H122      -49.5997  -20.6229   16.2264 H         1 UNK         0.0697 
    123 H123      -48.2082  -20.6476   13.5043 H         1 UNK         0.0825 
    124 H124      -47.5521  -19.8805   14.9447 H         1 UNK         0.0825 
    125 H125      -49.0555  -19.2988   14.2493 H         1 UNK         0.0825 
    126 H126      -50.4485  -21.5336   13.6146 H         1 UNK         0.3029 
    127 H127      -53.1309  -23.5577   14.8068 H         1 UNK         0.0897 
    128 H128      -54.0563  -21.2419   14.9251 H         1 UNK         0.0792 
    129 H129      -54.4833  -22.0203   13.4107 H         1 UNK         0.0792 
    130 H130      -53.2028  -20.8074   13.4503 H         1 UNK         0.0792 
    131 H131      -52.3548  -22.7825   12.1756 H         1 UNK         0.3086 
    132 H132      -50.9978  -25.8690   11.4586 H         1 UNK         0.0583 
    133 H133      -51.5376  -23.0915   10.2705 H         1 UNK         0.1020 
    134 H134      -51.2201  -24.5498    9.3786 H         1 UNK         0.1020 
    135 H135      -54.9122  -23.9183    8.5530 H         1 UNK         0.0694 
    136 H136      -53.2769  -23.4234    8.1969 H         1 UNK         0.0694 
    137 H137      -48.8667  -25.4245   11.2654 H         1 UNK         0.2989 
    138 H138      -47.1691  -22.8442   10.1026 H         1 UNK         0.1055 
    139 H139      -45.3850  -22.6845   11.9142 H         1 UNK         0.0806 
    140 H140      -46.6452  -22.9635   13.1148 H         1 UNK         0.0806 
    141 H141      -46.7030  -21.5484   12.0736 H         1 UNK         0.0806 
    142 H142      -46.2124  -25.1150   11.6697 H         1 UNK         0.3061 
    143 H143      -45.5789  -26.9631    8.9028 H         1 UNK         0.0734 
    144 H144      -44.8014  -28.1203   10.9419 H         1 UNK         0.0832 
    145 H145      -44.4550  -26.4083   11.0683 H         1 UNK         0.0832 
    146 H146      -45.8026  -27.1059   11.9674 H         1 UNK         0.0832 
    147 H147      -47.1711  -28.4713    8.8785 H         1 UNK         0.3156 
    148 H148      -49.2511  -29.9028   11.1049 H         1 UNK         0.0589 
    149 H149      -50.7098  -27.9058    9.2814 H         1 UNK         0.0808 
    150 H150      -51.3593  -29.4628    9.7912 H         1 UNK         0.0808 
    151 H151      -51.0385  -28.2143   10.9807 H         1 UNK         0.0808 
    152 H152      -49.4553  -29.7795    8.2243 H         1 UNK         0.3098 
    153 H153      -46.6027  -31.5556    7.3856 H         1 UNK         0.0720 
    154 H154      -48.1078  -33.2141    6.3044 H         1 UNK         0.0791 
    155 H155      -49.4382  -32.7339    7.3595 H         1 UNK         0.0791 
    156 H156      -48.0145  -33.5171    8.0305 H         1 UNK         0.0791 
    157 H157      -48.8880  -30.8149    5.8514 H         1 UNK         0.3028 
@<TRIPOS>BOND
     1    1    2 1    
     2    1   82 1    
     3    1   83 1    
     4    1   84 1    
     5    2    3 2    
     6    2    4 am   BACKBONE|DICT|INTERRES
     7    4    5 1    
     8    4   85 1    
     9    5    6 1    
    10    5   80 1    
    11    5   86 1    
    12    6    7 1    
    13    6   87 1    
    14    6   88 1    
    15    7    8 1    
    16    8    9 1    
    17    8   89 1    
    18    8   90 1    
    19    9   10 ar   
    20    9   14 ar   
    21   10   11 ar   
    22   10   91 1    
    23   11   12 ar   
    24   11   58 1    
    25   12   13 ar   
    26   12   92 1    
    27   13   14 ar   
    28   13   15 1    
    29   14   93 1    
    30   15   16 1    
    31   15   94 1    
    32   15   95 1    
    33   16   17 1    
    34   17   18 1    
    35   17   96 1    
    36   17   97 1    
    37   18   19 1    
    38   18   22 1    
    39   18   98 1    
    40   19   20 am   BACKBONE|DICT|INTERRES
    41   19   21 2    
    42   20   99 1    
    43   20  100 1    
    44   22   23 am   BACKBONE|DICT|INTERRES
    45   22  101 1    
    46   23   24 2    
    47   23   25 1    
    48   25   26 1    
    49   25   27 1    
    50   25  102 1    
    51   26  103 1    
    52   26  104 1    
    53   26  105 1    
    54   27   28 am   BACKBONE|DICT|INTERRES
    55   27  106 1    
    56   28   29 2    
    57   28   30 1    
    58   30   31 1    
    59   30   32 1    
    60   30  107 1    
    61   31  108 1    
    62   31  109 1    
    63   31  110 1    
    64   32   33 am   BACKBONE|DICT|INTERRES
    65   32  111 1    
    66   33   34 2    
    67   33   35 1    
    68   35   36 1    
    69   35   37 1    
    70   35  112 1    
    71   36  113 1    
    72   36  114 1    
    73   36  115 1    
    74   37   38 am   BACKBONE|DICT|INTERRES
    75   37  116 1    
    76   38   39 2    
    77   38   40 1    
    78   40   41 1    
    79   40   42 1    
    80   40  117 1    
    81   41  118 1    
    82   41  119 1    
    83   41  120 1    
    84   42   43 am   BACKBONE|DICT|INTERRES
    85   42  121 1    
    86   43   44 2    
    87   43   45 1    
    88   45   46 1    
    89   45   47 1    
    90   45  122 1    
    91   46  123 1    
    92   46  124 1    
    93   46  125 1    
    94   47   48 am   BACKBONE|DICT|INTERRES
    95   47  126 1    
    96   48   49 2    
    97   48   50 1    
    98   50   51 1    
    99   50   52 1    
   100   50  127 1    
   101   51  128 1    
   102   51  129 1    
   103   51  130 1    
   104   52   53 am   BACKBONE|DICT|INTERRES
   105   52  131 1    
   106   53   54 2    
   107   53   55 1    
   108   55   56 1    
   109   55   59 1    
   110   55  132 1    
   111   56   57 1    
   112   56  133 1    
   113   56  134 1    
   114   57   58 1    
   115   58  135 1    
   116   58  136 1    
   117   59   60 am   BACKBONE|DICT|INTERRES
   118   59  137 1    
   119   60   61 2    
   120   60   62 1    
   121   62   63 1    
   122   62   64 1    
   123   62  138 1    
   124   63  139 1    
   125   63  140 1    
   126   63  141 1    
   127   64   65 am   BACKBONE|DICT|INTERRES
   128   64  142 1    
   129   65   66 2    
   130   65   67 1    
   131   67   68 1    
   132   67   69 1    
   133   67  143 1    
   134   68  144 1    
   135   68  145 1    
   136   68  146 1    
   137   69   70 am   BACKBONE|DICT|INTERRES
   138   69  147 1    
   139   70   71 2    
   140   70   72 1    
   141   72   73 1    
   142   72   74 1    
   143   72  148 1    
   144   73  149 1    
   145   73  150 1    
   146   73  151 1    
   147   74   75 am   BACKBONE|DICT|INTERRES
   148   74  152 1    
   149   75   76 2    
   150   75   77 1    
   151   77   78 1    
   152   77   79 1    
   153   77  153 1    
   154   78  154 1    
   155   78  155 1    
   156   78  156 1    
   157   79   80 am   BACKBONE|DICT|INTERRES
   158   79  157 1    
   159   80   81 2    
@<TRIPOS>SUBSTRUCTURE
     1 UNK         1 GROUP             0       ****    0 ROOT    
