@<TRIPOS>MOLECULE
3R207
157   159    1
SMALL
USER_CHARGES


@<TRIPOS>ATOM
      1 CA        -49.7106  -26.6563    3.3446 C.3       0 UNK        -0.1975 
      2 C         -48.4054  -27.1368    3.9763 C.2       0 UNK         0.4852 
      3 O         -47.3884  -27.1832    3.2861 O.2       0 UNK        -0.5216 
      4 N         -48.3743  -27.5203    5.2615 N.am      1 UNK        -0.4461 
      5 CA        -49.4632  -27.4804    6.2480 C.3       1 UNK         0.0864 
      6 C6        -49.0549  -28.1859    7.5656 C.3       14 UNK        -0.0898 
      7 S7        -48.4986  -29.9071    7.3270 S.3       14 UNK        -0.2598 
      8 C8        -49.9845  -30.8654    7.7770 C.3       14 UNK         0.0286 
      9 C9        -50.2771  -30.8364    9.2727 C.ar      14 UNK        -0.0844 
     10 C10       -49.3728  -31.3987   10.1788 C.ar      14 UNK        -0.0881 
     11 C11       -49.6388  -31.3888   11.5519 C.ar      14 UNK        -0.0643 
     12 C12       -50.8240  -30.8150   12.0186 C.ar      14 UNK        -0.0930 
     13 C13       -51.7421  -30.2589   11.1226 C.ar      14 UNK        -0.0827 
     14 C14       -51.4658  -30.2769    9.7514 C.ar      14 UNK        -0.1249 
     15 C15       -53.0181  -29.6151   11.6416 C.3       14 UNK         0.0141 
     16 S16       -54.4815  -30.6330   11.2998 S.3       14 UNK        -0.2313 
     17 C17       -55.7034  -29.8922   12.4341 C.3       14 UNK        -0.0915 
     18 CA        -56.4991  -28.7219   11.7950 C.3       13 UNK         0.0968 
     19 C         -57.8349  -28.4631   12.5544 C.2       13 UNK         0.5732 
     20 N         -58.0911  -27.2824   13.1055 N.am      13 UNK        -0.7310 
     21 O         -58.6739  -29.3578   12.6328 O.2       13 UNK        -0.5035 
     22 N         -55.6619  -27.5220   11.6336 N.am      13 UNK        -0.4233 
     23 C         -55.8704  -26.5710   10.7136 C.2       13 UNK         0.4989 
     24 O         -56.7198  -26.6648    9.8252 O.2       13 UNK        -0.4996 
     25 CA        -54.9896  -25.3031   10.7923 C.3       12 UNK         0.0216 
     26 CB        -55.6428  -24.0848   10.1069 C.3       12 UNK        -0.1964 
     27 N         -54.5553  -24.9424   12.1490 N.am      12 UNK        -0.4276 
     28 C         -55.3247  -24.7381   13.2276 C.2       12 UNK         0.5020 
     29 O         -56.5519  -24.8571   13.2376 O.2       12 UNK        -0.5489 
     30 CA        -54.5794  -24.3626   14.5224 C.3       11 UNK         0.0294 
     31 CB        -55.4562  -23.4975   15.4464 C.3       11 UNK        -0.2019 
     32 N         -54.0355  -25.4778   15.3132 N.am      11 UNK        -0.4493 
     33 C         -53.6707  -26.7191   14.9535 C.2       11 UNK         0.4932 
     34 O         -53.8679  -27.2347   13.8529 O.2       11 UNK        -0.5029 
     35 CA        -52.8893  -27.4988   16.0253 C.3       10 UNK         0.0280 
     36 CB        -52.6330  -28.9661   15.6351 C.3       10 UNK        -0.1976 
     37 N         -51.6018  -26.8481   16.2670 N.am      10 UNK        -0.4242 
     38 C         -51.3993  -25.8020   17.0787 C.2       10 UNK         0.5072 
     39 O         -52.2838  -25.2920   17.7683 O.2       10 UNK        -0.5224 
     40 CA        -49.9897  -25.1966   17.0760 C.3       9 UNK         0.0343 
     41 CB        -48.9628  -26.1656   17.6873 C.3       9 UNK        -0.2003 
     42 N         -49.5931  -24.8514   15.7111 N.am      9 UNK        -0.4272 
     43 C         -49.8292  -23.6688   15.1237 C.2       9 UNK         0.4988 
     44 O         -50.3397  -22.7066   15.6977 O.2       9 UNK        -0.5108 
     45 CA        -49.4262  -23.5290   13.6433 C.3       8 UNK         0.0248 
     46 CB        -47.9880  -23.0010   13.5288 C.3       8 UNK        -0.2001 
     47 N         -49.5447  -24.7875   12.9038 N.am      8 UNK        -0.4140 
     48 C         -50.7166  -25.3711   12.6103 C.2       8 UNK         0.5028 
     49 O         -51.8073  -24.8373   12.8061 O.2       8 UNK        -0.5428 
     50 CA        -50.6912  -26.7881   12.0088 C.3       7 UNK         0.0264 
     51 CB        -50.9461  -26.7054   10.5006 C.3       7 UNK        -0.1988 
     52 N         -49.4552  -27.5404   12.2436 N.am      7 UNK        -0.4454 
     53 C         -48.9491  -27.8493   13.4456 C.2       7 UNK         0.5027 
     54 O         -49.5447  -27.6348   14.5024 O.2       7 UNK        -0.5083 
     55 CA        -47.5025  -28.3892   13.5076 C.3       6 UNK         0.0844 
     56 C56       -47.4391  -29.8775   13.9627 C.3       14 UNK        -0.0967 
     57 S57       -47.1026  -31.1010   12.6407 S.3       14 UNK        -0.2604 
     58 C58       -48.6597  -32.0340   12.5204 C.3       14 UNK         0.0134 
     59 N         -46.6796  -28.1178   12.3193 N.am      6 UNK        -0.4116 
     60 C         -46.4392  -26.9321   11.7437 C.2       5 UNK         0.5034 
     61 O         -46.9227  -25.8700   12.1429 O.2       5 UNK        -0.5045 
     62 CA        -45.5485  -26.9362   10.4916 C.3       5 UNK         0.0224 
     63 CB        -45.5221  -28.2890    9.7439 C.3       5 UNK        -0.1978 
     64 N         -45.9940  -25.8777    9.5877 N.am      5 UNK        -0.4737 
     65 C         -45.2097  -25.1913    8.7501 C.2       4 UNK         0.5027 
     66 O         -43.9989  -25.3884    8.6392 O.2       4 UNK        -0.5211 
     67 CA        -45.8755  -24.1194    7.8659 C.3       4 UNK         0.0297 
     68 CB        -45.8094  -24.5353    6.3861 C.3       4 UNK        -0.1993 
     69 N         -47.2753  -23.8478    8.2132 N.am      4 UNK        -0.4486 
     70 C         -47.6701  -23.0439    9.2149 C.2       3 UNK         0.4961 
     71 O         -46.8756  -22.4766    9.9643 O.2       3 UNK        -0.5105 
     72 CA        -49.1816  -22.8154    9.4267 C.3       3 UNK         0.0299 
     73 CB        -49.5219  -21.3144    9.5114 C.3       3 UNK        -0.1972 
     74 N         -49.9929  -23.4585    8.3926 N.am      3 UNK        -0.4305 
     75 C         -51.2747  -23.8201    8.4884 C.2       2 UNK         0.5006 
     76 O         -51.9850  -23.5878    9.4652 O.2       2 UNK        -0.5106 
     77 CA        -51.8638  -24.5964    7.2933 C.3       2 UNK         0.0296 
     78 CB        -51.9992  -23.6922    6.0514 C.3       2 UNK        -0.2002 
     79 N         -51.1700  -25.8566    6.9654 N.am      2 UNK        -0.4032 
     80 C         -49.9060  -26.0311    6.5474 C.2       1 UNK         0.5000 
     81 O         -49.0926  -25.1111    6.4198 O.2       1 UNK        -0.5238 
     82 H82       -49.6497  -26.7204    2.2583 H         1 UNK         0.0889 
     83 H83       -49.8996  -25.6152    3.6053 H         1 UNK         0.0889 
     84 H84       -50.5619  -27.2594    3.6566 H         1 UNK         0.0889 
     85 H85       -47.4952  -27.8508    5.6308 H         1 UNK         0.3028 
     86 H86       -50.3141  -28.0189    5.8271 H         1 UNK         0.0864 
     87 H87       -49.8868  -28.1922    8.2663 H         1 UNK         0.0720 
     88 H88       -48.2468  -27.6405    8.0569 H         1 UNK         0.0720 
     89 H89       -49.8372  -31.9016    7.4699 H         1 UNK         0.0814 
     90 H90       -50.8362  -30.4972    7.2029 H         1 UNK         0.0814 
     91 H91       -48.4570  -31.8441    9.8144 H         1 UNK         0.1469 
     92 H92       -51.0338  -30.8053   13.0792 H         1 UNK         0.1381 
     93 H93       -52.1787  -29.8484    9.0602 H         1 UNK         0.1206 
     94 H94       -52.9418  -29.4470   12.7144 H         1 UNK         0.0813 
     95 H95       -53.1486  -28.6356   11.1821 H         1 UNK         0.0813 
     96 H96       -55.2184  -29.5758   13.3587 H         1 UNK         0.0638 
     97 H97       -56.3741  -30.7053   12.7178 H         1 UNK         0.0638 
     98 H98       -56.8056  -29.0501   10.8000 H         1 UNK         0.0568 
     99 H99       -58.9680  -27.1490   13.5820 H         1 UNK         0.3450 
    100 H100      -57.4315  -26.5099   13.0504 H         1 UNK         0.3450 
    101 H101      -54.9761  -27.3572   12.3679 H         1 UNK         0.2987 
    102 H102      -54.0821  -25.5383   10.2374 H         1 UNK         0.0766 
    103 H103      -54.9819  -23.2180   10.1328 H         1 UNK         0.0798 
    104 H104      -56.5816  -23.8080   10.5878 H         1 UNK         0.0798 
    105 H105      -55.8591  -24.2900    9.0578 H         1 UNK         0.0798 
    106 H106      -53.5448  -24.8835   12.2917 H         1 UNK         0.3198 
    107 H107      -53.7266  -23.7472   14.2308 H         1 UNK         0.0843 
    108 H108      -56.2891  -24.0687   15.8586 H         1 UNK         0.0831 
    109 H109      -55.8787  -22.6496   14.9053 H         1 UNK         0.0831 
    110 H110      -54.8809  -23.0933   16.2795 H         1 UNK         0.0831 
    111 H111      -53.7586  -25.2201   16.2541 H         1 UNK         0.3133 
    112 H112      -53.4833  -27.4949   16.9416 H         1 UNK         0.0566 
    113 H113      -52.1712  -29.5158   16.4552 H         1 UNK         0.0814 
    114 H114      -53.5637  -29.4770   15.3854 H         1 UNK         0.0814 
    115 H115      -51.9702  -29.0417   14.7732 H         1 UNK         0.0814 
    116 H116      -50.8274  -27.1695   15.6881 H         1 UNK         0.3091 
    117 H117      -50.0069  -24.2956   17.6932 H         1 UNK         0.0702 
    118 H118      -47.9741  -25.7093   17.7383 H         1 UNK         0.0785 
    119 H119      -48.8734  -27.0889   17.1139 H         1 UNK         0.0785 
    120 H120      -49.2451  -26.4397   18.7047 H         1 UNK         0.0785 
    121 H121      -49.2237  -25.6057   15.1471 H         1 UNK         0.2998 
    122 H122      -50.0956  -22.7995   13.1820 H         1 UNK         0.0697 
    123 H123      -47.2664  -23.6938   13.9637 H         1 UNK         0.0825 
    124 H124      -47.8792  -22.0468   14.0461 H         1 UNK         0.0825 
    125 H125      -47.7071  -22.8384   12.4890 H         1 UNK         0.0825 
    126 H126      -48.6769  -25.2617   12.6668 H         1 UNK         0.3029 
    127 H127      -51.5059  -27.3414   12.4774 H         1 UNK         0.0897 
    128 H128      -50.1308  -26.2025    9.9801 H         1 UNK         0.0792 
    129 H129      -51.8626  -26.1564   10.2915 H         1 UNK         0.0792 
    130 H130      -51.0696  -27.6924   10.0697 H         1 UNK         0.0792 
    131 H131      -48.9083  -27.7784   11.4304 H         1 UNK         0.3086 
    132 H132      -47.0406  -27.8033   14.3053 H         1 UNK         0.0583 
    133 H133      -46.6210  -29.9803   14.6776 H         1 UNK         0.1020 
    134 H134      -48.3272  -30.1694   14.5273 H         1 UNK         0.1020 
    135 H135      -48.4315  -33.0399   12.1651 H         1 UNK         0.0694 
    136 H136      -49.1015  -32.1589   13.5100 H         1 UNK         0.0694 
    137 H137      -46.2704  -28.9430   11.9031 H         1 UNK         0.2989 
    138 H138      -44.5376  -26.7062   10.8359 H         1 UNK         0.1055 
    139 H139      -45.0503  -29.0688   10.3428 H         1 UNK         0.0806 
    140 H140      -44.9484  -28.2188    8.8195 H         1 UNK         0.0806 
    141 H141      -46.5240  -28.6310    9.4826 H         1 UNK         0.0806 
    142 H142      -46.9549  -25.5851    9.6920 H         1 UNK         0.3061 
    143 H143      -45.2997  -23.1988    7.9837 H         1 UNK         0.0734 
    144 H144      -46.2465  -23.7752    5.7384 H         1 UNK         0.0832 
    145 H145      -44.7770  -24.6787    6.0645 H         1 UNK         0.0832 
    146 H146      -46.3385  -25.4719    6.2061 H         1 UNK         0.0832 
    147 H147      -47.9586  -24.3088    7.6190 H         1 UNK         0.3156 
    148 H148      -49.4276  -23.2779   10.3845 H         1 UNK         0.0589 
    149 H149      -49.3067  -20.8025    8.5730 H         1 UNK         0.0808 
    150 H150      -50.5744  -21.1562    9.7464 H         1 UNK         0.0808 
    151 H151      -48.9440  -20.8220   10.2947 H         1 UNK         0.0808 
    152 H152      -49.5206  -23.7280    7.5341 H         1 UNK         0.3098 
    153 H153      -52.8738  -24.8873    7.5878 H         1 UNK         0.0720 
    154 H154      -52.5262  -24.2046    5.2466 H         1 UNK         0.0791 
    155 H155      -51.0314  -23.3724    5.6640 H         1 UNK         0.0791 
    156 H156      -52.5672  -22.7910    6.2866 H         1 UNK         0.0791 
    157 H157      -51.7445  -26.6820    7.0665 H         1 UNK         0.3028 
@<TRIPOS>BOND
     1    1    2 1    
     2    1   82 1    
     3    1   83 1    
     4    1   84 1    
     5    2    3 2    
     6    2    4 am   BACKBONE|DICT|INTERRES
     7    4    5 1    
     8    4   85 1    
     9    5    6 1    
    10    5   80 1    
    11    5   86 1    
    12    6    7 1    
    13    6   87 1    
    14    6   88 1    
    15    7    8 1    
    16    8    9 1    
    17    8   89 1    
    18    8   90 1    
    19    9   10 ar   
    20    9   14 ar   
    21   10   11 ar   
    22   10   91 1    
    23   11   12 ar   
    24   11   58 1    
    25   12   13 ar   
    26   12   92 1    
    27   13   14 ar   
    28   13   15 1    
    29   14   93 1    
    30   15   16 1    
    31   15   94 1    
    32   15   95 1    
    33   16   17 1    
    34   17   18 1    
    35   17   96 1    
    36   17   97 1    
    37   18   19 1    
    38   18   22 1    
    39   18   98 1    
    40   19   20 am   BACKBONE|DICT|INTERRES
    41   19   21 2    
    42   20   99 1    
    43   20  100 1    
    44   22   23 am   BACKBONE|DICT|INTERRES
    45   22  101 1    
    46   23   24 2    
    47   23   25 1    
    48   25   26 1    
    49   25   27 1    
    50   25  102 1    
    51   26  103 1    
    52   26  104 1    
    53   26  105 1    
    54   27   28 am   BACKBONE|DICT|INTERRES
    55   27  106 1    
    56   28   29 2    
    57   28   30 1    
    58   30   31 1    
    59   30   32 1    
    60   30  107 1    
    61   31  108 1    
    62   31  109 1    
    63   31  110 1    
    64   32   33 am   BACKBONE|DICT|INTERRES
    65   32  111 1    
    66   33   34 2    
    67   33   35 1    
    68   35   36 1    
    69   35   37 1    
    70   35  112 1    
    71   36  113 1    
    72   36  114 1    
    73   36  115 1    
    74   37   38 am   BACKBONE|DICT|INTERRES
    75   37  116 1    
    76   38   39 2    
    77   38   40 1    
    78   40   41 1    
    79   40   42 1    
    80   40  117 1    
    81   41  118 1    
    82   41  119 1    
    83   41  120 1    
    84   42   43 am   BACKBONE|DICT|INTERRES
    85   42  121 1    
    86   43   44 2    
    87   43   45 1    
    88   45   46 1    
    89   45   47 1    
    90   45  122 1    
    91   46  123 1    
    92   46  124 1    
    93   46  125 1    
    94   47   48 am   BACKBONE|DICT|INTERRES
    95   47  126 1    
    96   48   49 2    
    97   48   50 1    
    98   50   51 1    
    99   50   52 1    
   100   50  127 1    
   101   51  128 1    
   102   51  129 1    
   103   51  130 1    
   104   52   53 am   BACKBONE|DICT|INTERRES
   105   52  131 1    
   106   53   54 2    
   107   53   55 1    
   108   55   56 1    
   109   55   59 1    
   110   55  132 1    
   111   56   57 1    
   112   56  133 1    
   113   56  134 1    
   114   57   58 1    
   115   58  135 1    
   116   58  136 1    
   117   59   60 am   BACKBONE|DICT|INTERRES
   118   59  137 1    
   119   60   61 2    
   120   60   62 1    
   121   62   63 1    
   122   62   64 1    
   123   62  138 1    
   124   63  139 1    
   125   63  140 1    
   126   63  141 1    
   127   64   65 am   BACKBONE|DICT|INTERRES
   128   64  142 1    
   129   65   66 2    
   130   65   67 1    
   131   67   68 1    
   132   67   69 1    
   133   67  143 1    
   134   68  144 1    
   135   68  145 1    
   136   68  146 1    
   137   69   70 am   BACKBONE|DICT|INTERRES
   138   69  147 1    
   139   70   71 2    
   140   70   72 1    
   141   72   73 1    
   142   72   74 1    
   143   72  148 1    
   144   73  149 1    
   145   73  150 1    
   146   73  151 1    
   147   74   75 am   BACKBONE|DICT|INTERRES
   148   74  152 1    
   149   75   76 2    
   150   75   77 1    
   151   77   78 1    
   152   77   79 1    
   153   77  153 1    
   154   78  154 1    
   155   78  155 1    
   156   78  156 1    
   157   79   80 am   BACKBONE|DICT|INTERRES
   158   79  157 1    
   159   80   81 2    
@<TRIPOS>SUBSTRUCTURE
     1 UNK         1 GROUP             0       ****    0 ROOT    
