@<TRIPOS>MOLECULE
3R207
157   159    1
SMALL
USER_CHARGES


@<TRIPOS>ATOM
      1 CA        -48.2820  -32.2319    8.0720 C.3       0 UNK        -0.1975 
      2 C         -48.2667  -31.6892    6.6505 C.2       0 UNK         0.4852 
      3 O         -47.2724  -31.8534    5.9431 O.2       0 UNK        -0.5216 
      4 N         -49.3626  -31.0432    6.2299 N.am      1 UNK        -0.4461 
      5 CA        -49.5284  -30.4013    4.9179 C.3       1 UNK         0.0864 
      6 C6        -51.0117  -30.0509    4.6333 C.3       14 UNK        -0.0898 
      7 S7        -51.8333  -29.1603    6.0006 S.3       14 UNK        -0.2598 
      8 C8        -52.1110  -27.5213    5.2620 C.3       14 UNK         0.0286 
      9 C9        -52.7697  -26.5742    6.2553 C.ar      14 UNK        -0.0844 
     10 C10       -52.1149  -25.4117    6.6715 C.ar      14 UNK        -0.0881 
     11 C11       -52.7188  -24.5421    7.5872 C.ar      14 UNK        -0.0643 
     12 C12       -53.9846  -24.8484    8.0956 C.ar      14 UNK        -0.0930 
     13 C13       -54.6482  -26.0090    7.6867 C.ar      14 UNK        -0.0827 
     14 C14       -54.0427  -26.8582    6.7567 C.ar      14 UNK        -0.1249 
     15 C15       -56.0153  -26.3569    8.2562 C.3       14 UNK         0.0141 
     16 S16       -55.8905  -27.0408    9.9384 S.3       14 UNK        -0.2313 
     17 C17       -54.8051  -28.4849    9.6674 C.3       14 UNK        -0.0915 
     18 CA        -54.9550  -29.5763   10.7586 C.3       13 UNK         0.0968 
     19 C         -54.0416  -30.7994   10.4621 C.2       13 UNK         0.5732 
     20 N         -53.0798  -31.1339   11.3144 N.am      13 UNK        -0.7310 
     21 O         -54.2199  -31.4668    9.4464 O.2       13 UNK        -0.5035 
     22 N         -54.8067  -29.0240   12.1156 N.am      13 UNK        -0.4233 
     23 C         -55.4180  -29.5267   13.1940 C.2       13 UNK         0.4989 
     24 O         -56.0851  -30.5632   13.1826 O.2       13 UNK        -0.4996 
     25 CA        -55.2562  -28.7358   14.4979 C.3       12 UNK         0.0216 
     26 CB        -56.1504  -29.2634   15.6375 C.3       12 UNK        -0.1964 
     27 N         -53.8604  -28.7645   14.9317 N.am      12 UNK        -0.4276 
     28 C         -53.1444  -27.6797   15.2444 C.2       12 UNK         0.5020 
     29 O         -53.5758  -26.5280   15.1549 O.2       12 UNK        -0.5489 
     30 CA        -51.7201  -27.9316   15.7627 C.3       11 UNK         0.0294 
     31 CB        -50.7864  -28.3980   14.6372 C.3       11 UNK        -0.2019 
     32 N         -51.1747  -26.6999   16.3279 N.am      11 UNK        -0.4493 
     33 C         -51.0309  -26.4436   17.6335 C.2       11 UNK         0.4932 
     34 O         -51.2779  -27.2625   18.5206 O.2       11 UNK        -0.5029 
     35 CA        -50.5494  -25.0283   18.0136 C.3       10 UNK         0.0280 
     36 CB        -49.8695  -24.9712   19.3987 C.3       10 UNK        -0.1976 
     37 N         -49.7143  -24.3996   16.9824 N.am      10 UNK        -0.4242 
     38 C         -48.5080  -24.8030   16.5474 C.2       10 UNK         0.5072 
     39 O         -47.8932  -25.7553   17.0296 O.2       10 UNK        -0.5224 
     40 CA        -47.8760  -24.0345   15.3693 C.3       9 UNK         0.0343 
     41 CB        -47.4494  -24.9969   14.2475 C.3       9 UNK        -0.2003 
     42 N         -48.7853  -23.0355   14.8045 N.am      9 UNK        -0.4272 
     43 C         -48.7946  -21.7335   15.1246 C.2       9 UNK         0.4988 
     44 O         -47.9780  -21.2098   15.8827 O.2       9 UNK        -0.5108 
     45 CA        -49.9150  -20.8630   14.5199 C.3       8 UNK         0.0248 
     46 CB        -49.4042  -20.1328   13.2670 C.3       8 UNK        -0.2001 
     47 N         -51.1334  -21.6050   14.1786 N.am      8 UNK        -0.4140 
     48 C         -51.8994  -22.2847   15.0450 C.2       8 UNK         0.5028 
     49 O         -51.6968  -22.3105   16.2584 O.2       8 UNK        -0.5428 
     50 CA        -53.0364  -23.1377   14.4524 C.3       7 UNK         0.0264 
     51 CB        -54.3529  -22.3453   14.4359 C.3       7 UNK        -0.1988 
     52 N         -52.7537  -23.6466   13.1032 N.am      7 UNK        -0.4454 
     53 C         -51.7152  -24.4318   12.7778 C.2       7 UNK         0.5027 
     54 O         -50.8859  -24.8384   13.5977 O.2       7 UNK        -0.5083 
     55 CA        -51.5129  -24.6828   11.2690 C.3       6 UNK         0.0844 
     56 C56       -50.8873  -23.4201   10.6197 C.3       14 UNK        -0.0967 
     57 S57       -50.4472  -23.6052    8.8602 S.3       14 UNK        -0.2604 
     58 C58       -52.0097  -23.2601    7.9976 C.3       14 UNK         0.0134 
     59 N         -50.7146  -25.8822   11.0160 N.am      6 UNK        -0.4116 
     60 C         -51.1413  -27.1403   11.1846 C.2       5 UNK         0.5034 
     61 O         -52.2462  -27.4361   11.6441 O.2       5 UNK        -0.5045 
     62 CA        -50.1911  -28.2709   10.7518 C.3       5 UNK         0.0224 
     63 CB        -50.6624  -28.8734    9.4195 C.3       5 UNK        -0.1978 
     64 N         -48.8030  -27.8249   10.5974 N.am      5 UNK        -0.4737 
     65 C         -47.9024  -27.8047   11.5905 C.2       4 UNK         0.5027 
     66 O         -48.1420  -28.2015   12.7293 O.2       4 UNK        -0.5211 
     67 CA        -46.4864  -27.2802   11.2778 C.3       4 UNK         0.0297 
     68 CB        -45.4999  -28.4533   11.1566 C.3       4 UNK        -0.1993 
     69 N         -46.3957  -26.4606   10.0680 N.am      4 UNK        -0.4486 
     70 C         -46.9662  -25.2602    9.8990 C.2       3 UNK         0.4961 
     71 O         -47.6078  -24.6792   10.7727 O.2       3 UNK        -0.5105 
     72 CA        -46.8253  -24.6143    8.5064 C.3       3 UNK         0.0299 
     73 CB        -45.6055  -23.6797    8.4793 C.3       3 UNK        -0.1972 
     74 N         -46.7400  -25.5547    7.3786 N.am      3 UNK        -0.4305 
     75 C         -47.5814  -26.5671    7.1191 C.2       2 UNK         0.5006 
     76 O         -48.5249  -26.8826    7.8480 O.2       2 UNK        -0.5106 
     77 CA        -47.2949  -27.3887    5.8549 C.3       2 UNK         0.0296 
     78 CB        -45.8523  -27.9375    5.8377 C.3       2 UNK        -0.2002 
     79 N         -48.2397  -28.4994    5.7991 N.am      2 UNK        -0.4032 
     80 C         -48.5963  -29.1866    4.7083 C.2       1 UNK         0.5000 
     81 O         -48.2034  -28.9160    3.5715 O.2       1 UNK        -0.5238 
     82 H82       -49.2533  -32.0971    8.5498 H         1 UNK         0.0889 
     83 H83       -47.5307  -31.7217    8.6767 H         1 UNK         0.0889 
     84 H84       -48.0519  -33.2983    8.0692 H         1 UNK         0.0889 
     85 H85       -50.1568  -30.9472    6.8475 H         1 UNK         0.3028 
     86 H86       -49.2253  -31.1373    4.1697 H         1 UNK         0.0864 
     87 H87       -51.1129  -29.4916    3.7009 H         1 UNK         0.0720 
     88 H88       -51.5696  -30.9750    4.4747 H         1 UNK         0.0720 
     89 H89       -52.7490  -27.6209    4.3828 H         1 UNK         0.0814 
     90 H90       -51.1573  -27.1191    4.9162 H         1 UNK         0.0814 
     91 H91       -51.1306  -25.1795    6.2881 H         1 UNK         0.1469 
     92 H92       -54.4556  -24.1879    8.8103 H         1 UNK         0.1381 
     93 H93       -54.5507  -27.7583    6.4383 H         1 UNK         0.1206 
     94 H94       -56.6403  -25.4633    8.2809 H         1 UNK         0.0813 
     95 H95       -56.5313  -27.0727    7.6144 H         1 UNK         0.0813 
     96 H96       -55.0342  -28.9076    8.6877 H         1 UNK         0.0638 
     97 H97       -53.7762  -28.1285    9.6111 H         1 UNK         0.0638 
     98 H98       -55.9751  -29.9553   10.6714 H         1 UNK         0.0568 
     99 H99       -52.5039  -31.9365   11.1191 H         1 UNK         0.3450 
    100 H100      -52.9301  -30.5890   12.1463 H         1 UNK         0.3450 
    101 H101      -54.2060  -28.2113   12.1961 H         1 UNK         0.2987 
    102 H102      -55.5734  -27.7149   14.2743 H         1 UNK         0.0766 
    103 H103      -56.0608  -28.6415   16.5283 H         1 UNK         0.0798 
    104 H104      -55.8922  -30.2857   15.9161 H         1 UNK         0.0798 
    105 H105      -57.2012  -29.2585   15.3449 H         1 UNK         0.0798 
    106 H106      -53.4345  -29.6781   15.0091 H         1 UNK         0.3198 
    107 H107      -51.7720  -28.7153   16.5214 H         1 UNK         0.0843 
    108 H108      -50.6144  -27.6026   13.9136 H         1 UNK         0.0831 
    109 H109      -51.1893  -29.2556   14.0982 H         1 UNK         0.0831 
    110 H110      -49.8133  -28.6915   15.0316 H         1 UNK         0.0831 
    111 H111      -51.0233  -25.9517   15.6624 H         1 UNK         0.3133 
    112 H112      -51.4517  -24.4184   18.0727 H         1 UNK         0.0566 
    113 H113      -49.5476  -23.9586   19.6414 H         1 UNK         0.0814 
    114 H114      -50.5564  -25.2875   20.1844 H         1 UNK         0.0814 
    115 H115      -48.9974  -25.6234   19.4508 H         1 UNK         0.0814 
    116 H116      -50.1400  -23.5931   16.5369 H         1 UNK         0.3091 
    117 H117      -46.9771  -23.5467   15.7515 H         1 UNK         0.0702 
    118 H118      -46.7339  -25.7361   14.6095 H         1 UNK         0.0785 
    119 H119      -48.2999  -25.5430   13.8375 H         1 UNK         0.0785 
    120 H120      -46.9713  -24.4605   13.4281 H         1 UNK         0.0785 
    121 H121      -49.5115  -23.4039   14.1996 H         1 UNK         0.2998 
    122 H122      -50.1852  -20.1152   15.2682 H         1 UNK         0.0697 
    123 H123      -49.1371  -20.8306   12.4722 H         1 UNK         0.0825 
    124 H124      -48.5143  -19.5442   13.4948 H         1 UNK         0.0825 
    125 H125      -50.1522  -19.4438   12.8741 H         1 UNK         0.0825 
    126 H126      -51.3904  -21.6269   13.2037 H         1 UNK         0.3029 
    127 H127      -53.1637  -23.9976   15.1114 H         1 UNK         0.0897 
    128 H128      -55.1870  -22.9701   14.1158 H         1 UNK         0.0792 
    129 H129      -54.3005  -21.4836   13.7691 H         1 UNK         0.0792 
    130 H130      -54.5953  -21.9725   15.4322 H         1 UNK         0.0792 
    131 H131      -53.3918  -23.3583   12.3753 H         1 UNK         0.3086 
    132 H132      -52.4950  -24.8480   10.8206 H         1 UNK         0.0583 
    133 H133      -51.5481  -22.5577   10.7220 H         1 UNK         0.1020 
    134 H134      -49.9652  -23.1513   11.1405 H         1 UNK         0.1020 
    135 H135      -52.6523  -22.6297    8.6135 H         1 UNK         0.0694 
    136 H136      -51.7887  -22.6826    7.0991 H         1 UNK         0.0694 
    137 H137      -49.7765  -25.7260   10.6738 H         1 UNK         0.2989 
    138 H138      -50.2393  -29.0513   11.5144 H         1 UNK         0.1055 
    139 H139      -51.6506  -29.3203    9.5188 H         1 UNK         0.0806 
    140 H140      -49.9872  -29.6547    9.0729 H         1 UNK         0.0806 
    141 H141      -50.7323  -28.1144    8.6392 H         1 UNK         0.0806 
    142 H142      -48.5440  -27.4694    9.6798 H         1 UNK         0.3061 
    143 H143      -46.1785  -26.6604   12.1222 H         1 UNK         0.0734 
    144 H144      -44.4766  -28.1020   11.0231 H         1 UNK         0.0832 
    145 H145      -45.5129  -29.0682   12.0578 H         1 UNK         0.0832 
    146 H146      -45.7470  -29.1034   10.3164 H         1 UNK         0.0832 
    147 H147      -45.8949  -26.8577    9.2872 H         1 UNK         0.3156 
    148 H148      -47.7116  -24.0039    8.3399 H         1 UNK         0.0589 
    149 H149      -44.6710  -24.2310    8.5912 H         1 UNK         0.0808 
    150 H150      -45.5557  -23.1161    7.5476 H         1 UNK         0.0808 
    151 H151      -45.6539  -22.9524    9.2912 H         1 UNK         0.0808 
    152 H152      -45.9930  -25.3830    6.7213 H         1 UNK         0.3098 
    153 H153      -47.4546  -26.7394    4.9919 H         1 UNK         0.0720 
    154 H154      -45.6722  -28.5510    4.9548 H         1 UNK         0.0791 
    155 H155      -45.6476  -28.5542    6.7138 H         1 UNK         0.0791 
    156 H156      -45.1139  -27.1357    5.8180 H         1 UNK         0.0791 
    157 H157      -48.6803  -28.7141    6.6845 H         1 UNK         0.3028 
@<TRIPOS>BOND
     1    1    2 1    
     2    1   82 1    
     3    1   83 1    
     4    1   84 1    
     5    2    3 2    
     6    2    4 am   BACKBONE|DICT|INTERRES
     7    4    5 1    
     8    4   85 1    
     9    5    6 1    
    10    5   80 1    
    11    5   86 1    
    12    6    7 1    
    13    6   87 1    
    14    6   88 1    
    15    7    8 1    
    16    8    9 1    
    17    8   89 1    
    18    8   90 1    
    19    9   10 ar   
    20    9   14 ar   
    21   10   11 ar   
    22   10   91 1    
    23   11   12 ar   
    24   11   58 1    
    25   12   13 ar   
    26   12   92 1    
    27   13   14 ar   
    28   13   15 1    
    29   14   93 1    
    30   15   16 1    
    31   15   94 1    
    32   15   95 1    
    33   16   17 1    
    34   17   18 1    
    35   17   96 1    
    36   17   97 1    
    37   18   19 1    
    38   18   22 1    
    39   18   98 1    
    40   19   20 am   BACKBONE|DICT|INTERRES
    41   19   21 2    
    42   20   99 1    
    43   20  100 1    
    44   22   23 am   BACKBONE|DICT|INTERRES
    45   22  101 1    
    46   23   24 2    
    47   23   25 1    
    48   25   26 1    
    49   25   27 1    
    50   25  102 1    
    51   26  103 1    
    52   26  104 1    
    53   26  105 1    
    54   27   28 am   BACKBONE|DICT|INTERRES
    55   27  106 1    
    56   28   29 2    
    57   28   30 1    
    58   30   31 1    
    59   30   32 1    
    60   30  107 1    
    61   31  108 1    
    62   31  109 1    
    63   31  110 1    
    64   32   33 am   BACKBONE|DICT|INTERRES
    65   32  111 1    
    66   33   34 2    
    67   33   35 1    
    68   35   36 1    
    69   35   37 1    
    70   35  112 1    
    71   36  113 1    
    72   36  114 1    
    73   36  115 1    
    74   37   38 am   BACKBONE|DICT|INTERRES
    75   37  116 1    
    76   38   39 2    
    77   38   40 1    
    78   40   41 1    
    79   40   42 1    
    80   40  117 1    
    81   41  118 1    
    82   41  119 1    
    83   41  120 1    
    84   42   43 am   BACKBONE|DICT|INTERRES
    85   42  121 1    
    86   43   44 2    
    87   43   45 1    
    88   45   46 1    
    89   45   47 1    
    90   45  122 1    
    91   46  123 1    
    92   46  124 1    
    93   46  125 1    
    94   47   48 am   BACKBONE|DICT|INTERRES
    95   47  126 1    
    96   48   49 2    
    97   48   50 1    
    98   50   51 1    
    99   50   52 1    
   100   50  127 1    
   101   51  128 1    
   102   51  129 1    
   103   51  130 1    
   104   52   53 am   BACKBONE|DICT|INTERRES
   105   52  131 1    
   106   53   54 2    
   107   53   55 1    
   108   55   56 1    
   109   55   59 1    
   110   55  132 1    
   111   56   57 1    
   112   56  133 1    
   113   56  134 1    
   114   57   58 1    
   115   58  135 1    
   116   58  136 1    
   117   59   60 am   BACKBONE|DICT|INTERRES
   118   59  137 1    
   119   60   61 2    
   120   60   62 1    
   121   62   63 1    
   122   62   64 1    
   123   62  138 1    
   124   63  139 1    
   125   63  140 1    
   126   63  141 1    
   127   64   65 am   BACKBONE|DICT|INTERRES
   128   64  142 1    
   129   65   66 2    
   130   65   67 1    
   131   67   68 1    
   132   67   69 1    
   133   67  143 1    
   134   68  144 1    
   135   68  145 1    
   136   68  146 1    
   137   69   70 am   BACKBONE|DICT|INTERRES
   138   69  147 1    
   139   70   71 2    
   140   70   72 1    
   141   72   73 1    
   142   72   74 1    
   143   72  148 1    
   144   73  149 1    
   145   73  150 1    
   146   73  151 1    
   147   74   75 am   BACKBONE|DICT|INTERRES
   148   74  152 1    
   149   75   76 2    
   150   75   77 1    
   151   77   78 1    
   152   77   79 1    
   153   77  153 1    
   154   78  154 1    
   155   78  155 1    
   156   78  156 1    
   157   79   80 am   BACKBONE|DICT|INTERRES
   158   79  157 1    
   159   80   81 2    
@<TRIPOS>SUBSTRUCTURE
     1 UNK         1 GROUP             0       ****    0 ROOT    
