@<TRIPOS>MOLECULE
3R207
157   159    1
SMALL
USER_CHARGES


@<TRIPOS>ATOM
      1 CA        -50.9122  -22.7204    7.9599 C.3       0 UNK        -0.1975 
      2 C         -50.6045  -24.1789    7.6600 C.2       0 UNK         0.4852 
      3 O         -49.9091  -24.8277    8.4408 O.2       0 UNK        -0.5216 
      4 N         -51.1249  -24.7144    6.5500 N.am      1 UNK        -0.4461 
      5 CA        -50.8640  -26.0845    6.1030 C.3       1 UNK         0.0864 
      6 C6        -52.0162  -26.6508    5.2326 C.3       14 UNK        -0.0898 
      7 S7        -53.5927  -26.8041    6.1420 S.3       14 UNK        -0.2598 
      8 C8        -53.7151  -28.6031    6.4237 C.3       14 UNK         0.0286 
      9 C9        -52.9287  -29.0458    7.6502 C.ar      14 UNK        -0.0844 
     10 C10       -51.5624  -29.3235    7.5527 C.ar      14 UNK        -0.0881 
     11 C11       -50.8304  -29.6993    8.6829 C.ar      14 UNK        -0.0643 
     12 C12       -51.4796  -29.8332    9.9118 C.ar      14 UNK        -0.0930 
     13 C13       -52.8492  -29.5764   10.0191 C.ar      14 UNK        -0.0827 
     14 C14       -53.5683  -29.1789    8.8874 C.ar      14 UNK        -0.1249 
     15 C15       -53.5372  -29.6828   11.3694 C.3       14 UNK         0.0141 
     16 S16       -54.5146  -31.2074   11.5147 S.3       14 UNK        -0.2313 
     17 C17       -54.8443  -31.2423   13.3090 C.3       14 UNK        -0.0915 
     18 CA        -56.1645  -30.5289   13.7046 C.3       13 UNK         0.0968 
     19 C         -56.5860  -30.8795   15.1626 C.2       13 UNK         0.5732 
     20 N         -56.7745  -29.9249   16.0671 N.am      13 UNK        -0.7310 
     21 O         -56.7632  -32.0532   15.4804 O.2       13 UNK        -0.5035 
     22 N         -56.0939  -29.0839   13.4438 N.am      13 UNK        -0.4233 
     23 C         -57.1430  -28.3132   13.1322 C.2       13 UNK         0.4989 
     24 O         -58.2762  -28.7563   12.9348 O.2       13 UNK        -0.4996 
     25 CA        -56.8880  -26.7935   13.0223 C.3       12 UNK         0.0216 
     26 CB        -58.1708  -25.9617   13.2332 C.3       12 UNK        -0.1964 
     27 N         -55.8155  -26.2980   13.8949 N.am      12 UNK        -0.4276 
     28 C         -55.7202  -26.4263   15.2259 C.2       12 UNK         0.5020 
     29 O         -56.5414  -27.0182   15.9300 O.2       12 UNK        -0.5489 
     30 CA        -54.4601  -25.8214   15.8686 C.3       11 UNK         0.0294 
     31 CB        -54.7974  -25.1174   17.1945 C.3       11 UNK        -0.2019 
     32 N         -53.3708  -26.7765   16.1074 N.am      11 UNK        -0.4493 
     33 C         -52.9429  -27.7799   15.3256 C.2       11 UNK         0.4932 
     34 O         -53.4863  -28.1522   14.2853 O.2       11 UNK        -0.5029 
     35 CA        -51.6167  -28.4157   15.7625 C.3       10 UNK         0.0280 
     36 CB        -51.3185  -29.7468   15.0490 C.3       10 UNK        -0.1976 
     37 N         -50.5645  -27.4539   15.4476 N.am      10 UNK        -0.4242 
     38 C         -50.0004  -26.6192   16.3298 C.2       10 UNK         0.5072 
     39 O         -50.1890  -26.6744   17.5459 O.2       10 UNK        -0.5224 
     40 CA        -49.1268  -25.4935   15.7510 C.3       9 UNK         0.0343 
     41 CB        -47.7956  -26.0438   15.2149 C.3       9 UNK        -0.2003 
     42 N         -49.8148  -24.7424   14.6972 N.am      9 UNK        -0.4272 
     43 C         -50.9290  -24.0124   14.8725 C.2       9 UNK         0.4988 
     44 O         -51.4781  -23.8444   15.9611 O.2       9 UNK        -0.5108 
     45 CA        -51.5459  -23.3709   13.6213 C.3       8 UNK         0.0248 
     46 CB        -50.8422  -22.0472   13.2805 C.3       8 UNK        -0.2001 
     47 N         -51.4659  -24.2870   12.4840 N.am      8 UNK        -0.4140 
     48 C         -52.4245  -25.1636   12.1550 C.2       8 UNK         0.5028 
     49 O         -53.5392  -25.1874   12.6784 O.2       8 UNK        -0.5428 
     50 CA        -52.1120  -26.1858   11.0513 C.3       7 UNK         0.0264 
     51 CB        -52.8701  -25.8280    9.7661 C.3       7 UNK        -0.1988 
     52 N         -50.6812  -26.3378   10.7648 N.am      7 UNK        -0.4454 
     53 C         -49.8314  -27.0036   11.5618 C.2       7 UNK         0.5027 
     54 O         -50.1748  -27.5479   12.6117 O.2       7 UNK        -0.5083 
     55 CA        -48.3328  -27.0115   11.1860 C.3       6 UNK         0.0844 
     56 C56       -47.9182  -28.3080   10.4441 C.3       14 UNK        -0.0967 
     57 S57       -48.4077  -28.3872    8.6865 S.3       14 UNK        -0.2604 
     58 C58       -49.3364  -29.9465    8.5700 C.3       14 UNK         0.0134 
     59 N         -47.8616  -25.7812   10.5352 N.am      6 UNK        -0.4116 
     60 C         -47.9991  -24.5473   11.0427 C.2       5 UNK         0.5034 
     61 O         -48.5464  -24.3155   12.1238 O.2       5 UNK        -0.5045 
     62 CA        -47.4389  -23.3883   10.1983 C.3       5 UNK         0.0224 
     63 CB        -47.8811  -22.0021   10.7111 C.3       5 UNK        -0.1978 
     64 N         -45.9817  -23.4547   10.0633 N.am      5 UNK        -0.4737 
     65 C         -45.0540  -23.4535   11.0310 C.2       4 UNK         0.5027 
     66 O         -45.3077  -23.3400   12.2307 O.2       4 UNK        -0.5211 
     67 CA        -43.5921  -23.6310   10.5683 C.3       4 UNK         0.0297 
     68 CB        -42.6210  -23.8591   11.7419 C.3       4 UNK        -0.1993 
     69 N         -43.4627  -24.7435    9.6228 N.am      4 UNK        -0.4486 
     70 C         -43.7021  -24.6779    8.3071 C.2       3 UNK         0.4961 
     71 O         -43.9804  -23.6289    7.7229 O.2       3 UNK        -0.5105 
     72 CA        -43.6650  -25.9988    7.5115 C.3       3 UNK         0.0299 
     73 CB        -43.6110  -27.2660    8.3976 C.3       3 UNK        -0.1972 
     74 N         -44.7769  -26.1061    6.5579 N.am      3 UNK        -0.4305 
     75 C         -46.0882  -26.0431    6.8359 C.2       2 UNK         0.5006 
     76 O         -46.5493  -25.8012    7.9560 O.2       2 UNK        -0.5106 
     77 CA        -47.0392  -26.3273    5.6628 C.3       2 UNK         0.0296 
     78 CB        -46.7995  -27.7369    5.0775 C.3       2 UNK        -0.2002 
     79 N         -48.4188  -26.2129    6.1288 N.am      2 UNK        -0.4032 
     80 C         -49.5110  -26.1224    5.3639 C.2       1 UNK         0.5000 
     81 O         -49.4798  -26.0459    4.1331 O.2       1 UNK        -0.5238 
     82 H82       -51.6132  -22.2963    7.2414 H         1 UNK         0.0889 
     83 H83       -49.9956  -22.1322    7.9317 H         1 UNK         0.0889 
     84 H84       -51.3462  -22.6261    8.9549 H         1 UNK         0.0889 
     85 H85       -51.6912  -24.1504    5.9328 H         1 UNK         0.3028 
     86 H86       -50.7733  -26.7286    6.9801 H         1 UNK         0.0864 
     87 H87       -51.7441  -27.6260    4.8256 H         1 UNK         0.0720 
     88 H88       -52.1920  -26.0081    4.3680 H         1 UNK         0.0720 
     89 H89       -54.7678  -28.8593    6.5521 H         1 UNK         0.0814 
     90 H90       -53.3836  -29.1495    5.5396 H         1 UNK         0.0814 
     91 H91       -51.0599  -29.2258    6.6007 H         1 UNK         0.1469 
     92 H92       -50.9149  -30.1190   10.7886 H         1 UNK         0.1381 
     93 H93       -54.6246  -28.9641    8.9743 H         1 UNK         0.1206 
     94 H94       -52.7957  -29.6460   12.1675 H         1 UNK         0.0813 
     95 H95       -54.1877  -28.8200   11.5128 H         1 UNK         0.0813 
     96 H96       -53.9986  -30.8182   13.8505 H         1 UNK         0.0638 
     97 H97       -54.8796  -32.2960   13.5917 H         1 UNK         0.0638 
     98 H98       -56.9518  -30.9480   13.0753 H         1 UNK         0.0568 
     99 H99       -56.6593  -28.9414   15.8396 H         1 UNK         0.3450 
    100 H100      -57.0540  -30.1868   16.9983 H         1 UNK         0.3450 
    101 H101      -55.1992  -28.6440   13.6464 H         1 UNK         0.2987 
    102 H102      -56.5455  -26.6222   12.0008 H         1 UNK         0.0766 
    103 H103      -57.9744  -24.8953   13.1234 H         1 UNK         0.0798 
    104 H104      -58.5967  -26.1242   14.2240 H         1 UNK         0.0798 
    105 H105      -58.9362  -26.2243   12.5018 H         1 UNK         0.0798 
    106 H106      -55.0235  -25.8641   13.4144 H         1 UNK         0.3198 
    107 H107      -54.0692  -25.0583   15.1948 H         1 UNK         0.0843 
    108 H108      -55.1121  -25.8279   17.9600 H         1 UNK         0.0831 
    109 H109      -55.6094  -24.4013   17.0610 H         1 UNK         0.0831 
    110 H110      -53.9404  -24.5639   17.5793 H         1 UNK         0.0831 
    111 H111      -52.8024  -26.5726   16.9177 H         1 UNK         0.3133 
    112 H112      -51.6646  -28.6124   16.8355 H         1 UNK         0.0566 
    113 H113      -50.3715  -30.1687   15.3849 H         1 UNK         0.0814 
    114 H114      -52.0941  -30.4830   15.2603 H         1 UNK         0.0814 
    115 H115      -51.2613  -29.6271   13.9672 H         1 UNK         0.0814 
    116 H116      -50.3757  -27.3306   14.4539 H         1 UNK         0.3091 
    117 H117      -48.9030  -24.7936   16.5587 H         1 UNK         0.0702 
    118 H118      -47.1730  -25.2494   14.8020 H         1 UNK         0.0785 
    119 H119      -47.9501  -26.7880   14.4344 H         1 UNK         0.0785 
    120 H120      -47.2257  -26.5234   16.0117 H         1 UNK         0.0785 
    121 H121      -49.3886  -24.7559   13.7747 H         1 UNK         0.2998 
    122 H122      -52.5921  -23.1447   13.8384 H         1 UNK         0.0697 
    123 H123      -49.7718  -22.1808   13.1243 H         1 UNK         0.0825 
    124 H124      -50.9619  -21.3270   14.0908 H         1 UNK         0.0825 
    125 H125      -51.2597  -21.5954   12.3807 H         1 UNK         0.0825 
    126 H126      -50.5654  -24.3533   12.0227 H         1 UNK         0.3029 
    127 H127      -52.4803  -27.1474   11.4063 H         1 UNK         0.0897 
    128 H128      -52.5557  -26.4542    8.9324 H         1 UNK         0.0792 
    129 H129      -52.7206  -24.7870    9.4831 H         1 UNK         0.0792 
    130 H130      -53.9427  -25.9751    9.8972 H         1 UNK         0.0792 
    131 H131      -50.3238  -25.8905    9.9217 H         1 UNK         0.3086 
    132 H132      -47.8021  -27.0364   12.1386 H         1 UNK         0.0583 
    133 H133      -46.8314  -28.3982   10.4737 H         1 UNK         0.1020 
    134 H134      -48.2903  -29.1840   10.9784 H         1 UNK         0.1020 
    135 H135      -49.1174  -30.4077    7.6058 H         1 UNK         0.0694 
    136 H136      -48.9974  -30.6567    9.3253 H         1 UNK         0.0694 
    137 H137      -47.4265  -25.8863    9.6207 H         1 UNK         0.2989 
    138 H138      -47.8401  -23.5080    9.1917 H         1 UNK         0.1055 
    139 H139      -48.9686  -21.9228   10.7205 H         1 UNK         0.0806 
    140 H140      -47.5043  -21.2042   10.0716 H         1 UNK         0.0806 
    141 H141      -47.5310  -21.8122   11.7263 H         1 UNK         0.0806 
    142 H142      -45.6437  -23.5896    9.1165 H         1 UNK         0.3061 
    143 H143      -43.2990  -22.7031   10.0727 H         1 UNK         0.0734 
    144 H144      -41.5929  -23.9578   11.3936 H         1 UNK         0.0832 
    145 H145      -42.6447  -23.0193   12.4378 H         1 UNK         0.0832 
    146 H146      -42.8732  -24.7572   12.3067 H         1 UNK         0.0832 
    147 H147      -43.2828  -25.6522   10.0246 H         1 UNK         0.3156 
    148 H148      -42.7509  -25.9691    6.9169 H         1 UNK         0.0589 
    149 H149      -44.4725  -27.3369    9.0636 H         1 UNK         0.0808 
    150 H150      -43.5987  -28.1682    7.7859 H         1 UNK         0.0808 
    151 H151      -42.7078  -27.2913    9.0083 H         1 UNK         0.0808 
    152 H152      -44.5055  -26.2592    5.5969 H         1 UNK         0.3098 
    153 H153      -46.8634  -25.5717    4.8948 H         1 UNK         0.0720 
    154 H154      -47.4741  -27.9486    4.2481 H         1 UNK         0.0791 
    155 H155      -46.9478  -28.5113    5.8314 H         1 UNK         0.0791 
    156 H156      -45.7859  -27.8466    4.6914 H         1 UNK         0.0791 
    157 H157      -48.5132  -26.1787    7.1400 H         1 UNK         0.3028 
@<TRIPOS>BOND
     1    1    2 1    
     2    1   82 1    
     3    1   83 1    
     4    1   84 1    
     5    2    3 2    
     6    2    4 am   BACKBONE|DICT|INTERRES
     7    4    5 1    
     8    4   85 1    
     9    5    6 1    
    10    5   80 1    
    11    5   86 1    
    12    6    7 1    
    13    6   87 1    
    14    6   88 1    
    15    7    8 1    
    16    8    9 1    
    17    8   89 1    
    18    8   90 1    
    19    9   10 ar   
    20    9   14 ar   
    21   10   11 ar   
    22   10   91 1    
    23   11   12 ar   
    24   11   58 1    
    25   12   13 ar   
    26   12   92 1    
    27   13   14 ar   
    28   13   15 1    
    29   14   93 1    
    30   15   16 1    
    31   15   94 1    
    32   15   95 1    
    33   16   17 1    
    34   17   18 1    
    35   17   96 1    
    36   17   97 1    
    37   18   19 1    
    38   18   22 1    
    39   18   98 1    
    40   19   20 am   BACKBONE|DICT|INTERRES
    41   19   21 2    
    42   20   99 1    
    43   20  100 1    
    44   22   23 am   BACKBONE|DICT|INTERRES
    45   22  101 1    
    46   23   24 2    
    47   23   25 1    
    48   25   26 1    
    49   25   27 1    
    50   25  102 1    
    51   26  103 1    
    52   26  104 1    
    53   26  105 1    
    54   27   28 am   BACKBONE|DICT|INTERRES
    55   27  106 1    
    56   28   29 2    
    57   28   30 1    
    58   30   31 1    
    59   30   32 1    
    60   30  107 1    
    61   31  108 1    
    62   31  109 1    
    63   31  110 1    
    64   32   33 am   BACKBONE|DICT|INTERRES
    65   32  111 1    
    66   33   34 2    
    67   33   35 1    
    68   35   36 1    
    69   35   37 1    
    70   35  112 1    
    71   36  113 1    
    72   36  114 1    
    73   36  115 1    
    74   37   38 am   BACKBONE|DICT|INTERRES
    75   37  116 1    
    76   38   39 2    
    77   38   40 1    
    78   40   41 1    
    79   40   42 1    
    80   40  117 1    
    81   41  118 1    
    82   41  119 1    
    83   41  120 1    
    84   42   43 am   BACKBONE|DICT|INTERRES
    85   42  121 1    
    86   43   44 2    
    87   43   45 1    
    88   45   46 1    
    89   45   47 1    
    90   45  122 1    
    91   46  123 1    
    92   46  124 1    
    93   46  125 1    
    94   47   48 am   BACKBONE|DICT|INTERRES
    95   47  126 1    
    96   48   49 2    
    97   48   50 1    
    98   50   51 1    
    99   50   52 1    
   100   50  127 1    
   101   51  128 1    
   102   51  129 1    
   103   51  130 1    
   104   52   53 am   BACKBONE|DICT|INTERRES
   105   52  131 1    
   106   53   54 2    
   107   53   55 1    
   108   55   56 1    
   109   55   59 1    
   110   55  132 1    
   111   56   57 1    
   112   56  133 1    
   113   56  134 1    
   114   57   58 1    
   115   58  135 1    
   116   58  136 1    
   117   59   60 am   BACKBONE|DICT|INTERRES
   118   59  137 1    
   119   60   61 2    
   120   60   62 1    
   121   62   63 1    
   122   62   64 1    
   123   62  138 1    
   124   63  139 1    
   125   63  140 1    
   126   63  141 1    
   127   64   65 am   BACKBONE|DICT|INTERRES
   128   64  142 1    
   129   65   66 2    
   130   65   67 1    
   131   67   68 1    
   132   67   69 1    
   133   67  143 1    
   134   68  144 1    
   135   68  145 1    
   136   68  146 1    
   137   69   70 am   BACKBONE|DICT|INTERRES
   138   69  147 1    
   139   70   71 2    
   140   70   72 1    
   141   72   73 1    
   142   72   74 1    
   143   72  148 1    
   144   73  149 1    
   145   73  150 1    
   146   73  151 1    
   147   74   75 am   BACKBONE|DICT|INTERRES
   148   74  152 1    
   149   75   76 2    
   150   75   77 1    
   151   77   78 1    
   152   77   79 1    
   153   77  153 1    
   154   78  154 1    
   155   78  155 1    
   156   78  156 1    
   157   79   80 am   BACKBONE|DICT|INTERRES
   158   79  157 1    
   159   80   81 2    
@<TRIPOS>SUBSTRUCTURE
     1 UNK         1 GROUP             0       ****    0 ROOT    
