@<TRIPOS>MOLECULE
3R207
157   159    1
SMALL
USER_CHARGES


@<TRIPOS>ATOM
      1 CA        -44.5620  -28.0989   10.3259 C.3       0 UNK        -0.1975 
      2 C         -45.3533  -28.5007    9.0902 C.2       0 UNK         0.4852 
      3 O         -45.0105  -29.4843    8.4336 O.2       0 UNK        -0.5216 
      4 N         -46.4041  -27.7388    8.7651 N.am      1 UNK        -0.4461 
      5 CA        -47.2468  -27.9210    7.5788 C.3       1 UNK         0.0864 
      6 C6        -48.6477  -27.3012    7.8174 C.3       14 UNK        -0.0898 
      7 S7        -49.9285  -27.9323    6.6810 S.3       14 UNK        -0.2598 
      8 C8        -50.8254  -29.1188    7.7404 C.3       14 UNK         0.0286 
      9 C9        -51.5689  -28.5020    8.9261 C.ar      14 UNK        -0.0844 
     10 C10       -52.0565  -27.1882    8.9037 C.ar      14 UNK        -0.0881 
     11 C11       -52.7310  -26.6568   10.0071 C.ar      14 UNK        -0.0643 
     12 C12       -52.9477  -27.4579   11.1315 C.ar      14 UNK        -0.0930 
     13 C13       -52.4891  -28.7774   11.1585 C.ar      14 UNK        -0.0827 
     14 C14       -51.7941  -29.2886   10.0599 C.ar      14 UNK        -0.1249 
     15 C15       -52.7451  -29.6495   12.3760 C.3       14 UNK         0.0141 
     16 S16       -54.2248  -30.6853   12.1458 S.3       14 UNK        -0.2313 
     17 C17       -54.8090  -30.8510   13.8681 C.3       14 UNK        -0.0915 
     18 CA        -56.1597  -30.1259   14.1219 C.3       13 UNK         0.0968 
     19 C         -56.6458  -30.2833   15.5920 C.2       13 UNK         0.5732 
     20 N         -57.0933  -29.2319   16.2712 N.am      13 UNK        -0.7310 
     21 O         -56.6438  -31.3908   16.1247 O.2       13 UNK        -0.5035 
     22 N         -56.1353  -28.7250   13.6704 N.am      13 UNK        -0.4233 
     23 C         -57.1074  -28.1487   12.9519 C.2       13 UNK         0.4989 
     24 O         -58.1172  -28.7458   12.5718 O.2       13 UNK        -0.4996 
     25 CA        -56.9279  -26.6612   12.5816 C.3       12 UNK         0.0216 
     26 CB        -58.2567  -25.9878   12.1770 C.3       12 UNK        -0.1964 
     27 N         -56.2528  -25.8500   13.6006 N.am      12 UNK        -0.4276 
     28 C         -56.5737  -25.6984   14.8924 C.2       12 UNK         0.5020 
     29 O         -57.4659  -26.3320   15.4602 O.2       12 UNK        -0.5489 
     30 CA        -55.7237  -24.6760   15.6778 C.3       11 UNK         0.0294 
     31 CB        -56.2465  -24.4509   17.1089 C.3       11 UNK        -0.2019 
     32 N         -54.3171  -25.0765   15.7477 N.am      11 UNK        -0.4493 
     33 C         -53.4471  -25.0819   14.7287 C.2       11 UNK         0.4932 
     34 O         -53.7044  -24.6272   13.6136 O.2       11 UNK        -0.5029 
     35 CA        -52.0750  -25.7368   14.9677 C.3       10 UNK         0.0280 
     36 CB        -51.0207  -24.6519   15.2386 C.3       10 UNK        -0.1976 
     37 N         -52.0221  -26.7301   16.0472 N.am      10 UNK        -0.4242 
     38 C         -52.8074  -27.8089   16.1951 C.2       10 UNK         0.5072 
     39 O         -53.7714  -28.0696   15.4740 O.2       10 UNK        -0.5224 
     40 CA        -52.4042  -28.7434   17.3486 C.3       9 UNK         0.0343 
     41 CB        -53.4507  -29.8333   17.6665 C.3       9 UNK        -0.2003 
     42 N         -51.0664  -29.2991   17.1017 N.am      9 UNK        -0.4272 
     43 C         -50.7056  -30.1589   16.1355 C.2       9 UNK         0.4988 
     44 O         -51.4903  -30.7688   15.4093 O.2       9 UNK        -0.5108 
     45 CA        -49.1870  -30.3135   15.9330 C.3       8 UNK         0.0248 
     46 CB        -48.8132  -31.5632   15.1058 C.3       8 UNK        -0.2001 
     47 N         -48.6010  -29.0964   15.3489 N.am      8 UNK        -0.4140 
     48 C         -48.8912  -28.5463   14.1585 C.2       8 UNK         0.5028 
     49 O         -49.6759  -29.0224   13.3365 O.2       8 UNK        -0.5428 
     50 CA        -48.1584  -27.2454   13.8116 C.3       7 UNK         0.0264 
     51 CB        -46.6838  -27.5169   13.4570 C.3       7 UNK        -0.1988 
     52 N         -48.8294  -26.6276   12.6700 N.am      7 UNK        -0.4454 
     53 C         -48.7908  -25.3299   12.3550 C.2       7 UNK         0.5027 
     54 O         -48.2209  -24.4771   13.0407 O.2       7 UNK        -0.5083 
     55 CA        -49.5174  -24.9072   11.0608 C.3       6 UNK         0.0844 
     56 C56       -50.9266  -24.3514   11.3795 C.3       14 UNK        -0.0967 
     57 S57       -51.8843  -24.0041    9.8646 S.3       14 UNK        -0.2604 
     58 C58       -53.2372  -25.2208    9.9787 C.3       14 UNK         0.0134 
     59 N         -48.7158  -23.9325   10.3156 N.am      6 UNK        -0.4116 
     60 C         -47.4874  -24.1286    9.8243 C.2       5 UNK         0.5034 
     61 O         -46.9112  -25.2190    9.8347 O.2       5 UNK        -0.5045 
     62 CA        -46.7967  -22.8965    9.2077 C.3       5 UNK         0.0224 
     63 CB        -45.3155  -23.1585    8.8878 C.3       5 UNK        -0.1978 
     64 N         -47.4756  -22.4294    7.9947 N.am      5 UNK        -0.4737 
     65 C         -48.6241  -21.7365    7.9814 C.2       4 UNK         0.5027 
     66 O         -49.2174  -21.4038    9.0087 O.2       4 UNK        -0.5211 
     67 CA        -49.2139  -21.3239    6.6193 C.3       4 UNK         0.0297 
     68 CB        -49.0613  -19.8087    6.4068 C.3       4 UNK        -0.1993 
     69 N         -48.6278  -22.0233    5.4737 N.am      4 UNK        -0.4486 
     70 C         -48.8477  -23.3055    5.1568 C.2       3 UNK         0.4961 
     71 O         -49.5812  -24.0545    5.8012 O.2       3 UNK        -0.5105 
     72 CA        -48.1174  -23.8574    3.9171 C.3       3 UNK         0.0299 
     73 CB        -47.6181  -22.7697    2.9375 C.3       3 UNK        -0.1972 
     74 N         -47.0243  -24.7554    4.3001 N.am      3 UNK        -0.4305 
     75 C         -45.9635  -24.4599    5.0647 C.2       2 UNK         0.5006 
     76 O         -45.7471  -23.3475    5.5503 O.2       2 UNK        -0.5106 
     77 CA        -45.0310  -25.6362    5.3941 C.3       2 UNK         0.0296 
     78 CB        -43.6130  -25.1871    5.7940 C.3       2 UNK        -0.2002 
     79 N         -45.6264  -26.4166    6.4776 N.am      2 UNK        -0.4032 
     80 C         -46.5795  -27.3453    6.3084 C.2       1 UNK         0.5000 
     81 O         -46.9416  -27.7363    5.1964 O.2       1 UNK        -0.5238 
     82 H82       -44.5956  -28.8952   11.0689 H         1 UNK         0.0889 
     83 H83       -44.9550  -27.1899   10.7819 H         1 UNK         0.0889 
     84 H84       -43.5197  -27.9213   10.0629 H         1 UNK         0.0889 
     85 H85       -46.6136  -26.9090    9.3211 H         1 UNK         0.3028 
     86 H86       -47.3718  -28.9944    7.4199 H         1 UNK         0.0864 
     87 H87       -48.9705  -27.5052    8.8391 H         1 UNK         0.0720 
     88 H88       -48.6171  -26.2127    7.7336 H         1 UNK         0.0720 
     89 H89       -50.1122  -29.8652    8.0941 H         1 UNK         0.0814 
     90 H90       -51.5492  -29.6524    7.1233 H         1 UNK         0.0814 
     91 H91       -51.9053  -26.5640    8.0340 H         1 UNK         0.1469 
     92 H92       -53.4785  -27.0581   11.9846 H         1 UNK         0.1381 
     93 H93       -51.4380  -30.3096   10.0872 H         1 UNK         0.1206 
     94 H94       -52.8517  -29.0175   13.2568 H         1 UNK         0.0813 
     95 H95       -51.8867  -30.2938   12.5705 H         1 UNK         0.0813 
     96 H96       -54.9093  -31.9173   14.0771 H         1 UNK         0.0638 
     97 H97       -54.0421  -30.4889   14.5507 H         1 UNK         0.0638 
     98 H98       -56.9005  -30.6699   13.5340 H         1 UNK         0.0568 
     99 H99       -57.1329  -28.3108   15.8487 H         1 UNK         0.3450 
    100 H100      -57.4138  -29.3612   17.2167 H         1 UNK         0.3450 
    101 H101      -55.3567  -28.1772   14.0172 H         1 UNK         0.2987 
    102 H102      -56.2748  -26.6521   11.7077 H         1 UNK         0.0766 
    103 H103      -58.9770  -25.9987   12.9960 H         1 UNK         0.0798 
    104 H104      -58.1020  -24.9503   11.8806 H         1 UNK         0.0798 
    105 H105      -58.7168  -26.4976   11.3296 H         1 UNK         0.0798 
    106 H106      -55.4374  -25.3282   13.2859 H         1 UNK         0.3198 
    107 H107      -55.7868  -23.7243   15.1455 H         1 UNK         0.0843 
    108 H108      -56.1999  -25.3633   17.7048 H         1 UNK         0.0831 
    109 H109      -57.2870  -24.1235   17.0963 H         1 UNK         0.0831 
    110 H110      -55.6731  -23.6811   17.6256 H         1 UNK         0.0831 
    111 H111      -54.0208  -25.5078   16.6105 H         1 UNK         0.3133 
    112 H112      -51.8045  -26.2611   14.0493 H         1 UNK         0.0566 
    113 H113      -50.0179  -25.0725   15.3025 H         1 UNK         0.0814 
    114 H114      -51.0052  -23.9087   14.4404 H         1 UNK         0.0814 
    115 H115      -51.2203  -24.1201   16.1698 H         1 UNK         0.0814 
    116 H116      -51.2730  -26.6079   16.7127 H         1 UNK         0.3091 
    117 H117      -52.3202  -28.1186   18.2392 H         1 UNK         0.0702 
    118 H118      -53.1450  -30.4374   18.5203 H         1 UNK         0.0785 
    119 H119      -53.6225  -30.5063   16.8280 H         1 UNK         0.0785 
    120 H120      -54.4127  -29.3830   17.9142 H         1 UNK         0.0785 
    121 H121      -50.3241  -28.8818   17.6459 H         1 UNK         0.2998 
    122 H122      -48.7423  -30.4359   16.9220 H         1 UNK         0.0697 
    123 H123      -49.2330  -31.5305   14.0998 H         1 UNK         0.0825 
    124 H124      -49.1899  -32.4693   15.5818 H         1 UNK         0.0825 
    125 H125      -47.7325  -31.6691   15.0136 H         1 UNK         0.0825 
    126 H126      -47.9307  -28.6191   15.9360 H         1 UNK         0.3029 
    127 H127      -48.2144  -26.5773   14.6734 H         1 UNK         0.0897 
    128 H128      -46.1477  -27.9586   14.2977 H         1 UNK         0.0792 
    129 H129      -46.1616  -26.5978   13.1901 H         1 UNK         0.0792 
    130 H130      -46.5981  -28.2060   12.6161 H         1 UNK         0.0792 
    131 H131      -49.3818  -27.2813   12.1253 H         1 UNK         0.3086 
    132 H132      -49.6286  -25.7899   10.4281 H         1 UNK         0.0583 
    133 H133      -51.4859  -25.0515   12.0004 H         1 UNK         0.1020 
    134 H134      -50.8558  -23.4291   11.9591 H         1 UNK         0.1020 
    135 H135      -53.8380  -25.0000   10.8623 H         1 UNK         0.0694 
    136 H136      -53.8979  -25.0938    9.1202 H         1 UNK         0.0694 
    137 H137      -49.1277  -23.0140   10.1876 H         1 UNK         0.2989 
    138 H138      -46.8323  -22.1005    9.9552 H         1 UNK         0.1055 
    139 H139      -45.2043  -23.9737    8.1763 H         1 UNK         0.0806 
    140 H140      -44.7641  -23.4341    9.7877 H         1 UNK         0.0806 
    141 H141      -44.8336  -22.2759    8.4669 H         1 UNK         0.0806 
    142 H142      -47.0437  -22.6719    7.1091 H         1 UNK         0.3061 
    143 H143      -50.2803  -21.5581    6.6495 H         1 UNK         0.0734 
    144 H144      -49.5232  -19.2512    7.2232 H         1 UNK         0.0832 
    145 H145      -48.0131  -19.5105    6.3623 H         1 UNK         0.0832 
    146 H146      -49.5441  -19.4851    5.4845 H         1 UNK         0.0832 
    147 H147      -47.9750  -21.5011    4.9069 H         1 UNK         0.3156 
    148 H148      -48.8459  -24.4685    3.3821 H         1 UNK         0.0589 
    149 H149      -46.8278  -22.1506    3.3630 H         1 UNK         0.0808 
    150 H150      -47.2217  -23.2209    2.0278 H         1 UNK         0.0808 
    151 H151      -48.4320  -22.1094    2.6349 H         1 UNK         0.0808 
    152 H152      -47.1497  -25.7276    4.0435 H         1 UNK         0.3098 
    153 H153      -44.9357  -26.2577    4.5008 H         1 UNK         0.0720 
    154 H154      -42.9669  -26.0448    5.9819 H         1 UNK         0.0791 
    155 H155      -43.6063  -24.5644    6.6875 H         1 UNK         0.0791 
    156 H156      -43.1533  -24.6059    4.9936 H         1 UNK         0.0791 
    157 H157      -45.3961  -26.1405    7.4207 H         1 UNK         0.3028 
@<TRIPOS>BOND
     1    1    2 1    
     2    1   82 1    
     3    1   83 1    
     4    1   84 1    
     5    2    3 2    
     6    2    4 am   BACKBONE|DICT|INTERRES
     7    4    5 1    
     8    4   85 1    
     9    5    6 1    
    10    5   80 1    
    11    5   86 1    
    12    6    7 1    
    13    6   87 1    
    14    6   88 1    
    15    7    8 1    
    16    8    9 1    
    17    8   89 1    
    18    8   90 1    
    19    9   10 ar   
    20    9   14 ar   
    21   10   11 ar   
    22   10   91 1    
    23   11   12 ar   
    24   11   58 1    
    25   12   13 ar   
    26   12   92 1    
    27   13   14 ar   
    28   13   15 1    
    29   14   93 1    
    30   15   16 1    
    31   15   94 1    
    32   15   95 1    
    33   16   17 1    
    34   17   18 1    
    35   17   96 1    
    36   17   97 1    
    37   18   19 1    
    38   18   22 1    
    39   18   98 1    
    40   19   20 am   BACKBONE|DICT|INTERRES
    41   19   21 2    
    42   20   99 1    
    43   20  100 1    
    44   22   23 am   BACKBONE|DICT|INTERRES
    45   22  101 1    
    46   23   24 2    
    47   23   25 1    
    48   25   26 1    
    49   25   27 1    
    50   25  102 1    
    51   26  103 1    
    52   26  104 1    
    53   26  105 1    
    54   27   28 am   BACKBONE|DICT|INTERRES
    55   27  106 1    
    56   28   29 2    
    57   28   30 1    
    58   30   31 1    
    59   30   32 1    
    60   30  107 1    
    61   31  108 1    
    62   31  109 1    
    63   31  110 1    
    64   32   33 am   BACKBONE|DICT|INTERRES
    65   32  111 1    
    66   33   34 2    
    67   33   35 1    
    68   35   36 1    
    69   35   37 1    
    70   35  112 1    
    71   36  113 1    
    72   36  114 1    
    73   36  115 1    
    74   37   38 am   BACKBONE|DICT|INTERRES
    75   37  116 1    
    76   38   39 2    
    77   38   40 1    
    78   40   41 1    
    79   40   42 1    
    80   40  117 1    
    81   41  118 1    
    82   41  119 1    
    83   41  120 1    
    84   42   43 am   BACKBONE|DICT|INTERRES
    85   42  121 1    
    86   43   44 2    
    87   43   45 1    
    88   45   46 1    
    89   45   47 1    
    90   45  122 1    
    91   46  123 1    
    92   46  124 1    
    93   46  125 1    
    94   47   48 am   BACKBONE|DICT|INTERRES
    95   47  126 1    
    96   48   49 2    
    97   48   50 1    
    98   50   51 1    
    99   50   52 1    
   100   50  127 1    
   101   51  128 1    
   102   51  129 1    
   103   51  130 1    
   104   52   53 am   BACKBONE|DICT|INTERRES
   105   52  131 1    
   106   53   54 2    
   107   53   55 1    
   108   55   56 1    
   109   55   59 1    
   110   55  132 1    
   111   56   57 1    
   112   56  133 1    
   113   56  134 1    
   114   57   58 1    
   115   58  135 1    
   116   58  136 1    
   117   59   60 am   BACKBONE|DICT|INTERRES
   118   59  137 1    
   119   60   61 2    
   120   60   62 1    
   121   62   63 1    
   122   62   64 1    
   123   62  138 1    
   124   63  139 1    
   125   63  140 1    
   126   63  141 1    
   127   64   65 am   BACKBONE|DICT|INTERRES
   128   64  142 1    
   129   65   66 2    
   130   65   67 1    
   131   67   68 1    
   132   67   69 1    
   133   67  143 1    
   134   68  144 1    
   135   68  145 1    
   136   68  146 1    
   137   69   70 am   BACKBONE|DICT|INTERRES
   138   69  147 1    
   139   70   71 2    
   140   70   72 1    
   141   72   73 1    
   142   72   74 1    
   143   72  148 1    
   144   73  149 1    
   145   73  150 1    
   146   73  151 1    
   147   74   75 am   BACKBONE|DICT|INTERRES
   148   74  152 1    
   149   75   76 2    
   150   75   77 1    
   151   77   78 1    
   152   77   79 1    
   153   77  153 1    
   154   78  154 1    
   155   78  155 1    
   156   78  156 1    
   157   79   80 am   BACKBONE|DICT|INTERRES
   158   79  157 1    
   159   80   81 2    
@<TRIPOS>SUBSTRUCTURE
     1 UNK         1 GROUP             0       ****    0 ROOT    
