@<TRIPOS>MOLECULE
3R207
157   159    1
SMALL
USER_CHARGES


@<TRIPOS>ATOM
      1 CA        -45.0153  -29.9108    6.1534 C.3       0 UNK        -0.1975 
      2 C         -46.3710  -29.7032    5.4939 C.2       0 UNK         0.4852 
      3 O         -46.6587  -30.3295    4.4729 O.2       0 UNK        -0.5216 
      4 N         -47.1994  -28.8260    6.0680 N.am      1 UNK        -0.4461 
      5 CA        -48.5365  -28.4797    5.5919 C.3       1 UNK         0.0864 
      6 C6        -49.6653  -29.4868    5.9963 C.3       14 UNK        -0.0898 
      7 S7        -49.3567  -30.6321    7.3962 S.3       14 UNK        -0.2598 
      8 C8        -49.3216  -29.5544    8.8616 C.3       14 UNK         0.0286 
      9 C9        -50.7008  -29.0929    9.3041 C.ar      14 UNK        -0.0844 
     10 C10       -51.2300  -27.9020    8.8064 C.ar      14 UNK        -0.0881 
     11 C11       -52.4470  -27.4065    9.2754 C.ar      14 UNK        -0.0643 
     12 C12       -53.1545  -28.1292   10.2400 C.ar      14 UNK        -0.0930 
     13 C13       -52.6470  -29.3368   10.7316 C.ar      14 UNK        -0.0827 
     14 C14       -51.4197  -29.8147   10.2611 C.ar      14 UNK        -0.1249 
     15 C15       -53.4130  -30.1040   11.7951 C.3       14 UNK         0.0141 
     16 S16       -54.7049  -31.1466   11.0559 S.3       14 UNK        -0.2313 
     17 C17       -55.6857  -31.5659   12.5354 C.3       14 UNK        -0.0915 
     18 CA        -57.0749  -30.8765   12.5399 C.3       13 UNK         0.0968 
     19 C         -57.9220  -31.3634   13.7472 C.2       13 UNK         0.5732 
     20 N         -58.6548  -32.4571   13.5895 N.am      13 UNK        -0.7310 
     21 O         -57.8888  -30.7851   14.8324 O.2       13 UNK        -0.5035 
     22 N         -56.9562  -29.4124   12.4993 N.am      13 UNK        -0.4233 
     23 C         -57.9610  -28.5641   12.2590 C.2       13 UNK         0.4989 
     24 O         -59.1023  -28.9205   11.9589 O.2       13 UNK        -0.4996 
     25 CA        -57.6292  -27.0653   12.4005 C.3       12 UNK         0.0216 
     26 CB        -58.7995  -26.1543   11.9831 C.3       12 UNK        -0.1964 
     27 N         -57.2360  -26.7365   13.7738 N.am      12 UNK        -0.4276 
     28 C         -56.0278  -26.9675   14.3002 C.2       12 UNK         0.5020 
     29 O         -55.0981  -27.4805   13.6724 O.2       12 UNK        -0.5489 
     30 CA        -55.8483  -26.6314   15.7877 C.3       11 UNK         0.0294 
     31 CB        -56.0744  -27.8867   16.6455 C.3       11 UNK        -0.2019 
     32 N         -54.5058  -26.1146   16.0446 N.am      11 UNK        -0.4493 
     33 C         -54.0782  -24.8899   15.7211 C.2       11 UNK         0.4932 
     34 O         -54.8098  -24.0154   15.2549 O.2       11 UNK        -0.5029 
     35 CA        -52.5900  -24.5745   15.9564 C.3       10 UNK         0.0280 
     36 CB        -52.3122  -24.2389   17.4342 C.3       10 UNK        -0.1976 
     37 N         -51.6588  -25.5910   15.4497 N.am      10 UNK        -0.4242 
     38 C         -51.4629  -26.8520   15.8624 C.2       10 UNK         0.5072 
     39 O         -52.1058  -27.3946   16.7629 O.2       10 UNK        -0.5224 
     40 CA        -50.3538  -27.6446   15.1494 C.3       9 UNK         0.0343 
     41 CB        -50.8764  -28.2331   13.8285 C.3       9 UNK        -0.2003 
     42 N         -49.1488  -26.8455   14.9011 N.am      9 UNK        -0.4272 
     43 C         -48.3445  -26.3659   15.8638 C.2       9 UNK         0.4988 
     44 O         -48.4961  -26.6010   17.0633 O.2       9 UNK        -0.5108 
     45 CA        -47.1736  -25.4682   15.4241 C.3       8 UNK         0.0248 
     46 CB        -45.9943  -26.3158   14.9208 C.3       8 UNK        -0.2001 
     47 N         -47.5564  -24.4936   14.4008 N.am      8 UNK        -0.4140 
     48 C         -48.4060  -23.4741   14.5953 C.2       8 UNK         0.5028 
     49 O         -48.8925  -23.1821   15.6880 O.2       8 UNK        -0.5428 
     50 CA        -48.8154  -22.6644   13.3511 C.3       7 UNK         0.0264 
     51 CB        -47.7982  -21.5515   13.0517 C.3       7 UNK        -0.1988 
     52 N         -49.0030  -23.5056   12.1643 N.am      7 UNK        -0.4454 
     53 C         -49.9431  -24.4585   12.0630 C.2       7 UNK         0.5027 
     54 O         -50.7697  -24.6927   12.9439 O.2       7 UNK        -0.5083 
     55 CA        -49.9231  -25.3295   10.7933 C.3       6 UNK         0.0844 
     56 C56       -50.6657  -24.6474    9.6169 C.3       14 UNK        -0.0967 
     57 S57       -52.4836  -24.6842    9.8112 S.3       14 UNK        -0.2604 
     58 C58       -52.9766  -26.0809    8.7500 C.3       14 UNK         0.0134 
     59 N         -48.5512  -25.7079   10.4415 N.am      6 UNK        -0.4116 
     60 C         -47.8008  -26.5696   11.1455 C.2       5 UNK         0.5034 
     61 O         -48.2160  -27.1951   12.1197 O.2       5 UNK        -0.5045 
     62 CA        -46.3198  -26.7183   10.7452 C.3       5 UNK         0.0224 
     63 CB        -46.1222  -27.8575    9.7352 C.3       5 UNK        -0.1978 
     64 N         -45.7395  -25.4852   10.2087 N.am      5 UNK        -0.4737 
     65 C         -45.5647  -24.3646   10.9218 C.2       4 UNK         0.5027 
     66 O         -45.8083  -24.2850   12.1246 O.2       4 UNK        -0.5211 
     67 CA        -45.0952  -23.1101   10.1618 C.3       4 UNK         0.0297 
     68 CB        -43.5692  -22.9652   10.2641 C.3       4 UNK        -0.1993 
     69 N         -45.4975  -23.0701    8.7487 N.am      4 UNK        -0.4486 
     70 C         -46.7598  -23.1235    8.2996 C.2       3 UNK         0.4961 
     71 O         -47.7361  -23.2392    9.0452 O.2       3 UNK        -0.5105 
     72 CA        -46.9774  -23.0787    6.7777 C.3       3 UNK         0.0299 
     73 CB        -45.7284  -23.4374    5.9443 C.3       3 UNK        -0.1972 
     74 N         -48.0652  -23.9946    6.4553 N.am      3 UNK        -0.4305 
     75 C         -48.9716  -23.8637    5.4860 C.2       2 UNK         0.5006 
     76 O         -48.9588  -22.9532    4.6552 O.2       2 UNK        -0.5106 
     77 CA        -50.0819  -24.9381    5.4525 C.3       2 UNK         0.0296 
     78 CB        -51.1763  -24.6219    4.4157 C.3       2 UNK        -0.2002 
     79 N         -49.5911  -26.3020    5.2163 N.am      2 UNK        -0.4032 
     80 C         -48.8397  -27.0432    6.0442 C.2       1 UNK         0.5000 
     81 O         -48.4167  -26.6454    7.1351 O.2       1 UNK        -0.5238 
     82 H82       -44.8995  -30.9530    6.4498 H         1 UNK         0.0889 
     83 H83       -44.8939  -29.2911    7.0416 H         1 UNK         0.0889 
     84 H84       -44.2160  -29.6636    5.4552 H         1 UNK         0.0889 
     85 H85       -46.9115  -28.2956    6.8789 H         1 UNK         0.3028 
     86 H86       -48.4916  -28.4472    4.5006 H         1 UNK         0.0864 
     87 H87       -50.6208  -28.9858    6.1625 H         1 UNK         0.0720 
     88 H88       -49.8495  -30.1340    5.1377 H         1 UNK         0.0720 
     89 H89       -48.6850  -28.6937    8.6708 H         1 UNK         0.0814 
     90 H90       -48.8436  -30.0986    9.6774 H         1 UNK         0.0814 
     91 H91       -50.6777  -27.3368    8.0753 H         1 UNK         0.1469 
     92 H92       -54.0938  -27.7478   10.6172 H         1 UNK         0.1381 
     93 H93       -51.0146  -30.7372   10.6541 H         1 UNK         0.1206 
     94 H94       -52.7364  -30.7291   12.3797 H         1 UNK         0.0813 
     95 H95       -53.8603  -29.4000   12.4956 H         1 UNK         0.0813 
     96 H96       -55.8020  -32.6511   12.5478 H         1 UNK         0.0638 
     97 H97       -55.1260  -31.3123   13.4378 H         1 UNK         0.0638 
     98 H98       -57.5989  -31.1769   11.6303 H         1 UNK         0.0568 
     99 H99       -58.6800  -32.9466   12.7085 H         1 UNK         0.3450 
    100 H100      -59.1993  -32.7967   14.3668 H         1 UNK         0.3450 
    101 H101      -56.0725  -29.0174   12.8017 H         1 UNK         0.2987 
    102 H102      -56.7918  -26.8541   11.7314 H         1 UNK         0.0766 
    103 H103      -58.5215  -25.1016   12.0385 H         1 UNK         0.0798 
    104 H104      -59.6763  -26.3039   12.6145 H         1 UNK         0.0798 
    105 H105      -59.1009  -26.3533   10.9538 H         1 UNK         0.0798 
    106 H106      -57.9602  -26.3583   14.3683 H         1 UNK         0.3198 
    107 H107      -56.5767  -25.8702   16.0763 H         1 UNK         0.0843 
    108 H108      -55.3589  -28.6740   16.4028 H         1 UNK         0.0831 
    109 H109      -57.0728  -28.2969   16.4859 H         1 UNK         0.0831 
    110 H110      -55.9808  -27.6643   17.7086 H         1 UNK         0.0831 
    111 H111      -53.8073  -26.7731   16.3826 H         1 UNK         0.3133 
    112 H112      -52.3674  -23.6778   15.3756 H         1 UNK         0.0566 
    113 H113      -51.2746  -23.9372   17.5801 H         1 UNK         0.0814 
    114 H114      -52.9412  -23.4135   17.7699 H         1 UNK         0.0814 
    115 H115      -52.5108  -25.0857   18.0918 H         1 UNK         0.0814 
    116 H116      -51.1406  -25.2946   14.6231 H         1 UNK         0.3091 
    117 H117      -50.0719  -28.4753   15.7996 H         1 UNK         0.0702 
    118 H118      -51.7601  -28.8480   14.0017 H         1 UNK         0.0785 
    119 H119      -50.1291  -28.8659   13.3494 H         1 UNK         0.0785 
    120 H120      -51.1581  -27.4551   13.1182 H         1 UNK         0.0785 
    121 H121      -48.9106  -26.6738   13.9295 H         1 UNK         0.2998 
    122 H122      -46.8367  -24.9095   16.2998 H         1 UNK         0.0697 
    123 H123      -46.2685  -26.9165   14.0539 H         1 UNK         0.0825 
    124 H124      -45.6503  -27.0020   15.6958 H         1 UNK         0.0825 
    125 H125      -45.1462  -25.6906   14.6404 H         1 UNK         0.0825 
    126 H126      -47.1213  -24.5897   13.4868 H         1 UNK         0.3029 
    127 H127      -49.7756  -22.1925   13.5715 H         1 UNK         0.0897 
    128 H128      -48.1025  -20.9542   12.1920 H         1 UNK         0.0792 
    129 H129      -46.8042  -21.9497   12.8500 H         1 UNK         0.0792 
    130 H130      -47.7073  -20.8732   13.9012 H         1 UNK         0.0792 
    131 H131      -48.3591  -23.3739   11.3949 H         1 UNK         0.3086 
    132 H132      -50.4502  -26.2555   11.0321 H         1 UNK         0.0583 
    133 H133      -50.3482  -23.6097    9.4969 H         1 UNK         0.1020 
    134 H134      -50.4027  -25.1362    8.6814 H         1 UNK         0.1020 
    135 H135      -54.0659  -26.1161    8.6998 H         1 UNK         0.0694 
    136 H136      -52.6313  -25.9053    7.7299 H         1 UNK         0.0694 
    137 H137      -48.1161  -25.1743    9.6993 H         1 UNK         0.2989 
    138 H138      -45.7692  -26.9770   11.6522 H         1 UNK         0.1055 
    139 H139      -46.5663  -28.7852   10.0987 H         1 UNK         0.0806 
    140 H140      -45.0634  -28.0541    9.5653 H         1 UNK         0.0806 
    141 H141      -46.5765  -27.6233    8.7743 H         1 UNK         0.0806 
    142 H142      -45.5082  -25.4697    9.2262 H         1 UNK         0.3061 
    143 H143      -45.5527  -22.2486   10.6524 H         1 UNK         0.0734 
    144 H144      -43.2275  -22.0275    9.8254 H         1 UNK         0.0832 
    145 H145      -43.2468  -22.9678   11.3066 H         1 UNK         0.0832 
    146 H146      -43.0503  -23.7824    9.7614 H         1 UNK         0.0832 
    147 H147      -44.7544  -22.9840    8.0701 H         1 UNK         0.3156 
    148 H148      -47.2838  -22.0594    6.5347 H         1 UNK         0.0589 
    149 H149      -45.3441  -24.4273    6.1943 H         1 UNK         0.0808 
    150 H150      -45.9567  -23.4352    4.8782 H         1 UNK         0.0808 
    151 H151      -44.9254  -22.7145    6.0920 H         1 UNK         0.0808 
    152 H152      -48.1474  -24.8120    7.0559 H         1 UNK         0.3098 
    153 H153      -50.5605  -24.9228    6.4317 H         1 UNK         0.0720 
    154 H154      -51.9983  -25.3356    4.4745 H         1 UNK         0.0791 
    155 H155      -50.7860  -24.6405    3.3973 H         1 UNK         0.0791 
    156 H156      -51.6008  -23.6311    4.5842 H         1 UNK         0.0791 
    157 H157      -49.8663  -26.7107    4.3346 H         1 UNK         0.3028 
@<TRIPOS>BOND
     1    1    2 1    
     2    1   82 1    
     3    1   83 1    
     4    1   84 1    
     5    2    3 2    
     6    2    4 am   BACKBONE|DICT|INTERRES
     7    4    5 1    
     8    4   85 1    
     9    5    6 1    
    10    5   80 1    
    11    5   86 1    
    12    6    7 1    
    13    6   87 1    
    14    6   88 1    
    15    7    8 1    
    16    8    9 1    
    17    8   89 1    
    18    8   90 1    
    19    9   10 ar   
    20    9   14 ar   
    21   10   11 ar   
    22   10   91 1    
    23   11   12 ar   
    24   11   58 1    
    25   12   13 ar   
    26   12   92 1    
    27   13   14 ar   
    28   13   15 1    
    29   14   93 1    
    30   15   16 1    
    31   15   94 1    
    32   15   95 1    
    33   16   17 1    
    34   17   18 1    
    35   17   96 1    
    36   17   97 1    
    37   18   19 1    
    38   18   22 1    
    39   18   98 1    
    40   19   20 am   BACKBONE|DICT|INTERRES
    41   19   21 2    
    42   20   99 1    
    43   20  100 1    
    44   22   23 am   BACKBONE|DICT|INTERRES
    45   22  101 1    
    46   23   24 2    
    47   23   25 1    
    48   25   26 1    
    49   25   27 1    
    50   25  102 1    
    51   26  103 1    
    52   26  104 1    
    53   26  105 1    
    54   27   28 am   BACKBONE|DICT|INTERRES
    55   27  106 1    
    56   28   29 2    
    57   28   30 1    
    58   30   31 1    
    59   30   32 1    
    60   30  107 1    
    61   31  108 1    
    62   31  109 1    
    63   31  110 1    
    64   32   33 am   BACKBONE|DICT|INTERRES
    65   32  111 1    
    66   33   34 2    
    67   33   35 1    
    68   35   36 1    
    69   35   37 1    
    70   35  112 1    
    71   36  113 1    
    72   36  114 1    
    73   36  115 1    
    74   37   38 am   BACKBONE|DICT|INTERRES
    75   37  116 1    
    76   38   39 2    
    77   38   40 1    
    78   40   41 1    
    79   40   42 1    
    80   40  117 1    
    81   41  118 1    
    82   41  119 1    
    83   41  120 1    
    84   42   43 am   BACKBONE|DICT|INTERRES
    85   42  121 1    
    86   43   44 2    
    87   43   45 1    
    88   45   46 1    
    89   45   47 1    
    90   45  122 1    
    91   46  123 1    
    92   46  124 1    
    93   46  125 1    
    94   47   48 am   BACKBONE|DICT|INTERRES
    95   47  126 1    
    96   48   49 2    
    97   48   50 1    
    98   50   51 1    
    99   50   52 1    
   100   50  127 1    
   101   51  128 1    
   102   51  129 1    
   103   51  130 1    
   104   52   53 am   BACKBONE|DICT|INTERRES
   105   52  131 1    
   106   53   54 2    
   107   53   55 1    
   108   55   56 1    
   109   55   59 1    
   110   55  132 1    
   111   56   57 1    
   112   56  133 1    
   113   56  134 1    
   114   57   58 1    
   115   58  135 1    
   116   58  136 1    
   117   59   60 am   BACKBONE|DICT|INTERRES
   118   59  137 1    
   119   60   61 2    
   120   60   62 1    
   121   62   63 1    
   122   62   64 1    
   123   62  138 1    
   124   63  139 1    
   125   63  140 1    
   126   63  141 1    
   127   64   65 am   BACKBONE|DICT|INTERRES
   128   64  142 1    
   129   65   66 2    
   130   65   67 1    
   131   67   68 1    
   132   67   69 1    
   133   67  143 1    
   134   68  144 1    
   135   68  145 1    
   136   68  146 1    
   137   69   70 am   BACKBONE|DICT|INTERRES
   138   69  147 1    
   139   70   71 2    
   140   70   72 1    
   141   72   73 1    
   142   72   74 1    
   143   72  148 1    
   144   73  149 1    
   145   73  150 1    
   146   73  151 1    
   147   74   75 am   BACKBONE|DICT|INTERRES
   148   74  152 1    
   149   75   76 2    
   150   75   77 1    
   151   77   78 1    
   152   77   79 1    
   153   77  153 1    
   154   78  154 1    
   155   78  155 1    
   156   78  156 1    
   157   79   80 am   BACKBONE|DICT|INTERRES
   158   79  157 1    
   159   80   81 2    
@<TRIPOS>SUBSTRUCTURE
     1 UNK         1 GROUP             0       ****    0 ROOT    
