@<TRIPOS>MOLECULE
3R207
157   159    1
SMALL
USER_CHARGES


@<TRIPOS>ATOM
      1 CA        -48.6605  -25.3053    5.8855 C.3       0 UNK        -0.1975 
      2 C         -49.1684  -26.7227    5.6569 C.2       0 UNK         0.4852 
      3 O         -49.8839  -26.9584    4.6854 O.2       0 UNK        -0.5216 
      4 N         -48.8403  -27.6951    6.5173 N.am      1 UNK        -0.4461 
      5 CA        -47.9336  -27.6037    7.6683 C.3       1 UNK         0.0864 
      6 C6        -48.2919  -28.6611    8.7448 C.3       14 UNK        -0.0898 
      7 S7        -49.7613  -28.1738    9.7036 S.3       14 UNK        -0.2598 
      8 C8        -51.1234  -28.8865    8.7222 C.3       14 UNK         0.0286 
      9 C9        -52.3282  -27.9566    8.7073 C.ar      14 UNK        -0.0844 
     10 C10       -52.2121  -26.6748    8.1606 C.ar      14 UNK        -0.0881 
     11 C11       -53.2918  -25.7861    8.1785 C.ar      14 UNK        -0.0643 
     12 C12       -54.5125  -26.2147    8.7101 C.ar      14 UNK        -0.0930 
     13 C13       -54.6578  -27.5087    9.2213 C.ar      14 UNK        -0.0827 
     14 C14       -53.5582  -28.3728    9.2250 C.ar      14 UNK        -0.1249 
     15 C15       -56.0133  -27.9756    9.7368 C.3       14 UNK         0.0141 
     16 S16       -56.1236  -27.8956   11.5518 S.3       14 UNK        -0.2313 
     17 C17       -55.3528  -29.4761   12.0424 C.3       14 UNK        -0.0915 
     18 CA        -56.0872  -30.1707   13.2205 C.3       13 UNK         0.0968 
     19 C         -55.4932  -31.5778   13.5264 C.2       13 UNK         0.5732 
     20 N         -55.1945  -31.9320   14.7721 N.am      13 UNK        -0.7310 
     21 O         -55.3146  -32.3800   12.6130 O.2       13 UNK        -0.5035 
     22 N         -56.1542  -29.3051   14.4073 N.am      13 UNK        -0.4233 
     23 C         -57.2221  -29.1916   15.2063 C.2       13 UNK         0.4989 
     24 O         -58.2988  -29.7519   14.9905 O.2       13 UNK        -0.4996 
     25 CA        -57.0621  -28.3045   16.4583 C.3       12 UNK         0.0216 
     26 CB        -58.1383  -28.5821   17.5299 C.3       12 UNK        -0.1964 
     27 N         -55.7216  -28.3551   17.0557 N.am      12 UNK        -0.4276 
     28 C         -55.0696  -29.4374   17.5134 C.2       12 UNK         0.5020 
     29 O         -55.5294  -30.5791   17.4572 O.2       12 UNK        -0.5489 
     30 CA        -53.6598  -29.2241   18.1016 C.3       11 UNK         0.0294 
     31 CB        -52.6968  -30.3497   17.6800 C.3       11 UNK        -0.2019 
     32 N         -53.0952  -27.9428   17.6771 N.am      11 UNK        -0.4493 
     33 C         -53.0254  -26.8293   18.4199 C.2       11 UNK         0.4932 
     34 O         -53.3458  -26.7769   19.6070 O.2       11 UNK        -0.5029 
     35 CA        -52.5511  -25.5436   17.7126 C.3       10 UNK         0.0280 
     36 CB        -51.0763  -25.2625   18.0395 C.3       10 UNK        -0.1976 
     37 N         -52.7299  -25.5861   16.2566 N.am      10 UNK        -0.4242 
     38 C         -53.9221  -25.5991   15.6378 C.2       10 UNK         0.5072 
     39 O         -54.9952  -25.4936   16.2318 O.2       10 UNK        -0.5224 
     40 CA        -53.9323  -25.8617   14.1207 C.3       9 UNK         0.0343 
     41 CB        -54.0145  -24.5445   13.3356 C.3       9 UNK        -0.2003 
     42 N         -52.7802  -26.6496   13.6683 N.am      9 UNK        -0.4272 
     43 C         -52.5586  -27.9221   14.0368 C.2       9 UNK         0.4988 
     44 O         -53.3398  -28.5535   14.7491 O.2       9 UNK        -0.5108 
     45 CA        -51.2557  -28.6095   13.5876 C.3       8 UNK         0.0248 
     46 CB        -51.5348  -29.6291   12.4743 C.3       8 UNK        -0.2001 
     47 N         -50.2076  -27.6819   13.1553 N.am      8 UNK        -0.4140 
     48 C         -49.5793  -26.8215   13.9691 C.2       8 UNK         0.5028 
     49 O         -49.8111  -26.7334   15.1752 O.2       8 UNK        -0.5428 
     50 CA        -48.5564  -25.8648   13.3306 C.3       7 UNK         0.0264 
     51 CB        -47.1528  -26.4910   13.3490 C.3       7 UNK        -0.1988 
     52 N         -48.8722  -25.4348   11.9631 N.am      7 UNK        -0.4454 
     53 C         -50.0171  -24.8601   11.5613 C.2       7 UNK         0.5027 
     54 O         -50.9958  -24.7109   12.2930 O.2       7 UNK        -0.5083 
     55 CA        -50.0474  -24.3620   10.0997 C.3       6 UNK         0.0844 
     56 C56       -51.3856  -23.6706    9.7166 C.3       14 UNK        -0.0967 
     57 S57       -51.5647  -23.5474    7.9045 S.3       14 UNK        -0.2604 
     58 C58       -53.1740  -24.3691    7.6145 C.3       14 UNK         0.0134 
     59 N         -48.8607  -23.5470    9.8000 N.am      6 UNK        -0.4116 
     60 C         -48.5025  -22.4018   10.3972 C.2       5 UNK         0.5034 
     61 O         -49.1762  -21.8313   11.2555 O.2       5 UNK        -0.5045 
     62 CA        -47.1560  -21.7784    9.9886 C.3       5 UNK         0.0224 
     63 CB        -46.0044  -22.3768   10.8222 C.3       5 UNK        -0.1978 
     64 N         -46.8492  -21.8103    8.5495 N.am      5 UNK        -0.4737 
     65 C         -46.5763  -22.8615    7.7657 C.2       4 UNK         0.5027 
     66 O         -46.6216  -24.0334    8.1534 O.2       4 UNK        -0.5211 
     67 CA        -46.2078  -22.5569    6.3029 C.3       4 UNK         0.0297 
     68 CB        -45.5747  -21.1654    6.0884 C.3       4 UNK        -0.1993 
     69 N         -45.2929  -23.5928    5.8412 N.am      4 UNK        -0.4486 
     70 C         -45.1668  -24.0580    4.5962 C.2       3 UNK         0.4961 
     71 O         -45.7788  -23.5986    3.6318 O.2       3 UNK        -0.5105 
     72 CA        -44.2303  -25.2653    4.3847 C.3       3 UNK         0.0299 
     73 CB        -42.8035  -24.8069    4.0249 C.3       3 UNK        -0.1972 
     74 N         -44.2322  -26.2359    5.4927 N.am      3 UNK        -0.4305 
     75 C         -43.7718  -26.0943    6.7443 C.2       2 UNK         0.5006 
     76 O         -43.2058  -25.0815    7.1583 O.2       2 UNK        -0.5106 
     77 CA        -44.0975  -27.2421    7.7152 C.3       2 UNK         0.0296 
     78 CB        -43.3217  -27.1334    9.0416 C.3       2 UNK        -0.2002 
     79 N         -45.5328  -27.2558    8.0060 N.am      2 UNK        -0.4032 
     80 C         -46.4736  -27.7693    7.2029 C.2       1 UNK         0.5000 
     81 O         -46.2179  -28.3438    6.1399 O.2       1 UNK        -0.5238 
     82 H82       -48.9811  -24.6452    5.0798 H         1 UNK         0.0889 
     83 H83       -47.5732  -25.2918    5.9128 H         1 UNK         0.0889 
     84 H84       -49.0442  -24.9008    6.8209 H         1 UNK         0.0889 
     85 H85       -49.1461  -28.6316    6.2993 H         1 UNK         0.3028 
     86 H86       -48.0192  -26.6132    8.1190 H         1 UNK         0.0864 
     87 H87       -48.4397  -29.6493    8.3049 H         1 UNK         0.0720 
     88 H88       -47.4819  -28.7749    9.4682 H         1 UNK         0.0720 
     89 H89       -50.8126  -29.0684    7.6945 H         1 UNK         0.0814 
     90 H90       -51.3831  -29.8610    9.1381 H         1 UNK         0.0814 
     91 H91       -51.2673  -26.3632    7.7404 H         1 UNK         0.1469 
     92 H92       -55.3595  -25.5422    8.7138 H         1 UNK         0.1381 
     93 H93       -53.6626  -29.3712    9.6256 H         1 UNK         0.1206 
     94 H94       -56.2231  -28.9869    9.3861 H         1 UNK         0.0813 
     95 H95       -56.8041  -27.3501    9.3201 H         1 UNK         0.0813 
     96 H96       -55.3332  -30.1402   11.1774 H         1 UNK         0.0638 
     97 H97       -54.3142  -29.2813   12.2943 H         1 UNK         0.0638 
     98 H98       -57.1029  -30.3686   12.8740 H         1 UNK         0.0568 
     99 H99       -55.3655  -31.3121   15.5557 H         1 UNK         0.3450 
    100 H100      -54.8190  -32.8513   14.9389 H         1 UNK         0.3450 
    101 H101      -55.2764  -28.8698   14.6729 H         1 UNK         0.2987 
    102 H102      -57.1998  -27.2787   16.1132 H         1 UNK         0.0766 
    103 H103      -58.0205  -27.9233   18.3902 H         1 UNK         0.0798 
    104 H104      -59.1407  -28.4162   17.1332 H         1 UNK         0.0798 
    105 H105      -58.0956  -29.6116   17.8871 H         1 UNK         0.0798 
    106 H106      -55.2482  -27.4604   17.1065 H         1 UNK         0.3198 
    107 H107      -53.7598  -29.2511   19.1886 H         1 UNK         0.0843 
    108 H108      -52.6148  -30.4263   16.5950 H         1 UNK         0.0831 
    109 H109      -53.0385  -31.3175   18.0490 H         1 UNK         0.0831 
    110 H110      -51.6966  -30.1877   18.0818 H         1 UNK         0.0831 
    111 H111      -52.8496  -27.8894   16.6953 H         1 UNK         0.3133 
    112 H112      -53.1489  -24.7155   18.0990 H         1 UNK         0.0566 
    113 H113      -50.4269  -26.0723   17.7052 H         1 UNK         0.0814 
    114 H114      -50.9303  -25.1532   19.1150 H         1 UNK         0.0814 
    115 H115      -50.7322  -24.3403   17.5710 H         1 UNK         0.0814 
    116 H116      -51.8924  -25.7110   15.7009 H         1 UNK         0.3091 
    117 H117      -54.8318  -26.4389   13.8982 H         1 UNK         0.0702 
    118 H118      -54.0335  -24.7247   12.2603 H         1 UNK         0.0785 
    119 H119      -53.1699  -23.8901   13.5536 H         1 UNK         0.0785 
    120 H120      -54.9234  -23.9977   13.5897 H         1 UNK         0.0785 
    121 H121      -52.0931  -26.1614   13.1010 H         1 UNK         0.2998 
    122 H122      -50.8723  -29.1564   14.4517 H         1 UNK         0.0697 
    123 H123      -51.9693  -29.1515   11.5965 H         1 UNK         0.0825 
    124 H124      -52.2345  -30.3944   12.8130 H         1 UNK         0.0825 
    125 H125      -50.6244  -30.1418   12.1635 H         1 UNK         0.0825 
    126 H126      -49.9723  -27.6808   12.1715 H         1 UNK         0.3029 
    127 H127      -48.5365  -24.9651   13.9492 H         1 UNK         0.0897 
    128 H128      -47.0949  -27.3712   12.7071 H         1 UNK         0.0792 
    129 H129      -46.8784  -26.8044   14.3574 H         1 UNK         0.0792 
    130 H130      -46.3953  -25.7807   13.0168 H         1 UNK         0.0792 
    131 H131      -48.1251  -25.5159   11.2898 H         1 UNK         0.3086 
    132 H132      -49.9540  -25.2598    9.4897 H         1 UNK         0.0583 
    133 H133      -52.2371  -24.2241   10.1159 H         1 UNK         0.1020 
    134 H134      -51.4555  -22.6739   10.1540 H         1 UNK         0.1020 
    135 H135      -53.9547  -23.7326    8.0342 H         1 UNK         0.0694 
    136 H136      -53.3540  -24.4089    6.5396 H         1 UNK         0.0694 
    137 H137      -48.2047  -23.9200    9.1189 H         1 UNK         0.2989 
    138 H138      -47.2236  -20.7199   10.2471 H         1 UNK         0.1055 
    139 H139      -45.0592  -21.8788   10.6062 H         1 UNK         0.0806 
    140 H140      -45.8708  -23.4426   10.6353 H         1 UNK         0.0806 
    141 H141      -46.1951  -22.2590   11.8899 H         1 UNK         0.0806 
    142 H142      -46.8197  -20.9004    8.1096 H         1 UNK         0.3061 
    143 H143      -47.1325  -22.6170    5.7254 H         1 UNK         0.0734 
    144 H144      -46.2801  -20.3637    6.3091 H         1 UNK         0.0832 
    145 H145      -44.6945  -21.0218    6.7167 H         1 UNK         0.0832 
    146 H146      -45.2644  -21.0294    5.0521 H         1 UNK         0.0832 
    147 H147      -44.7461  -24.0448    6.5702 H         1 UNK         0.3156 
    148 H148      -44.6220  -25.8111    3.5248 H         1 UNK         0.0589 
    149 H149      -42.3503  -24.2129    4.8190 H         1 UNK         0.0808 
    150 H150      -42.1512  -25.6573    3.8268 H         1 UNK         0.0808 
    151 H151      -42.8115  -24.1882    3.1266 H         1 UNK         0.0808 
    152 H152      -44.7578  -27.0859    5.3111 H         1 UNK         0.3098 
    153 H153      -43.8121  -28.1811    7.2355 H         1 UNK         0.0720 
    154 H154      -43.5283  -27.9837    9.6919 H         1 UNK         0.0791 
    155 H155      -42.2457  -27.1169    8.8631 H         1 UNK         0.0791 
    156 H156      -43.5757  -26.2242    9.5885 H         1 UNK         0.0791 
    157 H157      -45.8197  -26.7476    8.8305 H         1 UNK         0.3028 
@<TRIPOS>BOND
     1    1    2 1    
     2    1   82 1    
     3    1   83 1    
     4    1   84 1    
     5    2    3 2    
     6    2    4 am   BACKBONE|DICT|INTERRES
     7    4    5 1    
     8    4   85 1    
     9    5    6 1    
    10    5   80 1    
    11    5   86 1    
    12    6    7 1    
    13    6   87 1    
    14    6   88 1    
    15    7    8 1    
    16    8    9 1    
    17    8   89 1    
    18    8   90 1    
    19    9   10 ar   
    20    9   14 ar   
    21   10   11 ar   
    22   10   91 1    
    23   11   12 ar   
    24   11   58 1    
    25   12   13 ar   
    26   12   92 1    
    27   13   14 ar   
    28   13   15 1    
    29   14   93 1    
    30   15   16 1    
    31   15   94 1    
    32   15   95 1    
    33   16   17 1    
    34   17   18 1    
    35   17   96 1    
    36   17   97 1    
    37   18   19 1    
    38   18   22 1    
    39   18   98 1    
    40   19   20 am   BACKBONE|DICT|INTERRES
    41   19   21 2    
    42   20   99 1    
    43   20  100 1    
    44   22   23 am   BACKBONE|DICT|INTERRES
    45   22  101 1    
    46   23   24 2    
    47   23   25 1    
    48   25   26 1    
    49   25   27 1    
    50   25  102 1    
    51   26  103 1    
    52   26  104 1    
    53   26  105 1    
    54   27   28 am   BACKBONE|DICT|INTERRES
    55   27  106 1    
    56   28   29 2    
    57   28   30 1    
    58   30   31 1    
    59   30   32 1    
    60   30  107 1    
    61   31  108 1    
    62   31  109 1    
    63   31  110 1    
    64   32   33 am   BACKBONE|DICT|INTERRES
    65   32  111 1    
    66   33   34 2    
    67   33   35 1    
    68   35   36 1    
    69   35   37 1    
    70   35  112 1    
    71   36  113 1    
    72   36  114 1    
    73   36  115 1    
    74   37   38 am   BACKBONE|DICT|INTERRES
    75   37  116 1    
    76   38   39 2    
    77   38   40 1    
    78   40   41 1    
    79   40   42 1    
    80   40  117 1    
    81   41  118 1    
    82   41  119 1    
    83   41  120 1    
    84   42   43 am   BACKBONE|DICT|INTERRES
    85   42  121 1    
    86   43   44 2    
    87   43   45 1    
    88   45   46 1    
    89   45   47 1    
    90   45  122 1    
    91   46  123 1    
    92   46  124 1    
    93   46  125 1    
    94   47   48 am   BACKBONE|DICT|INTERRES
    95   47  126 1    
    96   48   49 2    
    97   48   50 1    
    98   50   51 1    
    99   50   52 1    
   100   50  127 1    
   101   51  128 1    
   102   51  129 1    
   103   51  130 1    
   104   52   53 am   BACKBONE|DICT|INTERRES
   105   52  131 1    
   106   53   54 2    
   107   53   55 1    
   108   55   56 1    
   109   55   59 1    
   110   55  132 1    
   111   56   57 1    
   112   56  133 1    
   113   56  134 1    
   114   57   58 1    
   115   58  135 1    
   116   58  136 1    
   117   59   60 am   BACKBONE|DICT|INTERRES
   118   59  137 1    
   119   60   61 2    
   120   60   62 1    
   121   62   63 1    
   122   62   64 1    
   123   62  138 1    
   124   63  139 1    
   125   63  140 1    
   126   63  141 1    
   127   64   65 am   BACKBONE|DICT|INTERRES
   128   64  142 1    
   129   65   66 2    
   130   65   67 1    
   131   67   68 1    
   132   67   69 1    
   133   67  143 1    
   134   68  144 1    
   135   68  145 1    
   136   68  146 1    
   137   69   70 am   BACKBONE|DICT|INTERRES
   138   69  147 1    
   139   70   71 2    
   140   70   72 1    
   141   72   73 1    
   142   72   74 1    
   143   72  148 1    
   144   73  149 1    
   145   73  150 1    
   146   73  151 1    
   147   74   75 am   BACKBONE|DICT|INTERRES
   148   74  152 1    
   149   75   76 2    
   150   75   77 1    
   151   77   78 1    
   152   77   79 1    
   153   77  153 1    
   154   78  154 1    
   155   78  155 1    
   156   78  156 1    
   157   79   80 am   BACKBONE|DICT|INTERRES
   158   79  157 1    
   159   80   81 2    
@<TRIPOS>SUBSTRUCTURE
     1 UNK         1 GROUP             0       ****    0 ROOT    
