@<TRIPOS>MOLECULE
3R207
157   159    1
SMALL
USER_CHARGES


@<TRIPOS>ATOM
      1 CA        -49.5202  -30.7936    7.9934 C.3       0 UNK        -0.1975 
      2 C         -49.8336  -30.1471    6.6521 C.2       0 UNK         0.4852 
      3 O         -49.3073  -30.5824    5.6277 O.2       0 UNK        -0.5216 
      4 N         -50.6915  -29.1176    6.6513 N.am      1 UNK        -0.4461 
      5 CA        -51.1049  -28.3679    5.4585 C.3       1 UNK         0.0864 
      6 C6        -52.3139  -27.4453    5.7490 C.3       14 UNK        -0.0898 
      7 S7        -53.9024  -28.3041    6.0365 S.3       14 UNK        -0.2598 
      8 C8        -53.7239  -29.1825    7.6339 C.3       14 UNK         0.0286 
      9 C9        -53.1394  -28.3771    8.7952 C.ar      14 UNK        -0.0844 
     10 C10       -53.3092  -26.9914    8.9076 C.ar      14 UNK        -0.0881 
     11 C11       -52.7441  -26.2850    9.9732 C.ar      14 UNK        -0.0643 
     12 C12       -52.0659  -26.9845   10.9749 C.ar      14 UNK        -0.0930 
     13 C13       -51.9159  -28.3706   10.8946 C.ar      14 UNK        -0.0827 
     14 C14       -52.4372  -29.0565    9.7956 C.ar      14 UNK        -0.1249 
     15 C15       -51.1910  -29.1173   12.0021 C.3       14 UNK         0.0141 
     16 S16       -52.3405  -29.5906   13.3289 S.3       14 UNK        -0.2313 
     17 C17       -52.8606  -31.2740   12.8430 C.3       14 UNK        -0.0915 
     18 CA        -54.2070  -31.3462   12.0710 C.3       13 UNK         0.0968 
     19 C         -54.6284  -32.8293   11.8770 C.2       13 UNK         0.5732 
     20 N         -54.2612  -33.4404   10.7586 N.am      13 UNK        -0.7310 
     21 O         -55.2393  -33.4409   12.7520 O.2       13 UNK        -0.5035 
     22 N         -55.2371  -30.5107   12.7011 N.am      13 UNK        -0.4233 
     23 C         -56.4999  -30.3469   12.2853 C.2       13 UNK         0.4989 
     24 O         -57.0030  -30.9290   11.3235 O.2       13 UNK        -0.4996 
     25 CA        -57.3367  -29.3163   13.0624 C.3       12 UNK         0.0216 
     26 CB        -57.9692  -29.9567   14.3087 C.3       12 UNK        -0.1964 
     27 N         -56.5573  -28.1399   13.4594 N.am      12 UNK        -0.4276 
     28 C         -56.0267  -27.2432   12.6189 C.2       12 UNK         0.5020 
     29 O         -56.1980  -27.2774   11.4003 O.2       12 UNK        -0.5489 
     30 CA        -55.1696  -26.1083   13.2136 C.3       11 UNK         0.0294 
     31 CB        -56.0084  -24.8282   13.3882 C.3       11 UNK        -0.2019 
     32 N         -54.4298  -26.4159   14.4487 N.am      11 UNK        -0.4493 
     33 C         -54.8820  -26.7285   15.6700 C.2       11 UNK         0.4932 
     34 O         -56.0686  -26.9287   15.9292 O.2       11 UNK        -0.5029 
     35 CA        -53.8467  -26.8285   16.8067 C.3       10 UNK         0.0280 
     36 CB        -53.1461  -28.2002   16.8144 C.3       10 UNK        -0.1976 
     37 N         -52.8782  -25.7214   16.8584 N.am      10 UNK        -0.4242 
     38 C         -51.9211  -25.3902   15.9784 C.2       10 UNK         0.5072 
     39 O         -51.7136  -26.0020   14.9278 O.2       10 UNK        -0.5224 
     40 CA        -51.0957  -24.1250   16.2818 C.3       9 UNK         0.0343 
     41 CB        -51.2410  -23.5826   17.7234 C.3       9 UNK        -0.2003 
     42 N         -49.6886  -24.3013   15.9143 N.am      9 UNK        -0.4272 
     43 C         -48.7924  -25.1301   16.4748 C.2       9 UNK         0.4988 
     44 O         -49.0352  -25.8352   17.4557 O.2       9 UNK        -0.5108 
     45 CA        -47.3807  -25.1936   15.8534 C.3       8 UNK         0.0248 
     46 CB        -46.9901  -26.6428   15.5123 C.3       8 UNK        -0.2001 
     47 N         -47.2468  -24.3631   14.6525 N.am      8 UNK        -0.4140 
     48 C         -46.9348  -23.0578   14.6589 C.2       8 UNK         0.5028 
     49 O         -46.6346  -22.4367   15.6791 O.2       8 UNK        -0.5428 
     50 CA        -46.9926  -22.2966   13.3183 C.3       7 UNK         0.0264 
     51 CB        -45.5781  -22.1183   12.7437 C.3       7 UNK        -0.1988 
     52 N         -47.8528  -22.9180   12.3052 N.am      7 UNK        -0.4454 
     53 C         -49.1722  -23.1242   12.4313 C.2       7 UNK         0.5027 
     54 O         -49.8251  -22.7322   13.3988 O.2       7 UNK        -0.5083 
     55 CA        -49.8740  -23.9659   11.3447 C.3       6 UNK         0.0844 
     56 C56       -50.5822  -23.0668   10.3046 C.3       14 UNK        -0.0967 
     57 S57       -51.5246  -23.9959    9.0454 S.3       14 UNK        -0.2604 
     58 C58       -52.8580  -24.7683   10.0223 C.3       14 UNK         0.0134 
     59 N         -48.9916  -24.9708   10.7374 N.am      6 UNK        -0.4116 
     60 C         -48.4463  -25.9975   11.4074 C.2       5 UNK         0.5034 
     61 O         -48.6285  -26.2044   12.6054 O.2       5 UNK        -0.5045 
     62 CA        -47.4918  -26.9114   10.6291 C.3       5 UNK         0.0224 
     63 CB        -48.2650  -27.8935    9.7329 C.3       5 UNK        -0.1978 
     64 N         -46.5599  -26.1150    9.8301 N.am      5 UNK        -0.4737 
     65 C         -45.4684  -25.5195   10.3337 C.2       4 UNK         0.5027 
     66 O         -45.0859  -25.6700   11.4936 O.2       4 UNK        -0.5211 
     67 CA        -44.6713  -24.5870    9.4020 C.3       4 UNK         0.0297 
     68 CB        -43.5005  -25.3476    8.7595 C.3       4 UNK        -0.1993 
     69 N         -45.4840  -23.9741    8.3488 N.am      4 UNK        -0.4486 
     70 C         -46.4756  -23.0961    8.5571 C.2       3 UNK         0.4961 
     71 O         -46.7859  -22.6627    9.6648 O.2       3 UNK        -0.5105 
     72 CA        -47.3052  -22.6850    7.3277 C.3       3 UNK         0.0299 
     73 CB        -46.6827  -21.4586    6.6427 C.3       3 UNK        -0.1972 
     74 N         -47.4777  -23.7660    6.3485 N.am      3 UNK        -0.4305 
     75 C         -48.0464  -24.9482    6.6195 C.2       2 UNK         0.5006 
     76 O         -48.4696  -25.2659    7.7349 O.2       2 UNK        -0.5106 
     77 CA        -48.0939  -25.9686    5.4799 C.3       2 UNK         0.0296 
     78 CB        -46.7576  -26.7228    5.3637 C.3       2 UNK        -0.2002 
     79 N         -49.1621  -26.9125    5.7790 N.am      2 UNK        -0.4032 
     80 C         -49.9476  -27.5233    4.8855 C.2       1 UNK         0.5000 
     81 O         -49.8051  -27.4294    3.6646 O.2       1 UNK        -0.5238 
     82 H82       -48.4432  -30.8143    8.1571 H         1 UNK         0.0889 
     83 H83       -49.8868  -31.8195    8.0095 H         1 UNK         0.0889 
     84 H84       -49.9766  -30.2568    8.8234 H         1 UNK         0.0889 
     85 H85       -51.1106  -28.8144    7.5199 H         1 UNK         0.3028 
     86 H86       -51.3943  -29.0872    4.6892 H         1 UNK         0.0864 
     87 H87       -52.4950  -26.7927    4.8921 H         1 UNK         0.0720 
     88 H88       -52.0924  -26.7697    6.5750 H         1 UNK         0.0720 
     89 H89       -54.7111  -29.5352    7.9353 H         1 UNK         0.0814 
     90 H90       -53.1301  -30.0809    7.4611 H         1 UNK         0.0814 
     91 H91       -53.8602  -26.4499    8.1518 H         1 UNK         0.1469 
     92 H92       -51.6541  -26.4595   11.8243 H         1 UNK         0.1381 
     93 H93       -52.3121  -30.1285    9.7317 H         1 UNK         0.1206 
     94 H94       -50.6728  -29.9924   11.6084 H         1 UNK         0.0813 
     95 H95       -50.4184  -28.4764   12.4304 H         1 UNK         0.0813 
     96 H96       -52.9306  -31.8516   13.7669 H         1 UNK         0.0638 
     97 H97       -52.0655  -31.7434   12.2614 H         1 UNK         0.0638 
     98 H98       -54.0546  -30.9183   11.0806 H         1 UNK         0.0568 
     99 H99       -54.5121  -34.4077   10.6272 H         1 UNK         0.3450 
    100 H100      -53.7477  -32.9556   10.0401 H         1 UNK         0.3450 
    101 H101      -54.9215  -29.9688   13.4907 H         1 UNK         0.2987 
    102 H102      -58.1404  -28.9780   12.4050 H         1 UNK         0.0766 
    103 H103      -58.5696  -30.8264   14.0379 H         1 UNK         0.0798 
    104 H104      -58.6279  -29.2566   14.8231 H         1 UNK         0.0798 
    105 H105      -57.2134  -30.2906   15.0209 H         1 UNK         0.0798 
    106 H106      -56.4318  -27.9649   14.4540 H         1 UNK         0.3198 
    107 H107      -54.4020  -25.8956   12.4689 H         1 UNK         0.0843 
    108 H108      -56.8000  -24.9590   14.1267 H         1 UNK         0.0831 
    109 H109      -56.4851  -24.5440   12.4490 H         1 UNK         0.0831 
    110 H110      -55.3893  -23.9884   13.7036 H         1 UNK         0.0831 
    111 H111      -53.4157  -26.3303   14.3770 H         1 UNK         0.3133 
    112 H112      -54.4129  -26.7568   17.7368 H         1 UNK         0.0566 
    113 H113      -52.4885  -28.3287   15.9559 H         1 UNK         0.0814 
    114 H114      -53.8729  -29.0133   16.7921 H         1 UNK         0.0814 
    115 H115      -52.5433  -28.3287   17.7133 H         1 UNK         0.0814 
    116 H116      -52.9728  -25.1195   17.6647 H         1 UNK         0.3091 
    117 H117      -51.4787  -23.3570   15.6083 H         1 UNK         0.0702 
    118 H118      -50.5991  -22.7154   17.8796 H         1 UNK         0.0785 
    119 H119      -50.9742  -24.3275   18.4742 H         1 UNK         0.0785 
    120 H120      -52.2619  -23.2565   17.9250 H         1 UNK         0.0785 
    121 H121      -49.4145  -23.7979   15.0778 H         1 UNK         0.2998 
    122 H122      -46.6819  -24.8345   16.6117 H         1 UNK         0.0697 
    123 H123      -46.0147  -26.6912   15.0279 H         1 UNK         0.0825 
    124 H124      -47.7183  -27.1144   14.8523 H         1 UNK         0.0825 
    125 H125      -46.9337  -27.2527   16.4147 H         1 UNK         0.0825 
    126 H126      -47.5124  -24.8039   13.7786 H         1 UNK         0.3029 
    127 H127      -47.4020  -21.3066   13.5301 H         1 UNK         0.0897 
    128 H128      -44.9193  -21.6354   13.4668 H         1 UNK         0.0792 
    129 H129      -45.5874  -21.4940   11.8501 H         1 UNK         0.0792 
    130 H130      -45.1275  -23.0756   12.4804 H         1 UNK         0.0792 
    131 H131      -47.4084  -23.1663   11.4249 H         1 UNK         0.3086 
    132 H132      -50.6481  -24.5151   11.8790 H         1 UNK         0.0583 
    133 H133      -51.2669  -22.3742   10.7986 H         1 UNK         0.1020 
    134 H134      -49.8498  -22.4468    9.7839 H         1 UNK         0.1020 
    135 H135      -52.8420  -24.4139   11.0534 H         1 UNK         0.0694 
    136 H136      -53.8203  -24.4571    9.6132 H         1 UNK         0.0694 
    137 H137      -48.8236  -24.8902    9.7399 H         1 UNK         0.2989 
    138 H138      -46.9206  -27.4980   11.3528 H         1 UNK         0.1055 
    139 H139      -48.8130  -28.6111   10.3428 H         1 UNK         0.0806 
    140 H140      -47.5923  -28.4620    9.0909 H         1 UNK         0.0806 
    141 H141      -48.9952  -27.3917    9.0986 H         1 UNK         0.0806 
    142 H142      -46.8550  -25.8867    8.8886 H         1 UNK         0.3061 
    143 H143      -44.2619  -23.7829   10.0175 H         1 UNK         0.0734 
    144 H144      -43.8479  -26.1556    8.1144 H         1 UNK         0.0832 
    145 H145      -42.8743  -24.6842    8.1626 H         1 UNK         0.0832 
    146 H146      -42.8604  -25.7932    9.5225 H         1 UNK         0.0832 
    147 H147      -45.3033  -24.2713    7.4012 H         1 UNK         0.3156 
    148 H148      -48.2994  -22.4078    7.6845 H         1 UNK         0.0589 
    149 H149      -47.3122  -21.0949    5.8303 H         1 UNK         0.0808 
    150 H150      -45.6967  -21.6797    6.2321 H         1 UNK         0.0808 
    151 H151      -46.5640  -20.6362    7.3499 H         1 UNK         0.0808 
    152 H152      -47.1465  -23.5871    5.4108 H         1 UNK         0.3098 
    153 H153      -48.3109  -25.4430    4.5475 H         1 UNK         0.0720 
    154 H154      -45.9375  -26.0418    5.1332 H         1 UNK         0.0791 
    155 H155      -46.7930  -27.4661    4.5669 H         1 UNK         0.0791 
    156 H156      -46.5052  -27.2410    6.2900 H         1 UNK         0.0791 
    157 H157      -49.3823  -26.9828    6.7642 H         1 UNK         0.3028 
@<TRIPOS>BOND
     1    1    2 1    
     2    1   82 1    
     3    1   83 1    
     4    1   84 1    
     5    2    3 2    
     6    2    4 am   BACKBONE|DICT|INTERRES
     7    4    5 1    
     8    4   85 1    
     9    5    6 1    
    10    5   80 1    
    11    5   86 1    
    12    6    7 1    
    13    6   87 1    
    14    6   88 1    
    15    7    8 1    
    16    8    9 1    
    17    8   89 1    
    18    8   90 1    
    19    9   10 ar   
    20    9   14 ar   
    21   10   11 ar   
    22   10   91 1    
    23   11   12 ar   
    24   11   58 1    
    25   12   13 ar   
    26   12   92 1    
    27   13   14 ar   
    28   13   15 1    
    29   14   93 1    
    30   15   16 1    
    31   15   94 1    
    32   15   95 1    
    33   16   17 1    
    34   17   18 1    
    35   17   96 1    
    36   17   97 1    
    37   18   19 1    
    38   18   22 1    
    39   18   98 1    
    40   19   20 am   BACKBONE|DICT|INTERRES
    41   19   21 2    
    42   20   99 1    
    43   20  100 1    
    44   22   23 am   BACKBONE|DICT|INTERRES
    45   22  101 1    
    46   23   24 2    
    47   23   25 1    
    48   25   26 1    
    49   25   27 1    
    50   25  102 1    
    51   26  103 1    
    52   26  104 1    
    53   26  105 1    
    54   27   28 am   BACKBONE|DICT|INTERRES
    55   27  106 1    
    56   28   29 2    
    57   28   30 1    
    58   30   31 1    
    59   30   32 1    
    60   30  107 1    
    61   31  108 1    
    62   31  109 1    
    63   31  110 1    
    64   32   33 am   BACKBONE|DICT|INTERRES
    65   32  111 1    
    66   33   34 2    
    67   33   35 1    
    68   35   36 1    
    69   35   37 1    
    70   35  112 1    
    71   36  113 1    
    72   36  114 1    
    73   36  115 1    
    74   37   38 am   BACKBONE|DICT|INTERRES
    75   37  116 1    
    76   38   39 2    
    77   38   40 1    
    78   40   41 1    
    79   40   42 1    
    80   40  117 1    
    81   41  118 1    
    82   41  119 1    
    83   41  120 1    
    84   42   43 am   BACKBONE|DICT|INTERRES
    85   42  121 1    
    86   43   44 2    
    87   43   45 1    
    88   45   46 1    
    89   45   47 1    
    90   45  122 1    
    91   46  123 1    
    92   46  124 1    
    93   46  125 1    
    94   47   48 am   BACKBONE|DICT|INTERRES
    95   47  126 1    
    96   48   49 2    
    97   48   50 1    
    98   50   51 1    
    99   50   52 1    
   100   50  127 1    
   101   51  128 1    
   102   51  129 1    
   103   51  130 1    
   104   52   53 am   BACKBONE|DICT|INTERRES
   105   52  131 1    
   106   53   54 2    
   107   53   55 1    
   108   55   56 1    
   109   55   59 1    
   110   55  132 1    
   111   56   57 1    
   112   56  133 1    
   113   56  134 1    
   114   57   58 1    
   115   58  135 1    
   116   58  136 1    
   117   59   60 am   BACKBONE|DICT|INTERRES
   118   59  137 1    
   119   60   61 2    
   120   60   62 1    
   121   62   63 1    
   122   62   64 1    
   123   62  138 1    
   124   63  139 1    
   125   63  140 1    
   126   63  141 1    
   127   64   65 am   BACKBONE|DICT|INTERRES
   128   64  142 1    
   129   65   66 2    
   130   65   67 1    
   131   67   68 1    
   132   67   69 1    
   133   67  143 1    
   134   68  144 1    
   135   68  145 1    
   136   68  146 1    
   137   69   70 am   BACKBONE|DICT|INTERRES
   138   69  147 1    
   139   70   71 2    
   140   70   72 1    
   141   72   73 1    
   142   72   74 1    
   143   72  148 1    
   144   73  149 1    
   145   73  150 1    
   146   73  151 1    
   147   74   75 am   BACKBONE|DICT|INTERRES
   148   74  152 1    
   149   75   76 2    
   150   75   77 1    
   151   77   78 1    
   152   77   79 1    
   153   77  153 1    
   154   78  154 1    
   155   78  155 1    
   156   78  156 1    
   157   79   80 am   BACKBONE|DICT|INTERRES
   158   79  157 1    
   159   80   81 2    
@<TRIPOS>SUBSTRUCTURE
     1 UNK         1 GROUP             0       ****    0 ROOT    
