@<TRIPOS>MOLECULE
3R207
157   159    1
SMALL
USER_CHARGES


@<TRIPOS>ATOM
      1 CA        -45.2915  -27.7256    4.0069 C.3       0 UNK        -0.1975 
      2 C         -46.7155  -28.0539    3.5846 C.2       0 UNK         0.4852 
      3 O         -46.9374  -28.4750    2.4491 O.2       0 UNK        -0.5216 
      4 N         -47.6825  -27.8414    4.4838 N.am      1 UNK        -0.4461 
      5 CA        -49.1136  -28.1073    4.2830 C.3       1 UNK         0.0864 
      6 C6        -49.7466  -28.7817    5.5309 C.3       14 UNK        -0.0898 
      7 S7        -48.8929  -30.3093    6.0570 S.3       14 UNK        -0.2598 
      8 C8        -50.2889  -31.4259    6.4072 C.3       14 UNK         0.0286 
      9 C9        -51.0227  -31.0510    7.6893 C.ar      14 UNK        -0.0844 
     10 C10       -50.6219  -31.5896    8.9186 C.ar      14 UNK        -0.0881 
     11 C11       -51.3233  -31.2833   10.0903 C.ar      14 UNK        -0.0643 
     12 C12       -52.4266  -30.4298   10.0226 C.ar      14 UNK        -0.0930 
     13 C13       -52.8143  -29.8569    8.8107 C.ar      14 UNK        -0.0827 
     14 C14       -52.1193  -30.1834    7.6441 C.ar      14 UNK        -0.1249 
     15 C15       -53.9702  -28.8713    8.7733 C.3       14 UNK         0.0141 
     16 S16       -53.3783  -27.1941    9.1518 S.3       14 UNK        -0.2313 
     17 C17       -54.9394  -26.2517    9.2005 C.3       14 UNK        -0.0915 
     18 CA        -55.2588  -25.7081   10.6190 C.3       13 UNK         0.0968 
     19 C         -56.4565  -24.7141   10.5869 C.2       13 UNK         0.5732 
     20 N         -57.5594  -24.9723   11.2800 N.am      13 UNK        -0.7310 
     21 O         -56.3790  -23.6811    9.9262 O.2       13 UNK        -0.5035 
     22 N         -55.3976  -26.7990   11.5987 N.am      13 UNK        -0.4233 
     23 C         -55.1656  -26.6781   12.9106 C.2       13 UNK         0.4989 
     24 O         -54.8299  -25.6220   13.4513 O.2       13 UNK        -0.4996 
     25 CA        -55.3294  -27.9464   13.7645 C.3       12 UNK         0.0216 
     26 CB        -54.9473  -29.2431   13.0223 C.3       12 UNK        -0.1964 
     27 N         -54.5041  -27.8007   14.9576 N.am      12 UNK        -0.4276 
     28 C         -54.7137  -28.3739   16.1469 C.2       12 UNK         0.5020 
     29 O         -55.6290  -29.1644   16.3803 O.2       12 UNK        -0.5489 
     30 CA        -53.7370  -27.9917   17.2712 C.3       11 UNK         0.0294 
     31 CB        -52.5785  -29.0000   17.3450 C.3       11 UNK        -0.2019 
     32 N         -53.1904  -26.6482   17.0746 N.am      11 UNK        -0.4493 
     33 C         -53.8110  -25.5125   17.4214 C.2       11 UNK         0.4932 
     34 O         -54.8868  -25.4810   18.0214 O.2       11 UNK        -0.5029 
     35 CA        -53.1150  -24.1966   17.0163 C.3       10 UNK         0.0280 
     36 CB        -53.5807  -22.9843   17.8503 C.3       10 UNK        -0.1976 
     37 N         -51.6501  -24.2965   17.0028 N.am      10 UNK        -0.4242 
     38 C         -50.8410  -24.5807   18.0371 C.2       10 UNK         0.5072 
     39 O         -51.2360  -24.7310   19.1942 O.2       10 UNK        -0.5224 
     40 CA        -49.3396  -24.7696   17.7434 C.3       9 UNK         0.0343 
     41 CB        -48.9368  -26.2353   17.9811 C.3       9 UNK        -0.2003 
     42 N         -48.9537  -24.3922   16.3815 N.am      9 UNK        -0.4272 
     43 C         -48.7802  -23.1344   15.9532 C.2       9 UNK         0.4988 
     44 O         -48.8577  -22.1450   16.6820 O.2       9 UNK        -0.5108 
     45 CA        -48.5137  -22.9463   14.4482 C.3       8 UNK         0.0248 
     46 CB        -47.0216  -23.1357   14.1355 C.3       8 UNK        -0.2001 
     47 N         -49.3172  -23.8331   13.5971 N.am      8 UNK        -0.4140 
     48 C         -50.6589  -23.8366   13.5541 C.2       8 UNK         0.5028 
     49 O         -51.3681  -23.1008   14.2388 O.2       8 UNK        -0.5428 
     50 CA        -51.3262  -24.8560   12.6230 C.3       7 UNK         0.0264 
     51 CB        -51.3146  -24.3608   11.1676 C.3       7 UNK        -0.1988 
     52 N         -50.6796  -26.1633   12.7107 N.am      7 UNK        -0.4454 
     53 C         -50.8714  -27.0397   13.7082 C.2       7 UNK         0.5027 
     54 O         -51.6505  -26.8551   14.6452 O.2       7 UNK        -0.5083 
     55 CA        -50.0379  -28.3385   13.6468 C.3       6 UNK         0.0844 
     56 C56       -50.7200  -29.3475   12.6866 C.3       14 UNK        -0.0967 
     57 S57       -49.7213  -30.8366   12.3315 S.3       14 UNK        -0.2604 
     58 C58       -50.9115  -31.8833   11.4296 C.3       14 UNK         0.0134 
     59 N         -48.6478  -28.0831   13.2652 N.am      6 UNK        -0.4116 
     60 C         -47.7785  -27.2720   13.8829 C.2       5 UNK         0.5034 
     61 O         -48.0211  -26.6530   14.9167 O.2       5 UNK        -0.5045 
     62 CA        -46.4278  -27.0654   13.1750 C.3       5 UNK         0.0224 
     63 CB        -45.4038  -28.1051   13.6559 C.3       5 UNK        -0.1978 
     64 N         -46.5342  -27.1178   11.7113 N.am      5 UNK        -0.4737 
     65 C         -47.3119  -26.3140   10.9737 C.2       4 UNK         0.5027 
     66 O         -47.9951  -25.3956   11.4381 O.2       4 UNK        -0.5211 
     67 CA        -47.4060  -26.6529    9.4868 C.3       4 UNK         0.0297 
     68 CB        -48.3289  -27.8698    9.2678 C.3       4 UNK        -0.1993 
     69 N         -47.9222  -25.4911    8.7708 N.am      4 UNK        -0.4486 
     70 C         -47.8029  -25.2938    7.4572 C.2       3 UNK         0.4961 
     71 O         -47.2387  -26.0874    6.6949 O.2       3 UNK        -0.5105 
     72 CA        -48.4107  -24.0025    6.8901 C.3       3 UNK         0.0299 
     73 CB        -47.5075  -22.7863    7.1549 C.3       3 UNK        -0.1972 
     74 N         -48.5499  -24.2154    5.4579 N.am      3 UNK        -0.4305 
     75 C         -49.5075  -23.7558    4.6464 C.2       2 UNK         0.5006 
     76 O         -50.3261  -22.8906    4.9583 O.2       2 UNK        -0.5106 
     77 CA        -49.5801  -24.4235    3.2573 C.3       2 UNK         0.0296 
     78 CB        -48.7071  -23.6667    2.2432 C.3       2 UNK        -0.2002 
     79 N         -49.1577  -25.8297    3.3174 N.am      2 UNK        -0.4032 
     80 C         -49.8615  -26.8008    3.9226 C.2       1 UNK         0.5000 
     81 O         -51.0424  -26.6618    4.2485 O.2       1 UNK        -0.5238 
     82 H82       -45.2483  -27.3443    5.0274 H         1 UNK         0.0889 
     83 H83       -44.8662  -26.9720    3.3448 H         1 UNK         0.0889 
     84 H84       -44.6696  -28.6187    3.9527 H         1 UNK         0.0889 
     85 H85       -47.4418  -27.4405    5.3885 H         1 UNK         0.3028 
     86 H86       -49.2479  -28.7853    3.4376 H         1 UNK         0.0864 
     87 H87       -49.7637  -28.0932    6.3776 H         1 UNK         0.0720 
     88 H88       -50.7877  -29.0243    5.3173 H         1 UNK         0.0720 
     89 H89       -49.9068  -32.4445    6.4895 H         1 UNK         0.0814 
     90 H90       -50.9773  -31.4332    5.5607 H         1 UNK         0.0814 
     91 H91       -49.7700  -32.2544    8.9622 H         1 UNK         0.1469 
     92 H92       -52.9737  -30.1939   10.9214 H         1 UNK         0.1381 
     93 H93       -52.4325  -29.7550    6.7025 H         1 UNK         0.1206 
     94 H94       -54.7352  -29.1652    9.4932 H         1 UNK         0.0813 
     95 H95       -54.4458  -28.8771    7.7913 H         1 UNK         0.0813 
     96 H96       -54.8349  -25.4296    8.4900 H         1 UNK         0.0638 
     97 H97       -55.7604  -26.8685    8.8307 H         1 UNK         0.0638 
     98 H98       -54.4019  -25.1046   10.9252 H         1 UNK         0.0568 
     99 H99       -57.6356  -25.8119   11.8299 H         1 UNK         0.3450 
    100 H100      -58.3231  -24.3154   11.2522 H         1 UNK         0.3450 
    101 H101      -55.6869  -27.6915   11.2306 H         1 UNK         0.2987 
    102 H102      -56.3780  -27.9992   14.0639 H         1 UNK         0.0766 
    103 H103      -54.9962  -30.1093   13.6826 H         1 UNK         0.0798 
    104 H104      -53.9332  -29.1801   12.6334 H         1 UNK         0.0798 
    105 H105      -55.6182  -29.4473   12.1876 H         1 UNK         0.0798 
    106 H106      -53.7381  -27.1399   14.8676 H         1 UNK         0.3198 
    107 H107      -54.2818  -28.0230   18.2174 H         1 UNK         0.0843 
    108 H108      -52.0032  -29.0257   16.4189 H         1 UNK         0.0831 
    109 H109      -52.9524  -30.0089   17.5243 H         1 UNK         0.0831 
    110 H110      -51.8941  -28.7585   18.1586 H         1 UNK         0.0831 
    111 H111      -52.3501  -26.5821   16.5087 H         1 UNK         0.3133 
    112 H112      -53.4093  -24.0138   15.9816 H         1 UNK         0.0566 
    113 H113      -53.0818  -22.0694   17.5305 H         1 UNK         0.0814 
    114 H114      -54.6534  -22.8222   17.7393 H         1 UNK         0.0814 
    115 H115      -53.3819  -23.1223   18.9134 H         1 UNK         0.0814 
    116 H116      -51.2259  -24.1453   16.0948 H         1 UNK         0.3091 
    117 H117      -48.7874  -24.1446   18.4482 H         1 UNK         0.0702 
    118 H118      -47.8690  -26.3845   17.8196 H         1 UNK         0.0785 
    119 H119      -49.4734  -26.9125   17.3147 H         1 UNK         0.0785 
    120 H120      -49.1553  -26.5432   19.0045 H         1 UNK         0.0785 
    121 H121      -48.7940  -25.1586   15.7306 H         1 UNK         0.2998 
    122 H122      -48.7863  -21.9210   14.1898 H         1 UNK         0.0697 
    123 H123      -46.6666  -24.1145   14.4551 H         1 UNK         0.0825 
    124 H124      -46.4199  -22.3895   14.6560 H         1 UNK         0.0825 
    125 H125      -46.8179  -23.0324   13.0694 H         1 UNK         0.0825 
    126 H126      -48.8125  -24.4522   12.9688 H         1 UNK         0.3029 
    127 H127      -52.3666  -24.9610   12.9347 H         1 UNK         0.0897 
    128 H128      -50.3028  -24.1924   10.7992 H         1 UNK         0.0792 
    129 H129      -51.8549  -23.4177   11.0760 H         1 UNK         0.0792 
    130 H130      -51.7975  -25.0748   10.5019 H         1 UNK         0.0792 
    131 H131      -49.9686  -26.3581   12.0189 H         1 UNK         0.3086 
    132 H132      -50.0203  -28.7701   14.6495 H         1 UNK         0.0583 
    133 H133      -51.6750  -29.6666   13.1067 H         1 UNK         0.1020 
    134 H134      -50.9427  -28.8691   11.7306 H         1 UNK         0.1020 
    135 H135      -50.4623  -32.8646   11.2702 H         1 UNK         0.0694 
    136 H136      -51.7901  -32.0522   12.0543 H         1 UNK         0.0694 
    137 H137      -48.3305  -28.5701   12.4405 H         1 UNK         0.2989 
    138 H138      -46.0608  -26.0741   13.4437 H         1 UNK         0.1055 
    139 H139      -45.2935  -28.0697   14.7409 H         1 UNK         0.0806 
    140 H140      -44.4186  -27.9205   13.2271 H         1 UNK         0.0806 
    141 H141      -45.7012  -29.1208   13.3919 H         1 UNK         0.0806 
    142 H142      -46.0078  -27.8442   11.2457 H         1 UNK         0.3061 
    143 H143      -46.4010  -26.8811    9.1246 H         1 UNK         0.0734 
    144 H144      -48.3200  -28.1865    8.2262 H         1 UNK         0.0832 
    145 H145      -48.0094  -28.7302    9.8569 H         1 UNK         0.0832 
    146 H146      -49.3624  -27.6519    9.5409 H         1 UNK         0.0832 
    147 H147      -48.3434  -24.7890    9.3671 H         1 UNK         0.3156 
    148 H148      -49.3944  -23.8478    7.3387 H         1 UNK         0.0589 
    149 H149      -47.9270  -21.8803    6.7171 H         1 UNK         0.0808 
    150 H150      -47.3938  -22.6065    8.2246 H         1 UNK         0.0808 
    151 H151      -46.5094  -22.9277    6.7380 H         1 UNK         0.0808 
    152 H152      -47.9453  -24.9544    5.1226 H         1 UNK         0.3098 
    153 H153      -50.6174  -24.3843    2.9178 H         1 UNK         0.0720 
    154 H154      -48.7894  -24.1019    1.2469 H         1 UNK         0.0791 
    155 H155      -47.6541  -23.6737    2.5276 H         1 UNK         0.0791 
    156 H156      -49.0169  -22.6235    2.1665 H         1 UNK         0.0791 
    157 H157      -48.2119  -26.0395    3.0321 H         1 UNK         0.3028 
@<TRIPOS>BOND
     1    1    2 1    
     2    1   82 1    
     3    1   83 1    
     4    1   84 1    
     5    2    3 2    
     6    2    4 am   BACKBONE|DICT|INTERRES
     7    4    5 1    
     8    4   85 1    
     9    5    6 1    
    10    5   80 1    
    11    5   86 1    
    12    6    7 1    
    13    6   87 1    
    14    6   88 1    
    15    7    8 1    
    16    8    9 1    
    17    8   89 1    
    18    8   90 1    
    19    9   10 ar   
    20    9   14 ar   
    21   10   11 ar   
    22   10   91 1    
    23   11   12 ar   
    24   11   58 1    
    25   12   13 ar   
    26   12   92 1    
    27   13   14 ar   
    28   13   15 1    
    29   14   93 1    
    30   15   16 1    
    31   15   94 1    
    32   15   95 1    
    33   16   17 1    
    34   17   18 1    
    35   17   96 1    
    36   17   97 1    
    37   18   19 1    
    38   18   22 1    
    39   18   98 1    
    40   19   20 am   BACKBONE|DICT|INTERRES
    41   19   21 2    
    42   20   99 1    
    43   20  100 1    
    44   22   23 am   BACKBONE|DICT|INTERRES
    45   22  101 1    
    46   23   24 2    
    47   23   25 1    
    48   25   26 1    
    49   25   27 1    
    50   25  102 1    
    51   26  103 1    
    52   26  104 1    
    53   26  105 1    
    54   27   28 am   BACKBONE|DICT|INTERRES
    55   27  106 1    
    56   28   29 2    
    57   28   30 1    
    58   30   31 1    
    59   30   32 1    
    60   30  107 1    
    61   31  108 1    
    62   31  109 1    
    63   31  110 1    
    64   32   33 am   BACKBONE|DICT|INTERRES
    65   32  111 1    
    66   33   34 2    
    67   33   35 1    
    68   35   36 1    
    69   35   37 1    
    70   35  112 1    
    71   36  113 1    
    72   36  114 1    
    73   36  115 1    
    74   37   38 am   BACKBONE|DICT|INTERRES
    75   37  116 1    
    76   38   39 2    
    77   38   40 1    
    78   40   41 1    
    79   40   42 1    
    80   40  117 1    
    81   41  118 1    
    82   41  119 1    
    83   41  120 1    
    84   42   43 am   BACKBONE|DICT|INTERRES
    85   42  121 1    
    86   43   44 2    
    87   43   45 1    
    88   45   46 1    
    89   45   47 1    
    90   45  122 1    
    91   46  123 1    
    92   46  124 1    
    93   46  125 1    
    94   47   48 am   BACKBONE|DICT|INTERRES
    95   47  126 1    
    96   48   49 2    
    97   48   50 1    
    98   50   51 1    
    99   50   52 1    
   100   50  127 1    
   101   51  128 1    
   102   51  129 1    
   103   51  130 1    
   104   52   53 am   BACKBONE|DICT|INTERRES
   105   52  131 1    
   106   53   54 2    
   107   53   55 1    
   108   55   56 1    
   109   55   59 1    
   110   55  132 1    
   111   56   57 1    
   112   56  133 1    
   113   56  134 1    
   114   57   58 1    
   115   58  135 1    
   116   58  136 1    
   117   59   60 am   BACKBONE|DICT|INTERRES
   118   59  137 1    
   119   60   61 2    
   120   60   62 1    
   121   62   63 1    
   122   62   64 1    
   123   62  138 1    
   124   63  139 1    
   125   63  140 1    
   126   63  141 1    
   127   64   65 am   BACKBONE|DICT|INTERRES
   128   64  142 1    
   129   65   66 2    
   130   65   67 1    
   131   67   68 1    
   132   67   69 1    
   133   67  143 1    
   134   68  144 1    
   135   68  145 1    
   136   68  146 1    
   137   69   70 am   BACKBONE|DICT|INTERRES
   138   69  147 1    
   139   70   71 2    
   140   70   72 1    
   141   72   73 1    
   142   72   74 1    
   143   72  148 1    
   144   73  149 1    
   145   73  150 1    
   146   73  151 1    
   147   74   75 am   BACKBONE|DICT|INTERRES
   148   74  152 1    
   149   75   76 2    
   150   75   77 1    
   151   77   78 1    
   152   77   79 1    
   153   77  153 1    
   154   78  154 1    
   155   78  155 1    
   156   78  156 1    
   157   79   80 am   BACKBONE|DICT|INTERRES
   158   79  157 1    
   159   80   81 2    
@<TRIPOS>SUBSTRUCTURE
     1 UNK         1 GROUP             0       ****    0 ROOT    
