@<TRIPOS>MOLECULE
3R207
157   159    1
SMALL
USER_CHARGES


@<TRIPOS>ATOM
      1 CA        -53.2102  -28.6217    2.8804 C.3       0 UNK        -0.1975 
      2 C         -51.8785  -28.7905    3.5978 C.2       0 UNK         0.4852 
      3 O         -50.8793  -29.1192    2.9562 O.2       0 UNK        -0.5216 
      4 N         -51.8677  -28.5746    4.9204 N.am      1 UNK        -0.4461 
      5 CA        -50.6979  -28.6413    5.8048 C.3       1 UNK         0.0864 
      6 C6        -50.0463  -30.0580    5.8336 C.3       14 UNK        -0.0898 
      7 S7        -49.2481  -30.4680    7.4248 S.3       14 UNK        -0.2598 
      8 C8        -50.5918  -31.3354    8.3070 C.3       14 UNK         0.0286 
      9 C9        -51.7802  -30.4215    8.5745 C.ar      14 UNK        -0.0844 
     10 C10       -51.6030  -29.2465    9.3106 C.ar      14 UNK        -0.0881 
     11 C11       -52.6590  -28.3487    9.4787 C.ar      14 UNK        -0.0643 
     12 C12       -53.9170  -28.6645    8.9646 C.ar      14 UNK        -0.0930 
     13 C13       -54.1301  -29.8722    8.2946 C.ar      14 UNK        -0.0827 
     14 C14       -53.0483  -30.7322    8.0709 C.ar      14 UNK        -0.1249 
     15 C15       -55.5325  -30.2139    7.8031 C.3       14 UNK         0.0141 
     16 S16       -56.1364  -31.8750    8.2749 S.3       14 UNK        -0.2313 
     17 C17       -55.5589  -32.1678    9.9851 C.3       14 UNK        -0.0915 
     18 CA        -56.3843  -31.4457   11.0846 C.3       13 UNK         0.0968 
     19 C         -56.2125  -32.1813   12.4448 C.2       13 UNK         0.5732 
     20 N         -57.1416  -33.0587   12.7987 N.am      13 UNK        -0.7310 
     21 O         -55.2244  -31.9966   13.1537 O.2       13 UNK        -0.5035 
     22 N         -56.0052  -30.0276   11.1598 N.am      13 UNK        -0.4233 
     23 C         -56.4987  -29.1211   12.0128 C.2       13 UNK         0.4989 
     24 O         -57.4378  -29.3221   12.7870 O.2       13 UNK        -0.4996 
     25 CA        -55.8376  -27.7403   11.9780 C.3       12 UNK         0.0216 
     26 CB        -56.6155  -26.7755   11.0661 C.3       12 UNK        -0.1964 
     27 N         -55.7779  -27.1943   13.3316 N.am      12 UNK        -0.4276 
     28 C         -54.7068  -26.6021   13.8704 C.2       12 UNK         0.5020 
     29 O         -53.6475  -26.4059   13.2667 O.2       12 UNK        -0.5489 
     30 CA        -54.8288  -26.1682   15.3369 C.3       11 UNK         0.0294 
     31 CB        -54.8691  -27.3897   16.2769 C.3       11 UNK        -0.2019 
     32 N         -53.6747  -25.3347   15.6565 N.am      11 UNK        -0.4493 
     33 C         -53.5508  -24.4954   16.6904 C.2       11 UNK         0.4932 
     34 O         -54.4472  -24.2815   17.5086 O.2       11 UNK        -0.5029 
     35 CA        -52.1847  -23.7910   16.8275 C.3       10 UNK         0.0280 
     36 CB        -51.9787  -23.1141   18.1992 C.3       10 UNK        -0.1976 
     37 N         -51.0660  -24.6849   16.5027 N.am      10 UNK        -0.4242 
     38 C         -50.7302  -25.8266   17.1243 C.2       10 UNK         0.5072 
     39 O         -51.2714  -26.2480   18.1475 O.2       10 UNK        -0.5224 
     40 CA        -49.6141  -26.6624   16.4766 C.3       9 UNK         0.0343 
     41 CB        -50.2032  -27.5731   15.3860 C.3       9 UNK        -0.2003 
     42 N         -48.5330  -25.8537   15.9081 N.am      9 UNK        -0.4272 
     43 C         -47.6544  -25.1409   16.6282 C.2       9 UNK         0.4988 
     44 O         -47.6469  -25.1024   17.8593 O.2       9 UNK        -0.5108 
     45 CA        -46.6017  -24.3355   15.8462 C.3       8 UNK         0.0248 
     46 CB        -45.4553  -25.2451   15.3751 C.3       8 UNK        -0.2001 
     47 N         -47.1704  -23.6197   14.7019 N.am      8 UNK        -0.4140 
     48 C         -48.0198  -22.5865   14.8050 C.2       8 UNK         0.5028 
     49 O         -48.3592  -22.0801   15.8750 O.2       8 UNK        -0.5428 
     50 CA        -48.6137  -22.0358   13.4970 C.3       7 UNK         0.0264 
     51 CB        -47.6445  -21.0442   12.8342 C.3       7 UNK        -0.1988 
     52 N         -48.9767  -23.0869   12.5428 N.am      7 UNK        -0.4454 
     53 C         -49.9036  -24.0303   12.7671 C.2       7 UNK         0.5027 
     54 O         -50.5871  -24.0847   13.7897 O.2       7 UNK        -0.5083 
     55 CA        -50.0652  -25.1285   11.6994 C.3       6 UNK         0.0844 
     56 C56       -51.0080  -24.6625   10.5633 C.3       14 UNK        -0.0967 
     57 S57       -51.2985  -25.9529    9.3103 S.3       14 UNK        -0.2604 
     58 C58       -52.4334  -27.0430   10.2196 C.3       14 UNK         0.0134 
     59 N         -48.7720  -25.6247   11.2184 N.am      6 UNK        -0.4116 
     60 C         -47.8696  -26.2478   11.9902 C.2       5 UNK         0.5034 
     61 O         -48.0452  -26.5087   13.1792 O.2       5 UNK        -0.5045 
     62 CA        -46.5163  -26.5804   11.3494 C.3       5 UNK         0.0224 
     63 CB        -46.5903  -27.8842   10.5373 C.3       5 UNK        -0.1978 
     64 N         -46.0386  -25.4792   10.5113 N.am      5 UNK        -0.4737 
     65 C         -45.6142  -24.3030   10.9965 C.2       4 UNK         0.5027 
     66 O         -45.5320  -24.0506   12.1984 O.2       4 UNK        -0.5211 
     67 CA        -45.2607  -23.2124    9.9711 C.3       4 UNK         0.0297 
     68 CB        -43.8083  -23.3708    9.4949 C.3       4 UNK        -0.1993 
     69 N         -46.1598  -23.2043    8.8142 N.am      4 UNK        -0.4486 
     70 C         -47.4671  -22.9131    8.8726 C.2       3 UNK         0.4961 
     71 O         -48.0497  -22.5784    9.9031 O.2       3 UNK        -0.5105 
     72 CA        -48.2733  -23.0685    7.5720 C.3       3 UNK         0.0299 
     73 CB        -48.2156  -21.7744    6.7453 C.3       3 UNK        -0.1972 
     74 N         -47.8616  -24.2061    6.7399 N.am      3 UNK        -0.4305 
     75 C         -47.8522  -25.4834    7.1450 C.2       2 UNK         0.5006 
     76 O         -48.0947  -25.8397    8.2992 O.2       2 UNK        -0.5106 
     77 CA        -47.4746  -26.5442    6.1014 C.3       2 UNK         0.0296 
     78 CB        -46.1003  -27.1539    6.4235 C.3       2 UNK        -0.2002 
     79 N         -48.4819  -27.6040    6.0797 N.am      2 UNK        -0.4032 
     80 C         -49.7096  -27.4753    5.5599 C.2       1 UNK         0.5000 
     81 O         -50.0786  -26.4693    4.9451 O.2       1 UNK        -0.5238 
     82 H82       -53.1322  -27.8402    2.1250 H         1 UNK         0.0889 
     83 H83       -54.0127  -28.3512    3.5666 H         1 UNK         0.0889 
     84 H84       -53.4888  -29.5505    2.3832 H         1 UNK         0.0889 
     85 H85       -52.7215  -28.2815    5.3739 H         1 UNK         0.3028 
     86 H86       -51.1093  -28.4348    6.7909 H         1 UNK         0.0864 
     87 H87       -50.8030  -30.8207    5.6422 H         1 UNK         0.0720 
     88 H88       -49.3165  -30.1696    5.0296 H         1 UNK         0.0720 
     89 H89       -50.2093  -31.7068    9.2585 H         1 UNK         0.0814 
     90 H90       -50.8925  -32.2125    7.7319 H         1 UNK         0.0814 
     91 H91       -50.6258  -29.0001    9.7042 H         1 UNK         0.1469 
     92 H92       -54.7321  -27.9664    9.0895 H         1 UNK         0.1381 
     93 H93       -53.2002  -31.6480    7.5160 H         1 UNK         0.1206 
     94 H94       -56.2552  -29.4828    8.1687 H         1 UNK         0.0813 
     95 H95       -55.5499  -30.1349    6.7154 H         1 UNK         0.0813 
     96 H96       -54.4971  -31.9373   10.0776 H         1 UNK         0.0638 
     97 H97       -55.6238  -33.2498   10.1178 H         1 UNK         0.0638 
     98 H98       -57.4413  -31.4830   10.8147 H         1 UNK         0.0568 
     99 H99       -57.9478  -33.2284   12.2176 H         1 UNK         0.3450 
    100 H100      -57.0380  -33.5566   13.6689 H         1 UNK         0.3450 
    101 H101      -55.2242  -29.7697   10.5747 H         1 UNK         0.2987 
    102 H102      -54.8268  -27.8691   11.5915 H         1 UNK         0.0766 
    103 H103      -56.0964  -25.8218   10.9687 H         1 UNK         0.0798 
    104 H104      -57.6144  -26.5740   11.4551 H         1 UNK         0.0798 
    105 H105      -56.7369  -27.1848   10.0628 H         1 UNK         0.0798 
    106 H106      -56.5893  -27.3850   13.9059 H         1 UNK         0.3198 
    107 H107      -55.7403  -25.5774   15.4496 H         1 UNK         0.0843 
    108 H108      -53.9679  -27.9970   16.1819 H         1 UNK         0.0831 
    109 H109      -55.7222  -28.0330   16.0585 H         1 UNK         0.0831 
    110 H110      -54.9566  -27.0873   17.3206 H         1 UNK         0.0831 
    111 H111      -52.9262  -25.4094   14.9755 H         1 UNK         0.3133 
    112 H112      -52.1703  -23.0065   16.0696 H         1 UNK         0.0566 
    113 H113      -51.0068  -22.6235   18.2551 H         1 UNK         0.0814 
    114 H114      -52.7377  -22.3510   18.3753 H         1 UNK         0.0814 
    115 H115      -52.0419  -23.8294   19.0196 H         1 UNK         0.0814 
    116 H116      -50.5995  -24.4714   15.6232 H         1 UNK         0.3091 
    117 H117      -49.1834  -27.2982   17.2530 H         1 UNK         0.0702 
    118 H118      -49.4448  -28.2387   14.9733 H         1 UNK         0.0785 
    119 H119      -50.6247  -26.9959   14.5617 H         1 UNK         0.0785 
    120 H120      -51.0015  -28.1991   15.7870 H         1 UNK         0.0785 
    121 H121      -48.4216  -25.8913   14.8971 H         1 UNK         0.2998 
    122 H122      -46.1811  -23.5925   16.5271 H         1 UNK         0.0697 
    123 H123      -45.8008  -26.0023   14.6709 H         1 UNK         0.0825 
    124 H124      -44.9995  -25.7666   16.2177 H         1 UNK         0.0825 
    125 H125      -44.6691  -24.6698   14.8857 H         1 UNK         0.0825 
    126 H126      -46.8879  -23.9317   13.7783 H         1 UNK         0.3029 
    127 H127      -49.5282  -21.4969   13.7543 H         1 UNK         0.0897 
    128 H128      -48.0897  -20.5850   11.9513 H         1 UNK         0.0792 
    129 H129      -47.3797  -20.2386   13.5204 H         1 UNK         0.0792 
    130 H130      -46.7179  -21.5297   12.5267 H         1 UNK         0.0792 
    131 H131      -48.5042  -23.0666   11.6406 H         1 UNK         0.3086 
    132 H132      -50.5444  -25.9656   12.2088 H         1 UNK         0.0583 
    133 H133      -51.9729  -24.3508   10.9692 H         1 UNK         0.1020 
    134 H134      -50.5941  -23.7888   10.0566 H         1 UNK         0.1020 
    135 H135      -52.0323  -27.2759   11.2053 H         1 UNK         0.0694 
    136 H136      -53.3711  -26.5097   10.3807 H         1 UNK         0.0694 
    137 H137      -48.5686  -25.4993   10.2312 H         1 UNK         0.2989 
    138 H138      -45.7952  -26.7274   12.1569 H         1 UNK         0.1055 
    139 H139      -46.8625  -28.7225   11.1799 H         1 UNK         0.0806 
    140 H140      -45.6294  -28.1247   10.0824 H         1 UNK         0.0806 
    141 H141      -47.3357  -27.8354    9.7436 H         1 UNK         0.0806 
    142 H142      -46.1672  -25.5783    9.5135 H         1 UNK         0.3061 
    143 H143      -45.3519  -22.2463   10.4721 H         1 UNK         0.0734 
    144 H144      -43.5164  -22.5568    8.8312 H         1 UNK         0.0832 
    145 H145      -43.1191  -23.3593   10.3406 H         1 UNK         0.0832 
    146 H146      -43.6551  -24.3110    8.9635 H         1 UNK         0.0832 
    147 H147      -45.7679  -23.4698    7.9225 H         1 UNK         0.3156 
    148 H148      -49.3133  -23.2415    7.8569 H         1 UNK         0.0589 
    149 H149      -47.2059  -21.5644    6.3903 H         1 UNK         0.0808 
    150 H150      -48.8736  -21.8273    5.8777 H         1 UNK         0.0808 
    151 H151      -48.5367  -20.9176    7.3398 H         1 UNK         0.0808 
    152 H152      -47.6432  -24.0031    5.7747 H         1 UNK         0.3098 
    153 H153      -47.4278  -26.0841    5.1121 H         1 UNK         0.0720 
    154 H154      -45.8104  -27.8926    5.6760 H         1 UNK         0.0791 
    155 H155      -46.0923  -27.6442    7.3980 H         1 UNK         0.0791 
    156 H156      -45.3253  -26.3866    6.4376 H         1 UNK         0.0791 
    157 H157      -48.2813  -28.4377    6.6167 H         1 UNK         0.3028 
@<TRIPOS>BOND
     1    1    2 1    
     2    1   82 1    
     3    1   83 1    
     4    1   84 1    
     5    2    3 2    
     6    2    4 am   BACKBONE|DICT|INTERRES
     7    4    5 1    
     8    4   85 1    
     9    5    6 1    
    10    5   80 1    
    11    5   86 1    
    12    6    7 1    
    13    6   87 1    
    14    6   88 1    
    15    7    8 1    
    16    8    9 1    
    17    8   89 1    
    18    8   90 1    
    19    9   10 ar   
    20    9   14 ar   
    21   10   11 ar   
    22   10   91 1    
    23   11   12 ar   
    24   11   58 1    
    25   12   13 ar   
    26   12   92 1    
    27   13   14 ar   
    28   13   15 1    
    29   14   93 1    
    30   15   16 1    
    31   15   94 1    
    32   15   95 1    
    33   16   17 1    
    34   17   18 1    
    35   17   96 1    
    36   17   97 1    
    37   18   19 1    
    38   18   22 1    
    39   18   98 1    
    40   19   20 am   BACKBONE|DICT|INTERRES
    41   19   21 2    
    42   20   99 1    
    43   20  100 1    
    44   22   23 am   BACKBONE|DICT|INTERRES
    45   22  101 1    
    46   23   24 2    
    47   23   25 1    
    48   25   26 1    
    49   25   27 1    
    50   25  102 1    
    51   26  103 1    
    52   26  104 1    
    53   26  105 1    
    54   27   28 am   BACKBONE|DICT|INTERRES
    55   27  106 1    
    56   28   29 2    
    57   28   30 1    
    58   30   31 1    
    59   30   32 1    
    60   30  107 1    
    61   31  108 1    
    62   31  109 1    
    63   31  110 1    
    64   32   33 am   BACKBONE|DICT|INTERRES
    65   32  111 1    
    66   33   34 2    
    67   33   35 1    
    68   35   36 1    
    69   35   37 1    
    70   35  112 1    
    71   36  113 1    
    72   36  114 1    
    73   36  115 1    
    74   37   38 am   BACKBONE|DICT|INTERRES
    75   37  116 1    
    76   38   39 2    
    77   38   40 1    
    78   40   41 1    
    79   40   42 1    
    80   40  117 1    
    81   41  118 1    
    82   41  119 1    
    83   41  120 1    
    84   42   43 am   BACKBONE|DICT|INTERRES
    85   42  121 1    
    86   43   44 2    
    87   43   45 1    
    88   45   46 1    
    89   45   47 1    
    90   45  122 1    
    91   46  123 1    
    92   46  124 1    
    93   46  125 1    
    94   47   48 am   BACKBONE|DICT|INTERRES
    95   47  126 1    
    96   48   49 2    
    97   48   50 1    
    98   50   51 1    
    99   50   52 1    
   100   50  127 1    
   101   51  128 1    
   102   51  129 1    
   103   51  130 1    
   104   52   53 am   BACKBONE|DICT|INTERRES
   105   52  131 1    
   106   53   54 2    
   107   53   55 1    
   108   55   56 1    
   109   55   59 1    
   110   55  132 1    
   111   56   57 1    
   112   56  133 1    
   113   56  134 1    
   114   57   58 1    
   115   58  135 1    
   116   58  136 1    
   117   59   60 am   BACKBONE|DICT|INTERRES
   118   59  137 1    
   119   60   61 2    
   120   60   62 1    
   121   62   63 1    
   122   62   64 1    
   123   62  138 1    
   124   63  139 1    
   125   63  140 1    
   126   63  141 1    
   127   64   65 am   BACKBONE|DICT|INTERRES
   128   64  142 1    
   129   65   66 2    
   130   65   67 1    
   131   67   68 1    
   132   67   69 1    
   133   67  143 1    
   134   68  144 1    
   135   68  145 1    
   136   68  146 1    
   137   69   70 am   BACKBONE|DICT|INTERRES
   138   69  147 1    
   139   70   71 2    
   140   70   72 1    
   141   72   73 1    
   142   72   74 1    
   143   72  148 1    
   144   73  149 1    
   145   73  150 1    
   146   73  151 1    
   147   74   75 am   BACKBONE|DICT|INTERRES
   148   74  152 1    
   149   75   76 2    
   150   75   77 1    
   151   77   78 1    
   152   77   79 1    
   153   77  153 1    
   154   78  154 1    
   155   78  155 1    
   156   78  156 1    
   157   79   80 am   BACKBONE|DICT|INTERRES
   158   79  157 1    
   159   80   81 2    
@<TRIPOS>SUBSTRUCTURE
     1 UNK         1 GROUP             0       ****    0 ROOT    
