@<TRIPOS>MOLECULE
3R207
157   159    1
SMALL
USER_CHARGES


@<TRIPOS>ATOM
      1 CA        -52.5442  -31.5682    4.2864 C.3       0 UNK        -0.1975 
      2 C         -51.7405  -30.4654    4.9597 C.2       0 UNK         0.4852 
      3 O         -51.8839  -29.2973    4.5960 O.2       0 UNK        -0.5216 
      4 N         -50.9034  -30.8286    5.9402 N.am      1 UNK        -0.4461 
      5 CA        -50.0297  -29.9091    6.6736 C.3       1 UNK         0.0864 
      6 C6        -49.5362  -30.5510    7.9972 C.3       14 UNK        -0.0898 
      7 S7        -48.8970  -29.3228    9.1888 S.3       14 UNK        -0.2598 
      8 C8        -50.3408  -29.0316   10.2593 C.3       14 UNK         0.0286 
      9 C9        -51.5399  -28.5181    9.4763 C.ar      14 UNK        -0.0844 
     10 C10       -51.5193  -27.2390    8.9131 C.ar      14 UNK        -0.0881 
     11 C11       -52.6204  -26.7518    8.1949 C.ar      14 UNK        -0.0643 
     12 C12       -53.7439  -27.5719    8.0485 C.ar      14 UNK        -0.0930 
     13 C13       -53.7726  -28.8582    8.5942 C.ar      14 UNK        -0.0827 
     14 C14       -52.6648  -29.3272    9.3042 C.ar      14 UNK        -0.1249 
     15 C15       -54.9990  -29.7418    8.4135 C.3       14 UNK         0.0141 
     16 S16       -55.7574  -30.2062   10.0032 S.3       14 UNK        -0.2313 
     17 C17       -56.2764  -28.5854   10.6697 C.3       14 UNK        -0.0915 
     18 CA        -55.2428  -27.9349   11.6339 C.3       13 UNK         0.0968 
     19 C         -55.7933  -26.5956   12.2021 C.2       13 UNK         0.5732 
     20 N         -55.9812  -26.4459   13.5068 N.am      13 UNK        -0.7310 
     21 O         -56.0660  -25.6726   11.4386 O.2       13 UNK        -0.5035 
     22 N         -54.7545  -28.8962   12.6358 N.am      13 UNK        -0.4233 
     23 C         -53.6019  -28.7908   13.3047 C.2       13 UNK         0.4989 
     24 O         -52.8456  -27.8217   13.2432 O.2       13 UNK        -0.4996 
     25 CA        -53.1955  -30.0208   14.1209 C.3       12 UNK         0.0216 
     26 CB        -52.3768  -30.9900   13.2438 C.3       12 UNK        -0.1964 
     27 N         -52.4246  -29.6191   15.2967 N.am      12 UNK        -0.4276 
     28 C         -52.1936  -30.4081   16.3554 C.2       12 UNK         0.5020 
     29 O         -52.5960  -31.5690   16.4474 O.2       12 UNK        -0.5489 
     30 CA        -51.4035  -29.8025   17.5230 C.3       11 UNK         0.0294 
     31 CB        -49.9101  -29.6698   17.1771 C.3       11 UNK        -0.2019 
     32 N         -51.9565  -28.5022   17.8984 N.am      11 UNK        -0.4493 
     33 C         -52.9785  -28.3393   18.7522 C.2       11 UNK         0.4932 
     34 O         -53.5012  -29.2638   19.3757 O.2       11 UNK        -0.5029 
     35 CA        -53.5145  -26.9107   18.9642 C.3       10 UNK         0.0280 
     36 CB        -52.9030  -26.2919   20.2317 C.3       10 UNK        -0.1976 
     37 N         -53.2689  -26.0204   17.8294 N.am      10 UNK        -0.4242 
     38 C         -53.8631  -26.1200   16.6320 C.2       10 UNK         0.5072 
     39 O         -54.7466  -26.9362   16.3664 O.2       10 UNK        -0.5224 
     40 CA        -53.3616  -25.1628   15.5364 C.3       9 UNK         0.0343 
     41 CB        -54.2014  -23.8761   15.5151 C.3       9 UNK        -0.2003 
     42 N         -51.9421  -24.8084   15.6403 N.am      9 UNK        -0.4272 
     43 C         -50.9110  -25.6651   15.6427 C.2       9 UNK         0.4988 
     44 O         -51.0463  -26.8895   15.6741 O.2       9 UNK        -0.5108 
     45 CA        -49.4996  -25.0443   15.6248 C.3       8 UNK         0.0248 
     46 CB        -48.3936  -26.1011   15.4451 C.3       8 UNK        -0.2001 
     47 N         -49.3738  -24.0304   14.5731 N.am      8 UNK        -0.4140 
     48 C         -49.7867  -22.7573   14.6794 C.2       8 UNK         0.5028 
     49 O         -50.2803  -22.2943   15.7086 O.2       8 UNK        -0.5428 
     50 CA        -49.6902  -21.8590   13.4320 C.3       7 UNK         0.0264 
     51 CB        -48.4059  -21.0169   13.4770 C.3       7 UNK        -0.1988 
     52 N         -49.7427  -22.6040   12.1716 N.am      7 UNK        -0.4454 
     53 C         -50.8048  -23.3115   11.7479 C.2       7 UNK         0.5027 
     54 O         -51.8907  -23.3087   12.3284 O.2       7 UNK        -0.5083 
     55 CA        -50.6395  -24.1794   10.4785 C.3       6 UNK         0.0844 
     56 C56       -51.3806  -23.5160    9.2891 C.3       14 UNK        -0.0967 
     57 S57       -51.1409  -24.3579    7.6855 S.3       14 UNK        -0.2604 
     58 C58       -52.6531  -25.3716    7.5320 C.3       14 UNK         0.0134 
     59 N         -49.2414  -24.4959   10.1588 N.am      6 UNK        -0.4116 
     60 C         -48.3669  -25.1305   10.9527 C.2       5 UNK         0.5034 
     61 O         -48.6568  -25.5954   12.0545 O.2       5 UNK        -0.5045 
     62 CA        -46.9039  -25.1895   10.4764 C.3       5 UNK         0.0224 
     63 CB        -46.5901  -26.5606    9.8600 C.3       5 UNK        -0.1978 
     64 N         -46.5325  -24.1355    9.5233 N.am      5 UNK        -0.4737 
     65 C         -46.5991  -22.8142    9.7362 C.2       4 UNK         0.5027 
     66 O         -47.0163  -22.3230   10.7850 O.2       4 UNK        -0.5211 
     67 CA        -46.1869  -21.8741    8.5858 C.3       4 UNK         0.0297 
     68 CB        -44.7123  -21.4477    8.7231 C.3       4 UNK        -0.1993 
     69 N         -46.4873  -22.3788    7.2344 N.am      4 UNK        -0.4486 
     70 C         -45.9431  -23.4185    6.5875 C.2       3 UNK         0.4961 
     71 O         -45.0317  -24.1158    7.0385 O.2       3 UNK        -0.5105 
     72 CA        -46.5418  -23.7513    5.2098 C.3       3 UNK         0.0299 
     73 CB        -45.6908  -23.1316    4.0899 C.3       3 UNK        -0.1972 
     74 N         -46.6476  -25.1978    4.9956 N.am      3 UNK        -0.4305 
     75 C         -47.3852  -26.0271    5.7460 C.2       2 UNK         0.5006 
     76 O         -48.1095  -25.6584    6.6751 O.2       2 UNK        -0.5106 
     77 CA        -47.2786  -27.5210    5.4187 C.3       2 UNK         0.0296 
     78 CB        -45.9419  -28.1001    5.9234 C.3       2 UNK        -0.2002 
     79 N         -48.3940  -28.1999    6.0665 N.am      2 UNK        -0.4032 
     80 C         -48.8570  -29.4231    5.7944 C.2       1 UNK         0.5000 
     81 O         -48.3850  -30.1618    4.9243 O.2       1 UNK        -0.5238 
     82 H82       -53.6109  -31.3781    4.4022 H         1 UNK         0.0889 
     83 H83       -52.3269  -32.5487    4.7098 H         1 UNK         0.0889 
     84 H84       -52.3168  -31.6009    3.2212 H         1 UNK         0.0889 
     85 H85       -50.8007  -31.8068    6.1680 H         1 UNK         0.3028 
     86 H86       -50.6390  -29.0373    6.9177 H         1 UNK         0.0864 
     87 H87       -50.3495  -31.0963    8.4786 H         1 UNK         0.0720 
     88 H88       -48.7579  -31.2920    7.8050 H         1 UNK         0.0720 
     89 H89       -50.5855  -29.9560   10.7834 H         1 UNK         0.0814 
     90 H90       -50.0753  -28.3036   11.0280 H         1 UNK         0.0814 
     91 H91       -50.6261  -26.6442    9.0265 H         1 UNK         0.1469 
     92 H92       -54.5985  -27.2077    7.4947 H         1 UNK         0.1381 
     93 H93       -52.6858  -30.3213    9.7293 H         1 UNK         0.1206 
     94 H94       -54.7044  -30.6494    7.8851 H         1 UNK         0.0813 
     95 H95       -55.7489  -29.2533    7.7895 H         1 UNK         0.0813 
     96 H96       -56.4947  -27.9161    9.8355 H         1 UNK         0.0638 
     97 H97       -57.2248  -28.7392   11.1877 H         1 UNK         0.0638 
     98 H98       -54.3776  -27.6477   11.0348 H         1 UNK         0.0568 
     99 H99       -56.3533  -25.5751   13.8470 H         1 UNK         0.3450 
    100 H100      -55.7278  -27.1727   14.1588 H         1 UNK         0.3450 
    101 H101      -55.3065  -29.7350   12.7333 H         1 UNK         0.2987 
    102 H102      -54.1050  -30.5217   14.4598 H         1 UNK         0.0766 
    103 H103      -52.1865  -31.9329   13.7562 H         1 UNK         0.0798 
    104 H104      -52.9042  -31.2290   12.3190 H         1 UNK         0.0798 
    105 H105      -51.4134  -30.5592   12.9703 H         1 UNK         0.0798 
    106 H106      -52.0681  -28.6652   15.2809 H         1 UNK         0.3198 
    107 H107      -51.4823  -30.4843   18.3730 H         1 UNK         0.0843 
    108 H108      -49.7428  -29.0540   16.2936 H         1 UNK         0.0831 
    109 H109      -49.4744  -30.6486   16.9727 H         1 UNK         0.0831 
    110 H110      -49.3490  -29.2316   18.0024 H         1 UNK         0.0831 
    111 H111      -51.6261  -27.7065   17.3615 H         1 UNK         0.3133 
    112 H112      -54.5948  -26.9830   19.1071 H         1 UNK         0.0566 
    113 H113      -51.8213  -26.1799   20.1463 H         1 UNK         0.0814 
    114 H114      -53.0971  -26.9182   21.1037 H         1 UNK         0.0814 
    115 H115      -53.3285  -25.3101   20.4404 H         1 UNK         0.0814 
    116 H116      -52.5604  -25.3111   17.9486 H         1 UNK         0.3091 
    117 H117      -53.4919  -25.6666   14.5782 H         1 UNK         0.0702 
    118 H118      -53.9383  -23.2489   14.6627 H         1 UNK         0.0785 
    119 H119      -54.0624  -23.2875   16.4227 H         1 UNK         0.0785 
    120 H120      -55.2650  -24.1030   15.4325 H         1 UNK         0.0785 
    121 H121      -51.7182  -23.8196   15.6402 H         1 UNK         0.2998 
    122 H122      -49.3450  -24.5695   16.5959 H         1 UNK         0.0697 
    123 H123      -48.5238  -26.6682   14.5226 H         1 UNK         0.0825 
    124 H124      -48.3994  -26.8157   16.2690 H         1 UNK         0.0825 
    125 H125      -47.4047  -25.6434   15.4214 H         1 UNK         0.0825 
    126 H126      -49.0494  -24.3672   13.6722 H         1 UNK         0.3029 
    127 H127      -50.5456  -21.1802   13.4525 H         1 UNK         0.0897 
    128 H128      -48.3506  -20.3306   12.6317 H         1 UNK         0.0792 
    129 H129      -48.3644  -20.4155   14.3863 H         1 UNK         0.0792 
    130 H130      -47.5127  -21.6429   13.4582 H         1 UNK         0.0792 
    131 H131      -48.8834  -22.6310   11.6305 H         1 UNK         0.3086 
    132 H132      -51.1336  -25.1260   10.7018 H         1 UNK         0.0583 
    133 H133      -52.4488  -23.4443    9.5033 H         1 UNK         0.1020 
    134 H134      -51.0374  -22.4875    9.1592 H         1 UNK         0.1020 
    135 H135      -53.5083  -24.8088    7.9085 H         1 UNK         0.0694 
    136 H136      -52.8340  -25.5186    6.4662 H         1 UNK         0.0694 
    137 H137      -48.9132  -24.1800    9.2570 H         1 UNK         0.2989 
    138 H138      -46.2778  -25.0600   11.3617 H         1 UNK         0.1055 
    139 H139      -45.5374  -26.6461    9.5902 H         1 UNK         0.0806 
    140 H140      -47.1822  -26.7426    8.9630 H         1 UNK         0.0806 
    141 H141      -46.8106  -27.3646   10.5637 H         1 UNK         0.0806 
    142 H142      -46.1442  -24.4359    8.6341 H         1 UNK         0.3061 
    143 H143      -46.7940  -20.9743    8.6989 H         1 UNK         0.0734 
    144 H144      -44.5382  -20.9635    9.6849 H         1 UNK         0.0832 
    145 H145      -44.0319  -22.2976    8.6645 H         1 UNK         0.0832 
    146 H146      -44.4301  -20.7367    7.9468 H         1 UNK         0.0832 
    147 H147      -47.2466  -21.8985    6.7700 H         1 UNK         0.3156 
    148 H148      -47.5499  -23.3351    5.1523 H         1 UNK         0.0589 
    149 H149      -44.6746  -23.5287    4.0890 H         1 UNK         0.0808 
    150 H150      -46.1264  -23.3187    3.1082 H         1 UNK         0.0808 
    151 H151      -45.6165  -22.0497    4.2085 H         1 UNK         0.0808 
    152 H152      -46.0560  -25.5907    4.2780 H         1 UNK         0.3098 
    153 H153      -47.3602  -27.6502    4.3376 H         1 UNK         0.0720 
    154 H154      -45.8476  -29.1587    5.6810 H         1 UNK         0.0791 
    155 H155      -45.0920  -27.5902    5.4686 H         1 UNK         0.0791 
    156 H156      -45.8442  -27.9959    7.0049 H         1 UNK         0.0791 
    157 H157      -48.8427  -27.6367    6.7804 H         1 UNK         0.3028 
@<TRIPOS>BOND
     1    1    2 1    
     2    1   82 1    
     3    1   83 1    
     4    1   84 1    
     5    2    3 2    
     6    2    4 am   BACKBONE|DICT|INTERRES
     7    4    5 1    
     8    4   85 1    
     9    5    6 1    
    10    5   80 1    
    11    5   86 1    
    12    6    7 1    
    13    6   87 1    
    14    6   88 1    
    15    7    8 1    
    16    8    9 1    
    17    8   89 1    
    18    8   90 1    
    19    9   10 ar   
    20    9   14 ar   
    21   10   11 ar   
    22   10   91 1    
    23   11   12 ar   
    24   11   58 1    
    25   12   13 ar   
    26   12   92 1    
    27   13   14 ar   
    28   13   15 1    
    29   14   93 1    
    30   15   16 1    
    31   15   94 1    
    32   15   95 1    
    33   16   17 1    
    34   17   18 1    
    35   17   96 1    
    36   17   97 1    
    37   18   19 1    
    38   18   22 1    
    39   18   98 1    
    40   19   20 am   BACKBONE|DICT|INTERRES
    41   19   21 2    
    42   20   99 1    
    43   20  100 1    
    44   22   23 am   BACKBONE|DICT|INTERRES
    45   22  101 1    
    46   23   24 2    
    47   23   25 1    
    48   25   26 1    
    49   25   27 1    
    50   25  102 1    
    51   26  103 1    
    52   26  104 1    
    53   26  105 1    
    54   27   28 am   BACKBONE|DICT|INTERRES
    55   27  106 1    
    56   28   29 2    
    57   28   30 1    
    58   30   31 1    
    59   30   32 1    
    60   30  107 1    
    61   31  108 1    
    62   31  109 1    
    63   31  110 1    
    64   32   33 am   BACKBONE|DICT|INTERRES
    65   32  111 1    
    66   33   34 2    
    67   33   35 1    
    68   35   36 1    
    69   35   37 1    
    70   35  112 1    
    71   36  113 1    
    72   36  114 1    
    73   36  115 1    
    74   37   38 am   BACKBONE|DICT|INTERRES
    75   37  116 1    
    76   38   39 2    
    77   38   40 1    
    78   40   41 1    
    79   40   42 1    
    80   40  117 1    
    81   41  118 1    
    82   41  119 1    
    83   41  120 1    
    84   42   43 am   BACKBONE|DICT|INTERRES
    85   42  121 1    
    86   43   44 2    
    87   43   45 1    
    88   45   46 1    
    89   45   47 1    
    90   45  122 1    
    91   46  123 1    
    92   46  124 1    
    93   46  125 1    
    94   47   48 am   BACKBONE|DICT|INTERRES
    95   47  126 1    
    96   48   49 2    
    97   48   50 1    
    98   50   51 1    
    99   50   52 1    
   100   50  127 1    
   101   51  128 1    
   102   51  129 1    
   103   51  130 1    
   104   52   53 am   BACKBONE|DICT|INTERRES
   105   52  131 1    
   106   53   54 2    
   107   53   55 1    
   108   55   56 1    
   109   55   59 1    
   110   55  132 1    
   111   56   57 1    
   112   56  133 1    
   113   56  134 1    
   114   57   58 1    
   115   58  135 1    
   116   58  136 1    
   117   59   60 am   BACKBONE|DICT|INTERRES
   118   59  137 1    
   119   60   61 2    
   120   60   62 1    
   121   62   63 1    
   122   62   64 1    
   123   62  138 1    
   124   63  139 1    
   125   63  140 1    
   126   63  141 1    
   127   64   65 am   BACKBONE|DICT|INTERRES
   128   64  142 1    
   129   65   66 2    
   130   65   67 1    
   131   67   68 1    
   132   67   69 1    
   133   67  143 1    
   134   68  144 1    
   135   68  145 1    
   136   68  146 1    
   137   69   70 am   BACKBONE|DICT|INTERRES
   138   69  147 1    
   139   70   71 2    
   140   70   72 1    
   141   72   73 1    
   142   72   74 1    
   143   72  148 1    
   144   73  149 1    
   145   73  150 1    
   146   73  151 1    
   147   74   75 am   BACKBONE|DICT|INTERRES
   148   74  152 1    
   149   75   76 2    
   150   75   77 1    
   151   77   78 1    
   152   77   79 1    
   153   77  153 1    
   154   78  154 1    
   155   78  155 1    
   156   78  156 1    
   157   79   80 am   BACKBONE|DICT|INTERRES
   158   79  157 1    
   159   80   81 2    
@<TRIPOS>SUBSTRUCTURE
     1 UNK         1 GROUP             0       ****    0 ROOT    
