@<TRIPOS>MOLECULE
3R207
157   159    1
SMALL
USER_CHARGES


@<TRIPOS>ATOM
      1 CA        -46.9914  -29.6722    9.9293 C.3       0 UNK        -0.1975 
      2 C         -47.3482  -28.9634    8.6319 C.2       0 UNK         0.4852 
      3 O         -47.1055  -27.7613    8.5267 O.2       0 UNK        -0.5216 
      4 N         -47.8913  -29.7141    7.6598 N.am      1 UNK        -0.4461 
      5 CA        -48.4584  -29.3190    6.3557 C.3       1 UNK         0.0864 
      6 C6        -50.0122  -29.3593    6.3456 C.3       14 UNK        -0.0898 
      7 S7        -50.8520  -28.2728    7.5525 S.3       14 UNK        -0.2598 
      8 C8        -52.1262  -27.5273    6.4819 C.3       14 UNK         0.0286 
      9 C9        -53.2093  -26.7985    7.2684 C.ar      14 UNK        -0.0844 
     10 C10       -53.5022  -25.4573    6.9985 C.ar      14 UNK        -0.0881 
     11 C11       -54.5289  -24.7972    7.6855 C.ar      14 UNK        -0.0643 
     12 C12       -55.2626  -25.4949    8.6512 C.ar      14 UNK        -0.0930 
     13 C13       -54.9911  -26.8404    8.9200 C.ar      14 UNK        -0.0827 
     14 C14       -53.9662  -27.4853    8.2229 C.ar      14 UNK        -0.1249 
     15 C15       -55.8370  -27.6051    9.9295 C.3       14 UNK         0.0141 
     16 S16       -55.1971  -27.4380   11.6242 S.3       14 UNK        -0.2313 
     17 C17       -53.8932  -28.7157   11.6779 C.3       14 UNK        -0.0915 
     18 CA        -54.2113  -29.8748   12.6615 C.3       13 UNK         0.0968 
     19 C         -53.1303  -30.9945   12.6034 C.2       13 UNK         0.5732 
     20 N         -52.5636  -31.4488   13.7166 N.am      13 UNK        -0.7310 
     21 O         -52.8092  -31.4805   11.5216 O.2       13 UNK        -0.5035 
     22 N         -54.4695  -29.3906   14.0278 N.am      13 UNK        -0.4233 
     23 C         -55.3885  -29.9132   14.8499 C.2       13 UNK         0.4989 
     24 O         -56.1614  -30.8152   14.5197 O.2       13 UNK        -0.4996 
     25 CA        -55.4650  -29.3337   16.2782 C.3       12 UNK         0.0216 
     26 CB        -56.2072  -30.2651   17.2608 C.3       12 UNK        -0.1964 
     27 N         -54.1679  -28.9355   16.8395 N.am      12 UNK        -0.4276 
     28 C         -53.0789  -29.7032   17.0131 C.2       12 UNK         0.5020 
     29 O         -53.0187  -30.8830   16.6629 O.2       12 UNK        -0.5489 
     30 CA        -51.8429  -29.0417   17.6573 C.3       11 UNK         0.0294 
     31 CB        -50.5317  -29.5787   17.0534 C.3       11 UNK        -0.2019 
     32 N         -51.8777  -27.5900   17.4805 N.am      11 UNK        -0.4493 
     33 C         -52.0736  -26.6782   18.4431 C.2       11 UNK         0.4932 
     34 O         -52.1547  -26.9534   19.6400 O.2       11 UNK        -0.5029 
     35 CA        -52.2372  -25.2086   17.9985 C.3       10 UNK         0.0280 
     36 CB        -50.9187  -24.4430   18.1899 C.3       10 UNK        -0.1976 
     37 N         -52.6812  -25.0591   16.6078 N.am      10 UNK        -0.4242 
     38 C         -53.8580  -25.4948   16.1276 C.2       10 UNK         0.5072 
     39 O         -54.7447  -25.9721   16.8357 O.2       10 UNK        -0.5224 
     40 CA        -54.0463  -25.4952   14.5981 C.3       9 UNK         0.0343 
     41 CB        -54.8241  -24.2509   14.1474 C.3       9 UNK        -0.2003 
     42 N         -52.7830  -25.5875   13.8566 N.am      9 UNK        -0.4272 
     43 C         -51.9040  -26.5974   13.9722 C.2       9 UNK         0.4988 
     44 O         -52.1599  -27.6277   14.5951 O.2       9 UNK        -0.5108 
     45 CA        -50.4954  -26.4344   13.3660 C.3       8 UNK         0.0248 
     46 CB        -50.2269  -27.4972   12.2877 C.3       8 UNK        -0.2001 
     47 N         -50.2259  -25.0959   12.8320 N.am      8 UNK        -0.4140 
     48 C         -50.1365  -23.9808   13.5781 C.2       8 UNK         0.5028 
     49 O         -50.1911  -23.9871   14.8090 O.2       8 UNK        -0.5428 
     50 CA        -50.0582  -22.6275   12.8435 C.3       7 UNK         0.0264 
     51 CB        -48.6232  -22.0798   12.8542 C.3       7 UNK        -0.1988 
     52 N         -50.5654  -22.6839   11.4672 N.am      7 UNK        -0.4454 
     53 C         -51.8475  -22.9365   11.1512 C.2       7 UNK         0.5027 
     54 O         -52.7353  -23.0343   11.9982 O.2       7 UNK        -0.5083 
     55 CA        -52.2055  -23.1856    9.6694 C.3       6 UNK         0.0844 
     56 C56       -53.0695  -22.0340    9.1000 C.3       14 UNK        -0.0967 
     57 S57       -53.4537  -22.2250    7.3240 S.3       14 UNK        -0.2604 
     58 C58       -54.8892  -23.3502    7.3555 C.3       14 UNK         0.0134 
     59 N         -51.0535  -23.5020    8.8183 N.am      6 UNK        -0.4116 
     60 C         -50.2818  -24.5864    8.9518 C.2       5 UNK         0.5034 
     61 O         -50.4026  -25.3897    9.8770 O.2       5 UNK        -0.5045 
     62 CA        -49.1558  -24.7965    7.9245 C.3       5 UNK         0.0224 
     63 CB        -49.0018  -23.6653    6.8826 C.3       5 UNK        -0.1978 
     64 N         -47.8873  -25.0616    8.6060 N.am      5 UNK        -0.4737 
     65 C         -47.2714  -24.2641    9.4922 C.2       4 UNK         0.5027 
     66 O         -47.6488  -23.1244    9.7665 O.2       4 UNK        -0.5211 
     67 CA        -46.0390  -24.8336   10.2073 C.3       4 UNK         0.0297 
     68 CB        -46.4649  -25.5804   11.4831 C.3       4 UNK        -0.1993 
     69 N         -45.3046  -25.7559    9.3422 N.am      4 UNK        -0.4486 
     70 C         -44.0260  -25.6246    8.9737 C.2       3 UNK         0.4961 
     71 O         -43.2878  -24.7100    9.3415 O.2       3 UNK        -0.5105 
     72 CA        -43.4721  -26.7076    8.0348 C.3       3 UNK         0.0299 
     73 CB        -43.0252  -27.9398    8.8385 C.3       3 UNK        -0.1972 
     74 N         -44.4405  -27.1160    7.0141 N.am      3 UNK        -0.4305 
     75 C         -44.7206  -26.4099    5.9086 C.2       2 UNK         0.5006 
     76 O         -44.1943  -25.3284    5.6433 O.2       2 UNK        -0.5106 
     77 CA        -45.7302  -27.0042    4.9103 C.3       2 UNK         0.0296 
     78 CB        -45.0003  -27.5171    3.6563 C.3       2 UNK        -0.2002 
     79 N         -46.5170  -28.1027    5.4827 N.am      2 UNK        -0.4032 
     80 C         -47.8425  -28.0692    5.6795 C.2       1 UNK         0.5000 
     81 O         -48.5584  -27.1215    5.3489 O.2       1 UNK        -0.5238 
     82 H82       -47.5380  -29.2240   10.7585 H         1 UNK         0.0889 
     83 H83       -45.9258  -29.5749   10.1327 H         1 UNK         0.0889 
     84 H84       -47.2360  -30.7337    9.8976 H         1 UNK         0.0889 
     85 H85       -48.0028  -30.6984    7.8585 H         1 UNK         0.3028 
     86 H86       -48.1575  -30.1298    5.6897 H         1 UNK         0.0864 
     87 H87       -50.3424  -30.3772    6.5574 H         1 UNK         0.0720 
     88 H88       -50.3802  -29.1478    5.3399 H         1 UNK         0.0720 
     89 H89       -51.6366  -26.8558    5.7745 H         1 UNK         0.0814 
     90 H90       -52.6035  -28.3096    5.8901 H         1 UNK         0.0814 
     91 H91       -52.9410  -24.9258    6.2423 H         1 UNK         0.1469 
     92 H92       -56.0632  -24.9979    9.1819 H         1 UNK         0.1381 
     93 H93       -53.7593  -28.5293    8.4128 H         1 UNK         0.1206 
     94 H94       -55.9035  -28.6600    9.6589 H         1 UNK         0.0813 
     95 H95       -56.8599  -27.2266    9.9076 H         1 UNK         0.0813 
     96 H96       -53.7362  -29.1063   10.6724 H         1 UNK         0.0638 
     97 H97       -52.9599  -28.2323   11.9526 H         1 UNK         0.0638 
     98 H98       -55.1205  -30.3472   12.2857 H         1 UNK         0.0568 
     99 H99       -52.8333  -31.1005   14.6296 H         1 UNK         0.3450 
    100 H100      -51.8738  -32.1790   13.6477 H         1 UNK         0.3450 
    101 H101      -53.8146  -28.6985   14.3768 H         1 UNK         0.2987 
    102 H102      -56.0494  -28.4165   16.1925 H         1 UNK         0.0766 
    103 H103      -56.2781  -29.8194   18.2530 H         1 UNK         0.0798 
    104 H104      -57.2258  -30.4622   16.9241 H         1 UNK         0.0798 
    105 H105      -55.7046  -31.2279   17.3606 H         1 UNK         0.0798 
    106 H106      -54.1133  -27.9637   17.1251 H         1 UNK         0.3198 
    107 H107      -51.8627  -29.2980   18.7184 H         1 UNK         0.0843 
    108 H108      -50.4297  -30.6510   17.2247 H         1 UNK         0.0831 
    109 H109      -49.6624  -29.0973   17.5013 H         1 UNK         0.0831 
    110 H110      -50.4888  -29.4147   15.9757 H         1 UNK         0.0831 
    111 H111      -51.8581  -27.2868   16.5116 H         1 UNK         0.3133 
    112 H112      -52.9948  -24.7539   18.6400 H         1 UNK         0.0566 
    113 H113      -50.1241  -24.8449   17.5596 H         1 UNK         0.0814 
    114 H114      -50.5774  -24.5032   19.2244 H         1 UNK         0.0814 
    115 H115      -51.0338  -23.3862   17.9483 H         1 UNK         0.0814 
    116 H116      -52.0008  -24.6823   15.9569 H         1 UNK         0.3091 
    117 H117      -54.6406  -26.3757   14.3492 H         1 UNK         0.0702 
    118 H118      -55.7791  -24.1757   14.6693 H         1 UNK         0.0785 
    119 H119      -55.0415  -24.2882   13.0795 H         1 UNK         0.0785 
    120 H120      -54.2681  -23.3336   14.3451 H         1 UNK         0.0785 
    121 H121      -52.5357  -24.7816   13.2945 H         1 UNK         0.2998 
    122 H122      -49.7890  -26.6079   14.1802 H         1 UNK         0.0697 
    123 H123      -50.8907  -27.3840   11.4309 H         1 UNK         0.0825 
    124 H124      -50.3742  -28.5037   12.6822 H         1 UNK         0.0825 
    125 H125      -49.2028  -27.4410   11.9207 H         1 UNK         0.0825 
    126 H126      -50.2080  -25.0192   11.8182 H         1 UNK         0.3029 
    127 H127      -50.6875  -21.9273   13.3974 H         1 UNK         0.0897 
    128 H128      -48.5649  -21.1047   12.3704 H         1 UNK         0.0792 
    129 H129      -48.2631  -21.9563   13.8765 H         1 UNK         0.0792 
    130 H130      -47.9293  -22.7480   12.3466 H         1 UNK         0.0792 
    131 H131      -49.8775  -22.6421   10.7255 H         1 UNK         0.3086 
    132 H132      -52.8257  -24.0832    9.6797 H         1 UNK         0.0583 
    133 H133      -54.0038  -21.9457    9.6583 H         1 UNK         0.1020 
    134 H134      -52.5552  -21.0789    9.2236 H         1 UNK         0.1020 
    135 H135      -55.6298  -22.9606    8.0557 H         1 UNK         0.0694 
    136 H136      -55.3610  -23.3329    6.3723 H         1 UNK         0.0694 
    137 H137      -50.8890  -22.8769    8.0433 H         1 UNK         0.2989 
    138 H138      -49.4119  -25.7096    7.3880 H         1 UNK         0.1055 
    139 H139      -48.1999  -23.8961    6.1809 H         1 UNK         0.0806 
    140 H140      -48.7694  -22.7044    7.3429 H         1 UNK         0.0806 
    141 H141      -49.9108  -23.5453    6.2917 H         1 UNK         0.0806 
    142 H142      -47.5603  -26.0215    8.5168 H         1 UNK         0.3061 
    143 H143      -45.4094  -23.9885   10.4935 H         1 UNK         0.0734 
    144 H144      -47.0389  -24.9353   12.1482 H         1 UNK         0.0832 
    145 H145      -47.0872  -26.4454   11.2518 H         1 UNK         0.0832 
    146 H146      -45.5979  -25.9328   12.0418 H         1 UNK         0.0832 
    147 H147      -45.8372  -26.5423    8.9761 H         1 UNK         0.3156 
    148 H148      -42.5923  -26.2976    7.5338 H         1 UNK         0.0589 
    149 H149      -43.8587  -28.4079    9.3630 H         1 UNK         0.0808 
    150 H150      -42.5689  -28.6907    8.1933 H         1 UNK         0.0808 
    151 H151      -42.2824  -27.6655    9.5890 H         1 UNK         0.0808 
    152 H152      -44.9572  -27.9628    7.1925 H         1 UNK         0.3098 
    153 H153      -46.3837  -26.1837    4.6066 H         1 UNK         0.0720 
    154 H154      -45.7064  -27.8815    2.9099 H         1 UNK         0.0791 
    155 H155      -44.4189  -26.7215    3.1880 H         1 UNK         0.0791 
    156 H156      -44.3117  -28.3294    3.8920 H         1 UNK         0.0791 
    157 H157      -46.0143  -28.9375    5.7476 H         1 UNK         0.3028 
@<TRIPOS>BOND
     1    1    2 1    
     2    1   82 1    
     3    1   83 1    
     4    1   84 1    
     5    2    3 2    
     6    2    4 am   BACKBONE|DICT|INTERRES
     7    4    5 1    
     8    4   85 1    
     9    5    6 1    
    10    5   80 1    
    11    5   86 1    
    12    6    7 1    
    13    6   87 1    
    14    6   88 1    
    15    7    8 1    
    16    8    9 1    
    17    8   89 1    
    18    8   90 1    
    19    9   10 ar   
    20    9   14 ar   
    21   10   11 ar   
    22   10   91 1    
    23   11   12 ar   
    24   11   58 1    
    25   12   13 ar   
    26   12   92 1    
    27   13   14 ar   
    28   13   15 1    
    29   14   93 1    
    30   15   16 1    
    31   15   94 1    
    32   15   95 1    
    33   16   17 1    
    34   17   18 1    
    35   17   96 1    
    36   17   97 1    
    37   18   19 1    
    38   18   22 1    
    39   18   98 1    
    40   19   20 am   BACKBONE|DICT|INTERRES
    41   19   21 2    
    42   20   99 1    
    43   20  100 1    
    44   22   23 am   BACKBONE|DICT|INTERRES
    45   22  101 1    
    46   23   24 2    
    47   23   25 1    
    48   25   26 1    
    49   25   27 1    
    50   25  102 1    
    51   26  103 1    
    52   26  104 1    
    53   26  105 1    
    54   27   28 am   BACKBONE|DICT|INTERRES
    55   27  106 1    
    56   28   29 2    
    57   28   30 1    
    58   30   31 1    
    59   30   32 1    
    60   30  107 1    
    61   31  108 1    
    62   31  109 1    
    63   31  110 1    
    64   32   33 am   BACKBONE|DICT|INTERRES
    65   32  111 1    
    66   33   34 2    
    67   33   35 1    
    68   35   36 1    
    69   35   37 1    
    70   35  112 1    
    71   36  113 1    
    72   36  114 1    
    73   36  115 1    
    74   37   38 am   BACKBONE|DICT|INTERRES
    75   37  116 1    
    76   38   39 2    
    77   38   40 1    
    78   40   41 1    
    79   40   42 1    
    80   40  117 1    
    81   41  118 1    
    82   41  119 1    
    83   41  120 1    
    84   42   43 am   BACKBONE|DICT|INTERRES
    85   42  121 1    
    86   43   44 2    
    87   43   45 1    
    88   45   46 1    
    89   45   47 1    
    90   45  122 1    
    91   46  123 1    
    92   46  124 1    
    93   46  125 1    
    94   47   48 am   BACKBONE|DICT|INTERRES
    95   47  126 1    
    96   48   49 2    
    97   48   50 1    
    98   50   51 1    
    99   50   52 1    
   100   50  127 1    
   101   51  128 1    
   102   51  129 1    
   103   51  130 1    
   104   52   53 am   BACKBONE|DICT|INTERRES
   105   52  131 1    
   106   53   54 2    
   107   53   55 1    
   108   55   56 1    
   109   55   59 1    
   110   55  132 1    
   111   56   57 1    
   112   56  133 1    
   113   56  134 1    
   114   57   58 1    
   115   58  135 1    
   116   58  136 1    
   117   59   60 am   BACKBONE|DICT|INTERRES
   118   59  137 1    
   119   60   61 2    
   120   60   62 1    
   121   62   63 1    
   122   62   64 1    
   123   62  138 1    
   124   63  139 1    
   125   63  140 1    
   126   63  141 1    
   127   64   65 am   BACKBONE|DICT|INTERRES
   128   64  142 1    
   129   65   66 2    
   130   65   67 1    
   131   67   68 1    
   132   67   69 1    
   133   67  143 1    
   134   68  144 1    
   135   68  145 1    
   136   68  146 1    
   137   69   70 am   BACKBONE|DICT|INTERRES
   138   69  147 1    
   139   70   71 2    
   140   70   72 1    
   141   72   73 1    
   142   72   74 1    
   143   72  148 1    
   144   73  149 1    
   145   73  150 1    
   146   73  151 1    
   147   74   75 am   BACKBONE|DICT|INTERRES
   148   74  152 1    
   149   75   76 2    
   150   75   77 1    
   151   77   78 1    
   152   77   79 1    
   153   77  153 1    
   154   78  154 1    
   155   78  155 1    
   156   78  156 1    
   157   79   80 am   BACKBONE|DICT|INTERRES
   158   79  157 1    
   159   80   81 2    
@<TRIPOS>SUBSTRUCTURE
     1 UNK         1 GROUP             0       ****    0 ROOT    
