@<TRIPOS>MOLECULE
3R207
157   159    1
SMALL
USER_CHARGES


@<TRIPOS>ATOM
      1 CA        -49.5918  -28.2818   10.4574 C.3       0 UNK        -0.1975 
      2 C         -49.5392  -27.9850    8.9668 C.2       0 UNK         0.4852 
      3 O         -49.1608  -26.8779    8.5828 O.2       0 UNK        -0.5216 
      4 N         -49.8930  -28.9744    8.1343 N.am      1 UNK        -0.4461 
      5 CA        -49.8270  -28.9434    6.6646 C.3       1 UNK         0.0864 
      6 C6        -50.8410  -27.9598    6.0174 C.3       14 UNK        -0.0898 
      7 S7        -52.5487  -28.5476    6.2540 S.3       14 UNK        -0.2598 
      8 C8        -53.5094  -27.1337    5.6315 C.3       14 UNK         0.0286 
      9 C9        -53.6799  -26.0513    6.6870 C.ar      14 UNK        -0.0844 
     10 C10       -53.1145  -24.7847    6.5102 C.ar      14 UNK        -0.0881 
     11 C11       -53.3107  -23.7823    7.4661 C.ar      14 UNK        -0.0643 
     12 C12       -54.0698  -24.0563    8.6075 C.ar      14 UNK        -0.0930 
     13 C13       -54.6218  -25.3247    8.8031 C.ar      14 UNK        -0.0827 
     14 C14       -54.4343  -26.3131    7.8341 C.ar      14 UNK        -0.1249 
     15 C15       -55.4202  -25.6290   10.0614 C.3       14 UNK         0.0141 
     16 S16       -54.3683  -25.6656   11.5461 S.3       14 UNK        -0.2313 
     17 C17       -53.2826  -27.0957   11.2193 C.3       14 UNK        -0.0915 
     18 CA        -53.8335  -28.4238   11.7998 C.3       13 UNK         0.0968 
     19 C         -52.9899  -29.6514   11.3423 C.2       13 UNK         0.5732 
     20 N         -52.5887  -30.5658   12.2182 N.am      13 UNK        -0.7310 
     21 O         -52.6948  -29.7885   10.1581 O.2       13 UNK        -0.5035 
     22 N         -54.0121  -28.3427   13.2575 N.am      13 UNK        -0.4233 
     23 C         -54.9944  -28.9447   13.9366 C.2       13 UNK         0.4989 
     24 O         -55.9078  -29.5773   13.4021 O.2       13 UNK        -0.4996 
     25 CA        -54.9316  -28.8314   15.4734 C.3       12 UNK         0.0216 
     26 CB        -55.9320  -29.7669   16.1852 C.3       12 UNK        -0.1964 
     27 N         -53.5817  -29.0249   16.0221 N.am      12 UNK        -0.4276 
     28 C         -52.7751  -30.0816   15.8357 C.2       12 UNK         0.5020 
     29 O         -53.0513  -31.0355   15.1072 O.2       12 UNK        -0.5489 
     30 CA        -51.4241  -30.0863   16.5711 C.3       11 UNK         0.0294 
     31 CB        -50.2772  -29.7492   15.6064 C.3       11 UNK        -0.2019 
     32 N         -51.3761  -29.1766   17.7187 N.am      11 UNK        -0.4493 
     33 C         -51.9128  -29.4294   18.9181 C.2       11 UNK         0.4932 
     34 O         -52.5399  -30.4558   19.1807 O.2       11 UNK        -0.5029 
     35 CA        -51.7108  -28.3732   20.0211 C.3       10 UNK         0.0280 
     36 CB        -50.2606  -28.3882   20.5444 C.3       10 UNK        -0.1976 
     37 N         -52.1410  -27.0121   19.6673 N.am      10 UNK        -0.4242 
     38 C         -51.6483  -26.1923   18.7292 C.2       10 UNK         0.5072 
     39 O         -50.7229  -26.4806   17.9658 O.2       10 UNK        -0.5224 
     40 CA        -52.2931  -24.8018   18.6344 C.3       9 UNK         0.0343 
     41 CB        -51.3369  -23.7226   19.1673 C.3       9 UNK        -0.2003 
     42 N         -52.6357  -24.5022   17.2467 N.am      9 UNK        -0.4272 
     43 C         -53.6774  -25.0347   16.5937 C.2       9 UNK         0.4988 
     44 O         -54.5240  -25.7511   17.1276 O.2       9 UNK        -0.5108 
     45 CA        -53.7790  -24.7364   15.0886 C.3       8 UNK         0.0248 
     46 CB        -54.5875  -23.4538   14.8395 C.3       8 UNK        -0.2001 
     47 N         -52.4643  -24.6183   14.4533 N.am      8 UNK        -0.4140 
     48 C         -51.6251  -25.6410   14.2549 C.2       8 UNK         0.5028 
     49 O         -51.9216  -26.8156   14.4831 O.2       8 UNK        -0.5428 
     50 CA        -50.2381  -25.2856   13.6870 C.3       7 UNK         0.0264 
     51 CB        -49.2013  -26.3933   13.9453 C.3       7 UNK        -0.1988 
     52 N         -50.2741  -25.0055   12.2514 N.am      7 UNK        -0.4454 
     53 C         -50.8133  -23.9239   11.6707 C.2       7 UNK         0.5027 
     54 O         -51.3735  -23.0232   12.3002 O.2       7 UNK        -0.5083 
     55 CA        -50.6560  -23.8287   10.1352 C.3       6 UNK         0.0844 
     56 C56       -51.0750  -22.4391    9.5771 C.3       14 UNK        -0.0967 
     57 S57       -50.9651  -22.3384    7.7552 S.3       14 UNK        -0.2604 
     58 C58       -52.7130  -22.3999    7.2578 C.3       14 UNK         0.0134 
     59 N         -49.3147  -24.2454    9.7023 N.am      6 UNK        -0.4116 
     60 C         -48.1495  -23.6585   10.0188 C.2       5 UNK         0.5034 
     61 O         -48.0360  -22.7071   10.7926 O.2       5 UNK        -0.5045 
     62 CA        -46.8896  -24.2232    9.3412 C.3       5 UNK         0.0224 
     63 CB        -46.2966  -25.3760   10.1673 C.3       5 UNK        -0.1978 
     64 N         -47.1422  -24.6816    7.9729 N.am      5 UNK        -0.4737 
     65 C         -47.4410  -23.8741    6.9458 C.2       4 UNK         0.5027 
     66 O         -47.4507  -22.6444    7.0249 O.2       4 UNK        -0.5211 
     67 CA        -47.7472  -24.5714    5.6056 C.3       4 UNK         0.0297 
     68 CB        -48.0524  -23.5825    4.4613 C.3       4 UNK        -0.1993 
     69 N         -46.6892  -25.5111    5.2168 N.am      4 UNK        -0.4486 
     70 C         -45.3792  -25.2468    5.0688 C.2       3 UNK         0.4961 
     71 O         -44.8972  -24.1147    5.1330 O.2       3 UNK        -0.5105 
     72 CA        -44.4400  -26.4428    4.7944 C.3       3 UNK         0.0299 
     73 CB        -43.0394  -26.2410    5.4124 C.3       3 UNK        -0.1972 
     74 N         -44.9922  -27.7470    5.1846 N.am      3 UNK        -0.4305 
     75 C         -45.3665  -28.1401    6.4113 C.2       2 UNK         0.5006 
     76 O         -45.2735  -27.4522    7.4292 O.2       2 UNK        -0.5106 
     77 CA        -46.0091  -29.5335    6.4966 C.3       2 UNK         0.0296 
     78 CB        -45.2962  -30.4052    7.5446 C.3       2 UNK        -0.2002 
     79 N         -47.4382  -29.4700    6.8141 N.am      2 UNK        -0.4032 
     80 C         -48.3781  -28.7755    6.1511 C.2       1 UNK         0.5000 
     81 O         -48.1391  -28.0573    5.1765 O.2       1 UNK        -0.5238 
     82 H82       -49.8661  -29.3175   10.6570 H         1 UNK         0.0889 
     83 H83       -50.3234  -27.6409   10.9406 H         1 UNK         0.0889 
     84 H84       -48.6188  -28.0980   10.9120 H         1 UNK         0.0889 
     85 H85       -50.2504  -29.8346    8.5275 H         1 UNK         0.3028 
     86 H86       -50.1045  -29.9471    6.3379 H         1 UNK         0.0864 
     87 H87       -50.6802  -27.8769    4.9411 H         1 UNK         0.0720 
     88 H88       -50.7348  -26.9534    6.4256 H         1 UNK         0.0720 
     89 H89       -54.4965  -27.4880    5.3312 H         1 UNK         0.0814 
     90 H90       -53.0404  -26.7385    4.7290 H         1 UNK         0.0814 
     91 H91       -52.5280  -24.5725    5.6267 H         1 UNK         0.1469 
     92 H92       -54.2225  -23.2885    9.3534 H         1 UNK         0.1381 
     93 H93       -54.8649  -27.2952    7.9750 H         1 UNK         0.1206 
     94 H94       -55.9459  -26.5808    9.9719 H         1 UNK         0.0813 
     95 H95       -56.1885  -24.8659   10.1923 H         1 UNK         0.0813 
     96 H96       -52.3144  -26.8750   11.6631 H         1 UNK         0.0638 
     97 H97       -53.1067  -27.1760   10.1462 H         1 UNK         0.0638 
     98 H98       -54.8122  -28.5771   11.3422 H         1 UNK         0.0568 
     99 H99       -52.8537  -30.5204   13.1962 H         1 UNK         0.3450 
    100 H100      -52.0546  -31.3519   11.8864 H         1 UNK         0.3450 
    101 H101      -53.2779  -27.8541   13.7675 H         1 UNK         0.2987 
    102 H102      -55.2208  -27.8072   15.7062 H         1 UNK         0.0766 
    103 H103      -56.9558  -29.5595   15.8713 H         1 UNK         0.0798 
    104 H104      -55.8939  -29.6373   17.2668 H         1 UNK         0.0798 
    105 H105      -55.7291  -30.8159   15.9659 H         1 UNK         0.0798 
    106 H106      -53.2247  -28.2664   16.5863 H         1 UNK         0.3198 
    107 H107      -51.2646  -31.1040   16.9344 H         1 UNK         0.0843 
    108 H108      -50.3568  -28.7297   15.2349 H         1 UNK         0.0831 
    109 H109      -50.2834  -30.4128   14.7405 H         1 UNK         0.0831 
    110 H110      -49.3063  -29.8552   16.0902 H         1 UNK         0.0831 
    111 H111      -50.9153  -28.2761   17.5930 H         1 UNK         0.3133 
    112 H112      -52.3525  -28.6697   20.8526 H         1 UNK         0.0566 
    113 H113      -50.1388  -27.7144   21.3924 H         1 UNK         0.0814 
    114 H114      -49.5430  -28.0934   19.7781 H         1 UNK         0.0814 
    115 H115      -49.9796  -29.3867   20.8820 H         1 UNK         0.0814 
    116 H116      -52.9241  -26.6702   20.2081 H         1 UNK         0.3091 
    117 H117      -53.2058  -24.7796   19.2342 H         1 UNK         0.0702 
    118 H118      -51.7902  -22.7322   19.1202 H         1 UNK         0.0785 
    119 H119      -50.4043  -23.6927   18.6019 H         1 UNK         0.0785 
    120 H120      -51.0791  -23.9114   20.2103 H         1 UNK         0.0785 
    121 H121      -51.9659  -23.9606   16.7214 H         1 UNK         0.2998 
    122 H122      -54.3096  -25.5687   14.6220 H         1 UNK         0.0697 
    123 H123      -54.1019  -22.5773   15.2702 H         1 UNK         0.0825 
    124 H124      -55.5817  -23.5281   15.2821 H         1 UNK         0.0825 
    125 H125      -54.7217  -23.2734   13.7726 H         1 UNK         0.0825 
    126 H126      -52.1891  -23.7057   14.1070 H         1 UNK         0.3029 
    127 H127      -49.8931  -24.3862   14.2019 H         1 UNK         0.0897 
    128 H128      -49.4630  -27.3219   13.4369 H         1 UNK         0.0792 
    129 H129      -49.1285  -26.6127   15.0116 H         1 UNK         0.0792 
    130 H130      -48.2078  -26.0949   13.6099 H         1 UNK         0.0792 
    131 H131      -49.8170  -25.6765   11.6540 H         1 UNK         0.3086 
    132 H132      -51.3437  -24.5693    9.7235 H         1 UNK         0.0583 
    133 H133      -52.0905  -22.1909    9.8892 H         1 UNK         0.1020 
    134 H134      -50.4406  -21.6558    9.9954 H         1 UNK         0.1020 
    135 H135      -53.2790  -21.6443    7.8049 H         1 UNK         0.0694 
    136 H136      -52.7861  -22.1278    6.2038 H         1 UNK         0.0694 
    137 H137      -49.2791  -25.0580    9.0904 H         1 UNK         0.2989 
    138 H138      -46.1526  -23.4182    9.2961 H         1 UNK         0.1055 
    139 H139      -46.9740  -26.2287   10.2180 H         1 UNK         0.0806 
    140 H140      -46.0906  -25.0591   11.1906 H         1 UNK         0.0806 
    141 H141      -45.3560  -25.7244    9.7398 H         1 UNK         0.0806 
    142 H142      -47.1499  -25.6833    7.8247 H         1 UNK         0.3061 
    143 H143      -48.6448  -25.1699    5.7717 H         1 UNK         0.0734 
    144 H144      -47.2037  -22.9315    4.2501 H         1 UNK         0.0832 
    145 H145      -48.3112  -24.1075    3.5420 H         1 UNK         0.0832 
    146 H146      -48.8973  -22.9421    4.7184 H         1 UNK         0.0832 
    147 H147      -46.9916  -26.4796    5.1391 H         1 UNK         0.3156 
    148 H148      -44.3179  -26.4814    3.7110 H         1 UNK         0.0589 
    149 H149      -42.3858  -27.0873    5.2013 H         1 UNK         0.0808 
    150 H150      -42.5547  -25.3521    5.0069 H         1 UNK         0.0808 
    151 H151      -43.0898  -26.1171    6.4947 H         1 UNK         0.0808 
    152 H152      -45.1588  -28.3856    4.4185 H         1 UNK         0.3098 
    153 H153      -45.9130  -30.0275    5.5276 H         1 UNK         0.0720 
    154 H154      -44.2284  -30.4747    7.3324 H         1 UNK         0.0791 
    155 H155      -45.6902  -31.4217    7.5526 H         1 UNK         0.0791 
    156 H156      -45.4017  -29.9954    8.5502 H         1 UNK         0.0791 
    157 H157      -47.7361  -30.0025    7.6178 H         1 UNK         0.3028 
@<TRIPOS>BOND
     1    1    2 1    
     2    1   82 1    
     3    1   83 1    
     4    1   84 1    
     5    2    3 2    
     6    2    4 am   BACKBONE|DICT|INTERRES
     7    4    5 1    
     8    4   85 1    
     9    5    6 1    
    10    5   80 1    
    11    5   86 1    
    12    6    7 1    
    13    6   87 1    
    14    6   88 1    
    15    7    8 1    
    16    8    9 1    
    17    8   89 1    
    18    8   90 1    
    19    9   10 ar   
    20    9   14 ar   
    21   10   11 ar   
    22   10   91 1    
    23   11   12 ar   
    24   11   58 1    
    25   12   13 ar   
    26   12   92 1    
    27   13   14 ar   
    28   13   15 1    
    29   14   93 1    
    30   15   16 1    
    31   15   94 1    
    32   15   95 1    
    33   16   17 1    
    34   17   18 1    
    35   17   96 1    
    36   17   97 1    
    37   18   19 1    
    38   18   22 1    
    39   18   98 1    
    40   19   20 am   BACKBONE|DICT|INTERRES
    41   19   21 2    
    42   20   99 1    
    43   20  100 1    
    44   22   23 am   BACKBONE|DICT|INTERRES
    45   22  101 1    
    46   23   24 2    
    47   23   25 1    
    48   25   26 1    
    49   25   27 1    
    50   25  102 1    
    51   26  103 1    
    52   26  104 1    
    53   26  105 1    
    54   27   28 am   BACKBONE|DICT|INTERRES
    55   27  106 1    
    56   28   29 2    
    57   28   30 1    
    58   30   31 1    
    59   30   32 1    
    60   30  107 1    
    61   31  108 1    
    62   31  109 1    
    63   31  110 1    
    64   32   33 am   BACKBONE|DICT|INTERRES
    65   32  111 1    
    66   33   34 2    
    67   33   35 1    
    68   35   36 1    
    69   35   37 1    
    70   35  112 1    
    71   36  113 1    
    72   36  114 1    
    73   36  115 1    
    74   37   38 am   BACKBONE|DICT|INTERRES
    75   37  116 1    
    76   38   39 2    
    77   38   40 1    
    78   40   41 1    
    79   40   42 1    
    80   40  117 1    
    81   41  118 1    
    82   41  119 1    
    83   41  120 1    
    84   42   43 am   BACKBONE|DICT|INTERRES
    85   42  121 1    
    86   43   44 2    
    87   43   45 1    
    88   45   46 1    
    89   45   47 1    
    90   45  122 1    
    91   46  123 1    
    92   46  124 1    
    93   46  125 1    
    94   47   48 am   BACKBONE|DICT|INTERRES
    95   47  126 1    
    96   48   49 2    
    97   48   50 1    
    98   50   51 1    
    99   50   52 1    
   100   50  127 1    
   101   51  128 1    
   102   51  129 1    
   103   51  130 1    
   104   52   53 am   BACKBONE|DICT|INTERRES
   105   52  131 1    
   106   53   54 2    
   107   53   55 1    
   108   55   56 1    
   109   55   59 1    
   110   55  132 1    
   111   56   57 1    
   112   56  133 1    
   113   56  134 1    
   114   57   58 1    
   115   58  135 1    
   116   58  136 1    
   117   59   60 am   BACKBONE|DICT|INTERRES
   118   59  137 1    
   119   60   61 2    
   120   60   62 1    
   121   62   63 1    
   122   62   64 1    
   123   62  138 1    
   124   63  139 1    
   125   63  140 1    
   126   63  141 1    
   127   64   65 am   BACKBONE|DICT|INTERRES
   128   64  142 1    
   129   65   66 2    
   130   65   67 1    
   131   67   68 1    
   132   67   69 1    
   133   67  143 1    
   134   68  144 1    
   135   68  145 1    
   136   68  146 1    
   137   69   70 am   BACKBONE|DICT|INTERRES
   138   69  147 1    
   139   70   71 2    
   140   70   72 1    
   141   72   73 1    
   142   72   74 1    
   143   72  148 1    
   144   73  149 1    
   145   73  150 1    
   146   73  151 1    
   147   74   75 am   BACKBONE|DICT|INTERRES
   148   74  152 1    
   149   75   76 2    
   150   75   77 1    
   151   77   78 1    
   152   77   79 1    
   153   77  153 1    
   154   78  154 1    
   155   78  155 1    
   156   78  156 1    
   157   79   80 am   BACKBONE|DICT|INTERRES
   158   79  157 1    
   159   80   81 2    
@<TRIPOS>SUBSTRUCTURE
     1 UNK         1 GROUP             0       ****    0 ROOT    
