@<TRIPOS>MOLECULE
3R207
157   159    1
SMALL
USER_CHARGES


@<TRIPOS>ATOM
      1 CA        -48.4064  -31.5774    1.7489 C.3       0 UNK        -0.1975 
      2 C         -48.8724  -30.4432    2.6501 C.2       0 UNK         0.4852 
      3 O         -48.6185  -29.2766    2.3458 O.2       0 UNK        -0.5216 
      4 N         -49.5580  -30.7751    3.7520 N.am      1 UNK        -0.4461 
      5 CA        -50.0250  -29.8238    4.7647 C.3       1 UNK         0.0864 
      6 C6        -51.0947  -30.4716    5.6823 C.3       14 UNK        -0.0898 
      7 S7        -52.2138  -29.2416    6.4263 S.3       14 UNK        -0.2598 
      8 C8        -51.5401  -29.1225    8.1152 C.3       14 UNK         0.0286 
      9 C9        -52.1914  -27.9908    8.8973 C.ar      14 UNK        -0.0844 
     10 C10       -52.1023  -26.6725    8.4356 C.ar      14 UNK        -0.0881 
     11 C11       -52.7311  -25.6334    9.1267 C.ar      14 UNK        -0.0643 
     12 C12       -53.4330  -25.9174   10.3012 C.ar      14 UNK        -0.0930 
     13 C13       -53.5097  -27.2250   10.7855 C.ar      14 UNK        -0.0827 
     14 C14       -52.8860  -28.2589   10.0811 C.ar      14 UNK        -0.1249 
     15 C15       -54.2631  -27.5061   12.0748 C.3       14 UNK         0.0141 
     16 S16       -56.0514  -27.6868   11.7851 S.3       14 UNK        -0.2313 
     17 C17       -56.1584  -29.4237   11.2298 C.3       14 UNK        -0.0915 
     18 CA        -56.8949  -30.3438   12.2479 C.3       13 UNK         0.0968 
     19 C         -57.0813  -31.7976   11.7161 C.2       13 UNK         0.5732 
     20 N         -57.0530  -32.8207   12.5622 N.am      13 UNK        -0.7310 
     21 O         -57.2916  -32.0051   10.5230 O.2       13 UNK        -0.5035 
     22 N         -56.3534  -30.2495   13.6157 N.am      13 UNK        -0.4233 
     23 C         -55.1170  -30.5631   14.0185 C.2       13 UNK         0.4989 
     24 O         -54.2509  -31.0298   13.2767 O.2       13 UNK        -0.4996 
     25 CA        -54.7967  -30.2861   15.5025 C.3       12 UNK         0.0216 
     26 CB        -53.3598  -30.6957   15.8786 C.3       12 UNK        -0.1964 
     27 N         -55.0125  -28.8820   15.8823 N.am      12 UNK        -0.4276 
     28 C         -56.2102  -28.3120   16.0924 C.2       12 UNK         0.5020 
     29 O         -57.2736  -28.9172   15.9409 O.2       12 UNK        -0.5489 
     30 CA        -56.2635  -26.8454   16.5583 C.3       11 UNK         0.0294 
     31 CB        -56.7722  -26.7665   18.0079 C.3       11 UNK        -0.2019 
     32 N         -54.9698  -26.1670   16.4817 N.am      11 UNK        -0.4493 
     33 C         -54.5654  -25.3810   15.4764 C.2       11 UNK         0.4932 
     34 O         -55.2553  -25.1119   14.4939 O.2       11 UNK        -0.5029 
     35 CA        -53.1547  -24.7735   15.5951 C.3       10 UNK         0.0280 
     36 CB        -52.7924  -24.3699   17.0410 C.3       10 UNK        -0.1976 
     37 N         -52.1016  -25.6183   15.0222 N.am      10 UNK        -0.4242 
     38 C         -51.8060  -26.8893   15.3359 C.2       10 UNK         0.5072 
     39 O         -52.4593  -27.5800   16.1183 O.2       10 UNK        -0.5224 
     40 CA        -50.5333  -27.4785   14.7059 C.3       9 UNK         0.0343 
     41 CB        -50.7599  -27.8488   13.2312 C.3       9 UNK        -0.2003 
     42 N         -49.3874  -26.5739   14.8199 N.am      9 UNK        -0.4272 
     43 C         -48.8131  -26.1986   15.9739 C.2       9 UNK         0.4988 
     44 O         -49.1409  -26.6300   17.0796 O.2       9 UNK        -0.5108 
     45 CA        -47.6875  -25.1556   15.8827 C.3       8 UNK         0.0248 
     46 CB        -46.3450  -25.8187   15.5308 C.3       8 UNK        -0.2001 
     47 N         -48.0017  -24.1101   14.9074 N.am      8 UNK        -0.4140 
     48 C         -48.8393  -23.0890   15.1395 C.2       8 UNK         0.5028 
     49 O         -49.3558  -22.8625   16.2338 O.2       8 UNK        -0.5428 
     50 CA        -49.1648  -22.1612   13.9551 C.3       7 UNK         0.0264 
     51 CB        -48.2474  -20.9282   13.9679 C.3       7 UNK        -0.1988 
     52 N         -49.0700  -22.8241   12.6512 N.am      7 UNK        -0.4454 
     53 C         -49.9288  -23.7631   12.2193 C.2       7 UNK         0.5027 
     54 O         -50.8784  -24.1718   12.8897 O.2       7 UNK        -0.5083 
     55 CA        -49.6368  -24.4025   10.8389 C.3       6 UNK         0.0844 
     56 C56       -50.1624  -23.5364    9.6631 C.3       14 UNK        -0.0967 
     57 S57       -51.9202  -23.0487    9.7523 S.3       14 UNK        -0.2604 
     58 C58       -52.6913  -24.2117    8.5854 C.3       14 UNK         0.0134 
     59 N         -48.2047  -24.6793   10.6647 N.am      6 UNK        -0.4116 
     60 C         -47.4380  -25.3898   11.5080 C.2       5 UNK         0.5034 
     61 O         -47.8952  -26.0438   12.4436 O.2       5 UNK        -0.5045 
     62 CA        -45.9046  -25.3016   11.3563 C.3       5 UNK         0.0224 
     63 CB        -45.2957  -26.6519   10.9439 C.3       5 UNK        -0.1978 
     64 N         -45.4351  -24.2501   10.4477 N.am      5 UNK        -0.4737 
     65 C         -45.6161  -22.9323   10.6230 C.2       4 UNK         0.5027 
     66 O         -46.1697  -22.4474   11.6101 O.2       4 UNK        -0.5211 
     67 CA        -45.1757  -22.0112    9.4688 C.3       4 UNK         0.0297 
     68 CB        -43.7515  -21.4897    9.7154 C.3       4 UNK        -0.1993 
     69 N         -45.2453  -22.6373    8.1391 N.am      4 UNK        -0.4486 
     70 C         -46.3513  -23.1595    7.5866 C.2       3 UNK         0.4961 
     71 O         -47.4420  -23.1754    8.1565 O.2       3 UNK        -0.5105 
     72 CA        -46.2257  -23.8242    6.2040 C.3       3 UNK         0.0299 
     73 CB        -44.8421  -23.6540    5.5422 C.3       3 UNK        -0.1972 
     74 N         -46.5110  -25.2499    6.3597 N.am      3 UNK        -0.4305 
     75 C         -47.7027  -25.8294    6.1709 C.2       2 UNK         0.5006 
     76 O         -48.6953  -25.2680    5.6998 O.2       2 UNK        -0.5106 
     77 CA        -47.8064  -27.2843    6.6355 C.3       2 UNK         0.0296 
     78 CB        -48.1417  -27.3418    8.1372 C.3       2 UNK        -0.2002 
     79 N         -48.8399  -27.9737    5.8685 N.am      2 UNK        -0.4032 
     80 C         -48.8337  -29.2806    5.5821 C.2       1 UNK         0.5000 
     81 O         -47.9537  -30.0608    5.9586 O.2       1 UNK        -0.5238 
     82 H82       -47.3201  -31.5662    1.6638 H         1 UNK         0.0889 
     83 H83       -48.8281  -31.4611    0.7509 H         1 UNK         0.0889 
     84 H84       -48.7064  -32.5526    2.1320 H         1 UNK         0.0889 
     85 H85       -49.7060  -31.7509    3.9666 H         1 UNK         0.3028 
     86 H86       -50.4860  -28.9916    4.2270 H         1 UNK         0.0864 
     87 H87       -51.7302  -31.1377    5.0961 H         1 UNK         0.0720 
     88 H88       -50.6450  -31.1007    6.4536 H         1 UNK         0.0720 
     89 H89       -50.4653  -28.9570    8.0770 H         1 UNK         0.0814 
     90 H90       -51.6864  -30.0783    8.6209 H         1 UNK         0.0814 
     91 H91       -51.5657  -26.4627    7.5203 H         1 UNK         0.1469 
     92 H92       -53.9220  -25.1166   10.8395 H         1 UNK         0.1381 
     93 H93       -52.9465  -29.2726   10.4526 H         1 UNK         0.1206 
     94 H94       -53.8702  -28.3958   12.5650 H         1 UNK         0.0813 
     95 H95       -54.0965  -26.6847   12.7704 H         1 UNK         0.0813 
     96 H96       -56.6837  -29.4200   10.2734 H         1 UNK         0.0638 
     97 H97       -55.1621  -29.8122   11.0193 H         1 UNK         0.0638 
     98 H98       -57.9130  -29.9626   12.3308 H         1 UNK         0.0568 
     99 H99       -56.8957  -32.6664   13.5447 H         1 UNK         0.3450 
    100 H100      -57.1865  -33.7556   12.2107 H         1 UNK         0.3450 
    101 H101      -56.9754  -29.8512   14.3145 H         1 UNK         0.2987 
    102 H102      -55.4750  -30.9055   16.0931 H         1 UNK         0.0766 
    103 H103      -53.1559  -30.5114   16.9335 H         1 UNK         0.0798 
    104 H104      -52.6182  -30.1500   15.2941 H         1 UNK         0.0798 
    105 H105      -53.1967  -31.7591   15.6983 H         1 UNK         0.0798 
    106 H106      -54.1719  -28.3185   15.9997 H         1 UNK         0.3198 
    107 H107      -56.9860  -26.3332   15.9190 H         1 UNK         0.0843 
    108 H108      -56.1024  -27.2778   18.7006 H         1 UNK         0.0831 
    109 H109      -57.7552  -27.2300   18.1038 H         1 UNK         0.0831 
    110 H110      -56.8714  -25.7322   18.3375 H         1 UNK         0.0831 
    111 H111      -54.3051  -26.3673   17.2168 H         1 UNK         0.3133 
    112 H112      -53.1620  -23.8603   14.9978 H         1 UNK         0.0566 
    113 H113      -51.8764  -23.7791   17.0598 H         1 UNK         0.0814 
    114 H114      -53.5774  -23.7582   17.4878 H         1 UNK         0.0814 
    115 H115      -52.6346  -25.2323   17.6892 H         1 UNK         0.0814 
    116 H116      -51.5360  -25.1622   14.3074 H         1 UNK         0.3091 
    117 H117      -50.2858  -28.3929   15.2491 H         1 UNK         0.0702 
    118 H118      -51.5503  -28.5936   13.1356 H         1 UNK         0.0785 
    119 H119      -49.8607  -28.2755   12.7866 H         1 UNK         0.0785 
    120 H120      -51.0469  -26.9839   12.6319 H         1 UNK         0.0785 
    121 H121      -48.9928  -26.2294   13.9484 H         1 UNK         0.2998 
    122 H122      -47.5811  -24.6915   16.8658 H         1 UNK         0.0697 
    123 H123      -46.3816  -26.3429   14.5760 H         1 UNK         0.0825 
    124 H124      -46.0672  -26.5517   16.2893 H         1 UNK         0.0825 
    125 H125      -45.5402  -25.0850   15.4813 H         1 UNK         0.0825 
    126 H126      -47.6446  -24.2346   13.9717 H         1 UNK         0.3029 
    127 H127      -50.1948  -21.8205   14.0837 H         1 UNK         0.0897 
    128 H128      -48.5076  -20.2306   13.1717 H         1 UNK         0.0792 
    129 H129      -47.1991  -21.2030   13.8444 H         1 UNK         0.0792 
    130 H130      -48.3334  -20.3884   14.9120 H         1 UNK         0.0792 
    131 H131      -48.2704  -22.5795   12.0765 H         1 UNK         0.3086 
    132 H132      -50.1548  -25.3633   10.8098 H         1 UNK         0.0583 
    133 H133      -49.5845  -22.6127    9.5983 H         1 UNK         0.1020 
    134 H134      -49.9855  -24.0559    8.7195 H         1 UNK         0.1020 
    135 H135      -53.7135  -23.8841    8.3914 H         1 UNK         0.0694 
    136 H136      -52.1690  -24.1658    7.6284 H         1 UNK         0.0694 
    137 H137      -47.7520  -24.1769    9.9080 H         1 UNK         0.2989 
    138 H138      -45.5223  -25.0598   12.3505 H         1 UNK         0.1055 
    139 H139      -45.6737  -27.4629   11.5687 H         1 UNK         0.0806 
    140 H140      -44.2115  -26.6424   11.0575 H         1 UNK         0.0806 
    141 H141      -45.5155  -26.9070    9.9087 H         1 UNK         0.0806 
    142 H142      -44.9687  -24.5513    9.6048 H         1 UNK         0.3061 
    143 H143      -45.8563  -21.1572    9.4624 H         1 UNK         0.0734 
    144 H144      -43.4604  -20.7556    8.9638 H         1 UNK         0.0832 
    145 H145      -43.6792  -20.9994   10.6875 H         1 UNK         0.0832 
    146 H146      -43.0169  -22.2958    9.7025 H         1 UNK         0.0832 
    147 H147      -44.3869  -22.6679    7.6078 H         1 UNK         0.3156 
    148 H148      -46.9696  -23.3591    5.5538 H         1 UNK         0.0589 
    149 H149      -44.0426  -24.1176    6.1215 H         1 UNK         0.0808 
    150 H150      -44.8302  -24.1090    4.5514 H         1 UNK         0.0808 
    151 H151      -44.5947  -22.6001    5.4061 H         1 UNK         0.0808 
    152 H152      -45.7709  -25.8065    6.7626 H         1 UNK         0.3098 
    153 H153      -46.8417  -27.7659    6.4600 H         1 UNK         0.0720 
    154 H154      -48.1230  -28.3650    8.5125 H         1 UNK         0.0791 
    155 H155      -49.1241  -26.9186    8.3485 H         1 UNK         0.0791 
    156 H156      -47.4215  -26.7707    8.7189 H         1 UNK         0.0791 
    157 H157      -49.5588  -27.3696    5.4900 H         1 UNK         0.3028 
@<TRIPOS>BOND
     1    1    2 1    
     2    1   82 1    
     3    1   83 1    
     4    1   84 1    
     5    2    3 2    
     6    2    4 am   BACKBONE|DICT|INTERRES
     7    4    5 1    
     8    4   85 1    
     9    5    6 1    
    10    5   80 1    
    11    5   86 1    
    12    6    7 1    
    13    6   87 1    
    14    6   88 1    
    15    7    8 1    
    16    8    9 1    
    17    8   89 1    
    18    8   90 1    
    19    9   10 ar   
    20    9   14 ar   
    21   10   11 ar   
    22   10   91 1    
    23   11   12 ar   
    24   11   58 1    
    25   12   13 ar   
    26   12   92 1    
    27   13   14 ar   
    28   13   15 1    
    29   14   93 1    
    30   15   16 1    
    31   15   94 1    
    32   15   95 1    
    33   16   17 1    
    34   17   18 1    
    35   17   96 1    
    36   17   97 1    
    37   18   19 1    
    38   18   22 1    
    39   18   98 1    
    40   19   20 am   BACKBONE|DICT|INTERRES
    41   19   21 2    
    42   20   99 1    
    43   20  100 1    
    44   22   23 am   BACKBONE|DICT|INTERRES
    45   22  101 1    
    46   23   24 2    
    47   23   25 1    
    48   25   26 1    
    49   25   27 1    
    50   25  102 1    
    51   26  103 1    
    52   26  104 1    
    53   26  105 1    
    54   27   28 am   BACKBONE|DICT|INTERRES
    55   27  106 1    
    56   28   29 2    
    57   28   30 1    
    58   30   31 1    
    59   30   32 1    
    60   30  107 1    
    61   31  108 1    
    62   31  109 1    
    63   31  110 1    
    64   32   33 am   BACKBONE|DICT|INTERRES
    65   32  111 1    
    66   33   34 2    
    67   33   35 1    
    68   35   36 1    
    69   35   37 1    
    70   35  112 1    
    71   36  113 1    
    72   36  114 1    
    73   36  115 1    
    74   37   38 am   BACKBONE|DICT|INTERRES
    75   37  116 1    
    76   38   39 2    
    77   38   40 1    
    78   40   41 1    
    79   40   42 1    
    80   40  117 1    
    81   41  118 1    
    82   41  119 1    
    83   41  120 1    
    84   42   43 am   BACKBONE|DICT|INTERRES
    85   42  121 1    
    86   43   44 2    
    87   43   45 1    
    88   45   46 1    
    89   45   47 1    
    90   45  122 1    
    91   46  123 1    
    92   46  124 1    
    93   46  125 1    
    94   47   48 am   BACKBONE|DICT|INTERRES
    95   47  126 1    
    96   48   49 2    
    97   48   50 1    
    98   50   51 1    
    99   50   52 1    
   100   50  127 1    
   101   51  128 1    
   102   51  129 1    
   103   51  130 1    
   104   52   53 am   BACKBONE|DICT|INTERRES
   105   52  131 1    
   106   53   54 2    
   107   53   55 1    
   108   55   56 1    
   109   55   59 1    
   110   55  132 1    
   111   56   57 1    
   112   56  133 1    
   113   56  134 1    
   114   57   58 1    
   115   58  135 1    
   116   58  136 1    
   117   59   60 am   BACKBONE|DICT|INTERRES
   118   59  137 1    
   119   60   61 2    
   120   60   62 1    
   121   62   63 1    
   122   62   64 1    
   123   62  138 1    
   124   63  139 1    
   125   63  140 1    
   126   63  141 1    
   127   64   65 am   BACKBONE|DICT|INTERRES
   128   64  142 1    
   129   65   66 2    
   130   65   67 1    
   131   67   68 1    
   132   67   69 1    
   133   67  143 1    
   134   68  144 1    
   135   68  145 1    
   136   68  146 1    
   137   69   70 am   BACKBONE|DICT|INTERRES
   138   69  147 1    
   139   70   71 2    
   140   70   72 1    
   141   72   73 1    
   142   72   74 1    
   143   72  148 1    
   144   73  149 1    
   145   73  150 1    
   146   73  151 1    
   147   74   75 am   BACKBONE|DICT|INTERRES
   148   74  152 1    
   149   75   76 2    
   150   75   77 1    
   151   77   78 1    
   152   77   79 1    
   153   77  153 1    
   154   78  154 1    
   155   78  155 1    
   156   78  156 1    
   157   79   80 am   BACKBONE|DICT|INTERRES
   158   79  157 1    
   159   80   81 2    
@<TRIPOS>SUBSTRUCTURE
     1 UNK         1 GROUP             0       ****    0 ROOT    
