@<TRIPOS>MOLECULE
3R207
157   159    1
SMALL
USER_CHARGES


@<TRIPOS>ATOM
      1 CA        -46.3725  -29.6751    3.7472 C.3       0 UNK        -0.1975 
      2 C         -46.7755  -28.7511    4.8867 C.2       0 UNK         0.4852 
      3 O         -46.2455  -27.6452    4.9935 O.2       0 UNK        -0.5216 
      4 N         -47.7095  -29.1955    5.7401 N.am      1 UNK        -0.4461 
      5 CA        -48.2064  -28.4379    6.8962 C.3       1 UNK         0.0864 
      6 C6        -49.5768  -28.9743    7.3807 C.3       14 UNK        -0.0898 
      7 S7        -50.5760  -27.6766    8.1838 S.3       14 UNK        -0.2598 
      8 C8        -52.1671  -27.8623    7.3234 C.3       14 UNK         0.0286 
      9 C9        -53.2189  -26.9750    7.9660 C.ar      14 UNK        -0.0844 
     10 C10       -53.4922  -25.7078    7.4464 C.ar      14 UNK        -0.0881 
     11 C11       -54.4154  -24.8692    8.0778 C.ar      14 UNK        -0.0643 
     12 C12       -55.0856  -25.3204    9.2204 C.ar      14 UNK        -0.0930 
     13 C13       -54.8357  -26.5946    9.7409 C.ar      14 UNK        -0.0827 
     14 C14       -53.8990  -27.4148    9.1040 C.ar      14 UNK        -0.1249 
     15 C15       -55.5396  -27.0413   11.0201 C.3       14 UNK         0.0141 
     16 S16       -56.3184  -28.6843   10.9064 S.3       14 UNK        -0.2313 
     17 C17       -54.9701  -29.7839   11.4657 C.3       14 UNK        -0.0915 
     18 CA        -55.3053  -30.5199   12.7911 C.3       13 UNK         0.0968 
     19 C         -54.3167  -31.6887   13.0822 C.2       13 UNK         0.5732 
     20 N         -53.8673  -31.9044   14.3133 N.am      13 UNK        -0.7310 
     21 O         -53.9606  -32.4374   12.1753 O.2       13 UNK        -0.5035 
     22 N         -55.4257  -29.5811   13.9191 N.am      13 UNK        -0.4233 
     23 C         -56.4258  -29.5805   14.8091 C.2       13 UNK         0.4989 
     24 O         -57.4187  -30.3062   14.7228 O.2       13 UNK        -0.4996 
     25 CA        -56.2861  -28.6166   16.0078 C.3       12 UNK         0.0216 
     26 CB        -57.2711  -28.9376   17.1520 C.3       12 UNK        -0.1964 
     27 N         -54.9174  -28.5158   16.5326 N.am      12 UNK        -0.4276 
     28 C         -54.1253  -29.5173   16.9522 C.2       12 UNK         0.5020 
     29 O         -54.4718  -30.6993   16.9542 O.2       12 UNK        -0.5489 
     30 CA        -52.6941  -29.1647   17.4044 C.3       11 UNK         0.0294 
     31 CB        -51.6608  -30.0756   16.7163 C.3       11 UNK        -0.2019 
     32 N         -52.3557  -27.7743   17.1012 N.am      11 UNK        -0.4493 
     33 C         -52.3232  -26.7653   17.9824 C.2       11 UNK         0.4932 
     34 O         -52.4948  -26.9052   19.1932 O.2       11 UNK        -0.5029 
     35 CA        -52.0873  -25.3514   17.4138 C.3       10 UNK         0.0280 
     36 CB        -50.6145  -24.9461   17.5798 C.3       10 UNK        -0.1976 
     37 N         -52.4749  -25.2234   16.0035 N.am      10 UNK        -0.4242 
     38 C         -53.7383  -25.3247   15.5572 C.2       10 UNK         0.5072 
     39 O         -54.7102  -25.4627   16.2998 O.2       10 UNK        -0.5224 
     40 CA        -53.9607  -25.3790   14.0357 C.3       9 UNK         0.0343 
     41 CB        -54.3212  -23.9919   13.4852 C.3       9 UNK        -0.2003 
     42 N         -52.8110  -25.9254   13.3069 N.am      9 UNK        -0.4272 
     43 C         -52.3575  -27.1825   13.4480 C.2       9 UNK         0.4988 
     44 O         -52.9600  -28.0371   14.0988 O.2       9 UNK        -0.5108 
     45 CA        -51.0002  -27.5574   12.8195 C.3       8 UNK         0.0248 
     46 CB        -51.1843  -28.5746   11.6854 C.3       8 UNK        -0.2001 
     47 N         -50.2168  -26.4185   12.3316 N.am      8 UNK        -0.4140 
     48 C         -49.7231  -25.4383   13.1023 C.2       8 UNK         0.5028 
     49 O         -49.8548  -25.4034   14.3267 O.2       8 UNK        -0.5428 
     50 CA        -49.0275  -24.2670   12.3849 C.3       7 UNK         0.0264 
     51 CB        -47.5181  -24.5342   12.2826 C.3       7 UNK        -0.1988 
     52 N         -49.5684  -23.9515   11.0527 N.am      7 UNK        -0.4454 
     53 C         -50.8564  -23.6593   10.7934 C.2       7 UNK         0.5027 
     54 O         -51.7258  -23.6630   11.6657 O.2       7 UNK        -0.5083 
     55 CA        -51.2565  -23.3524    9.3301 C.3       6 UNK         0.0844 
     56 C56       -52.5804  -22.5401    9.2248 C.3       14 UNK        -0.0967 
     57 S57       -53.1774  -22.4283    7.5012 S.3       14 UNK        -0.2604 
     58 C58       -54.6778  -23.4676    7.5398 C.3       14 UNK         0.0134 
     59 N         -50.1561  -22.7794    8.5455 N.am      6 UNK        -0.4116 
     60 C         -49.5633  -21.5917    8.7391 C.2       5 UNK         0.5034 
     61 O         -49.9049  -20.7875    9.6082 O.2       5 UNK        -0.5045 
     62 CA        -48.3757  -21.2562    7.8082 C.3       5 UNK         0.0224 
     63 CB        -47.4005  -20.2435    8.4463 C.3       5 UNK        -0.1978 
     64 N         -47.6327  -22.4322    7.3206 N.am      5 UNK        -0.4737 
     65 C         -47.0505  -23.3812    8.0695 C.2       4 UNK         0.5027 
     66 O         -47.1420  -23.4239    9.2975 O.2       4 UNK        -0.5211 
     67 CA        -46.3147  -24.5050    7.3180 C.3       4 UNK         0.0297 
     68 CB        -45.5410  -24.0220    6.0707 C.3       4 UNK        -0.1993 
     69 N         -45.4671  -25.2887    8.2222 N.am      4 UNK        -0.4486 
     70 C         -44.3098  -24.9337    8.8017 C.2       3 UNK         0.4961 
     71 O         -43.7164  -23.8791    8.5708 O.2       3 UNK        -0.5105 
     72 CA        -43.6974  -25.9151    9.8251 C.3       3 UNK         0.0299 
     73 CB        -43.7262  -25.3105   11.2390 C.3       3 UNK        -0.1972 
     74 N         -44.3618  -27.2217    9.8570 N.am      3 UNK        -0.4305 
     75 C         -44.2070  -28.1878    8.9417 C.2       2 UNK         0.5006 
     76 O         -43.4064  -28.1276    8.0080 O.2       2 UNK        -0.5106 
     77 CA        -45.1273  -29.4181    9.0602 C.3       2 UNK         0.0296 
     78 CB        -45.6316  -29.6916   10.4967 C.3       2 UNK        -0.2002 
     79 N         -46.2487  -29.3319    8.1159 N.am      2 UNK        -0.4032 
     80 C         -47.1816  -28.3663    8.0520 C.2       1 UNK         0.5000 
     81 O         -47.2411  -27.4272    8.8478 O.2       1 UNK        -0.5238 
     82 H82       -46.5674  -29.1945    2.7888 H         1 UNK         0.0889 
     83 H83       -46.9199  -30.6172    3.7714 H         1 UNK         0.0889 
     84 H84       -45.3077  -29.8995    3.8054 H         1 UNK         0.0889 
     85 H85       -48.1190  -30.1085    5.5973 H         1 UNK         0.3028 
     86 H86       -48.3530  -27.4118    6.5504 H         1 UNK         0.0864 
     87 H87       -50.1447  -29.3584    6.5317 H         1 UNK         0.0720 
     88 H88       -49.4633  -29.8174    8.0652 H         1 UNK         0.0720 
     89 H89       -52.4878  -28.9045    7.3651 H         1 UNK         0.0814 
     90 H90       -52.0448  -27.6136    6.2680 H         1 UNK         0.0814 
     91 H91       -52.9637  -25.3578    6.5700 H         1 UNK         0.1469 
     92 H92       -55.7941  -24.6698    9.7148 H         1 UNK         0.1381 
     93 H93       -53.6805  -28.3959    9.4964 H         1 UNK         0.1206 
     94 H94       -54.8208  -27.0430   11.8341 H         1 UNK         0.0813 
     95 H95       -56.3127  -26.3238   11.2986 H         1 UNK         0.0813 
     96 H96       -54.7956  -30.4953   10.6568 H         1 UNK         0.0638 
     97 H97       -54.0442  -29.2218   11.5804 H         1 UNK         0.0638 
     98 H98       -56.2635  -31.0175   12.6346 H         1 UNK         0.0568 
     99 H99       -54.1868  -31.3526   15.1019 H         1 UNK         0.3450 
    100 H100      -53.2370  -32.6739   14.4695 H         1 UNK         0.3450 
    101 H101      -54.6146  -28.9900   14.0815 H         1 UNK         0.2987 
    102 H102      -56.5379  -27.6264   15.6249 H         1 UNK         0.0766 
    103 H103      -58.3044  -28.8965   16.8053 H         1 UNK         0.0798 
    104 H104      -57.1772  -28.2211   17.9680 H         1 UNK         0.0798 
    105 H105      -57.1030  -29.9349   17.5601 H         1 UNK         0.0798 
    106 H106      -54.5469  -27.5734   16.5706 H         1 UNK         0.3198 
    107 H107      -52.6442  -29.3413   18.4808 H         1 UNK         0.0843 
    108 H108      -51.7063  -29.9899   15.6297 H         1 UNK         0.0831 
    109 H109      -51.8313  -31.1234   16.9670 H         1 UNK         0.0831 
    110 H110      -50.6458  -29.8320   17.0301 H         1 UNK         0.0831 
    111 H111      -52.2310  -27.5648   16.1186 H         1 UNK         0.3133 
    112 H112      -52.6991  -24.6566   17.9929 H         1 UNK         0.0566 
    113 H113      -50.4358  -23.9345   17.2147 H         1 UNK         0.0814 
    114 H114      -49.9473  -25.6197   17.0404 H         1 UNK         0.0814 
    115 H115      -50.3198  -24.9687   18.6298 H         1 UNK         0.0814 
    116 H116      -51.7175  -25.1434   15.3317 H         1 UNK         0.3091 
    117 H117      -54.8128  -26.0396   13.8675 H         1 UNK         0.0702 
    118 H118      -54.5201  -24.0297   12.4138 H         1 UNK         0.0785 
    119 H119      -53.5196  -23.2714   13.6522 H         1 UNK         0.0785 
    120 H120      -55.2173  -23.6009   13.9690 H         1 UNK         0.0785 
    121 H121      -52.2831  -25.2651   12.7434 H         1 UNK         0.2998 
    122 H122      -50.4155  -28.0376   13.6066 H         1 UNK         0.0697 
    123 H123      -51.7867  -28.1627   10.8775 H         1 UNK         0.0825 
    124 H124      -51.6834  -29.4757   12.0443 H         1 UNK         0.0825 
    125 H125      -50.2267  -28.8838   11.2658 H         1 UNK         0.0825 
    126 H126      -50.0705  -26.3595   11.3338 H         1 UNK         0.3029 
    127 H127      -49.1747  -23.3827   13.0083 H         1 UNK         0.0897 
    128 H128      -47.2992  -25.3392   11.5794 H         1 UNK         0.0792 
    129 H129      -47.1002  -24.8182   13.2496 H         1 UNK         0.0792 
    130 H130      -46.9815  -23.6448   11.9520 H         1 UNK         0.0792 
    131 H131      -48.8868  -23.8821   10.3025 H         1 UNK         0.3086 
    132 H132      -51.4430  -24.3334    8.8916 H         1 UNK         0.0583 
    133 H133      -53.3635  -22.9873    9.8391 H         1 UNK         0.1020 
    134 H134      -52.4473  -21.5303    9.6154 H         1 UNK         0.1020 
    135 H135      -55.4383  -22.9592    8.1347 H         1 UNK         0.0694 
    136 H136      -55.0799  -23.5447    6.5288 H         1 UNK         0.0694 
    137 H137      -49.8007  -23.3619    7.8020 H         1 UNK         0.2989 
    138 H138      -48.8157  -20.7814    6.9296 H         1 UNK         0.1055 
    139 H139      -46.9650  -20.6307    9.3683 H         1 UNK         0.0806 
    140 H140      -47.9064  -19.3090    8.6923 H         1 UNK         0.0806 
    141 H141      -46.5836  -19.9971    7.7680 H         1 UNK         0.0806 
    142 H142      -47.5348  -22.4986    6.3163 H         1 UNK         0.3061 
    143 H143      -47.0867  -25.1954    6.9761 H         1 UNK         0.0734 
    144 H144      -44.8632  -23.1997    6.3023 H         1 UNK         0.0832 
    145 H145      -44.9511  -24.8306    5.6381 H         1 UNK         0.0832 
    146 H146      -46.2193  -23.6766    5.2904 H         1 UNK         0.0832 
    147 H147      -45.9087  -26.1430    8.5540 H         1 UNK         0.3156 
    148 H148      -42.6533  -26.0664    9.5433 H         1 UNK         0.0589 
    149 H149      -44.7455  -25.1237   11.5766 H         1 UNK         0.0808 
    150 H150      -43.2453  -25.9679   11.9636 H         1 UNK         0.0808 
    151 H151      -43.1960  -24.3576   11.2673 H         1 UNK         0.0808 
    152 H152      -45.0735  -27.3512   10.5620 H         1 UNK         0.3098 
    153 H153      -44.5286  -30.2782    8.7559 H         1 UNK         0.0720 
    154 H154      -46.1621  -30.6426   10.5455 H         1 UNK         0.0791 
    155 H155      -46.3133  -28.9222   10.8602 H         1 UNK         0.0791 
    156 H156      -44.7992  -29.7552   11.1989 H         1 UNK         0.0791 
    157 H157      -46.2632  -30.0373    7.3931 H         1 UNK         0.3028 
@<TRIPOS>BOND
     1    1    2 1    
     2    1   82 1    
     3    1   83 1    
     4    1   84 1    
     5    2    3 2    
     6    2    4 am   BACKBONE|DICT|INTERRES
     7    4    5 1    
     8    4   85 1    
     9    5    6 1    
    10    5   80 1    
    11    5   86 1    
    12    6    7 1    
    13    6   87 1    
    14    6   88 1    
    15    7    8 1    
    16    8    9 1    
    17    8   89 1    
    18    8   90 1    
    19    9   10 ar   
    20    9   14 ar   
    21   10   11 ar   
    22   10   91 1    
    23   11   12 ar   
    24   11   58 1    
    25   12   13 ar   
    26   12   92 1    
    27   13   14 ar   
    28   13   15 1    
    29   14   93 1    
    30   15   16 1    
    31   15   94 1    
    32   15   95 1    
    33   16   17 1    
    34   17   18 1    
    35   17   96 1    
    36   17   97 1    
    37   18   19 1    
    38   18   22 1    
    39   18   98 1    
    40   19   20 am   BACKBONE|DICT|INTERRES
    41   19   21 2    
    42   20   99 1    
    43   20  100 1    
    44   22   23 am   BACKBONE|DICT|INTERRES
    45   22  101 1    
    46   23   24 2    
    47   23   25 1    
    48   25   26 1    
    49   25   27 1    
    50   25  102 1    
    51   26  103 1    
    52   26  104 1    
    53   26  105 1    
    54   27   28 am   BACKBONE|DICT|INTERRES
    55   27  106 1    
    56   28   29 2    
    57   28   30 1    
    58   30   31 1    
    59   30   32 1    
    60   30  107 1    
    61   31  108 1    
    62   31  109 1    
    63   31  110 1    
    64   32   33 am   BACKBONE|DICT|INTERRES
    65   32  111 1    
    66   33   34 2    
    67   33   35 1    
    68   35   36 1    
    69   35   37 1    
    70   35  112 1    
    71   36  113 1    
    72   36  114 1    
    73   36  115 1    
    74   37   38 am   BACKBONE|DICT|INTERRES
    75   37  116 1    
    76   38   39 2    
    77   38   40 1    
    78   40   41 1    
    79   40   42 1    
    80   40  117 1    
    81   41  118 1    
    82   41  119 1    
    83   41  120 1    
    84   42   43 am   BACKBONE|DICT|INTERRES
    85   42  121 1    
    86   43   44 2    
    87   43   45 1    
    88   45   46 1    
    89   45   47 1    
    90   45  122 1    
    91   46  123 1    
    92   46  124 1    
    93   46  125 1    
    94   47   48 am   BACKBONE|DICT|INTERRES
    95   47  126 1    
    96   48   49 2    
    97   48   50 1    
    98   50   51 1    
    99   50   52 1    
   100   50  127 1    
   101   51  128 1    
   102   51  129 1    
   103   51  130 1    
   104   52   53 am   BACKBONE|DICT|INTERRES
   105   52  131 1    
   106   53   54 2    
   107   53   55 1    
   108   55   56 1    
   109   55   59 1    
   110   55  132 1    
   111   56   57 1    
   112   56  133 1    
   113   56  134 1    
   114   57   58 1    
   115   58  135 1    
   116   58  136 1    
   117   59   60 am   BACKBONE|DICT|INTERRES
   118   59  137 1    
   119   60   61 2    
   120   60   62 1    
   121   62   63 1    
   122   62   64 1    
   123   62  138 1    
   124   63  139 1    
   125   63  140 1    
   126   63  141 1    
   127   64   65 am   BACKBONE|DICT|INTERRES
   128   64  142 1    
   129   65   66 2    
   130   65   67 1    
   131   67   68 1    
   132   67   69 1    
   133   67  143 1    
   134   68  144 1    
   135   68  145 1    
   136   68  146 1    
   137   69   70 am   BACKBONE|DICT|INTERRES
   138   69  147 1    
   139   70   71 2    
   140   70   72 1    
   141   72   73 1    
   142   72   74 1    
   143   72  148 1    
   144   73  149 1    
   145   73  150 1    
   146   73  151 1    
   147   74   75 am   BACKBONE|DICT|INTERRES
   148   74  152 1    
   149   75   76 2    
   150   75   77 1    
   151   77   78 1    
   152   77   79 1    
   153   77  153 1    
   154   78  154 1    
   155   78  155 1    
   156   78  156 1    
   157   79   80 am   BACKBONE|DICT|INTERRES
   158   79  157 1    
   159   80   81 2    
@<TRIPOS>SUBSTRUCTURE
     1 UNK         1 GROUP             0       ****    0 ROOT    
