@<TRIPOS>MOLECULE
3R207
157   159    1
SMALL
USER_CHARGES


@<TRIPOS>ATOM
      1 CA        -50.7452  -21.7791   10.0249 C.3       0 UNK        -0.1975 
      2 C         -51.0936  -22.6389    8.8194 C.2       0 UNK         0.4852 
      3 O         -51.4713  -22.1020    7.7779 O.2       0 UNK        -0.5216 
      4 N         -50.9590  -23.9653    8.9567 N.am      1 UNK        -0.4461 
      5 CA        -51.2330  -24.9919    7.9416 C.3       1 UNK         0.0864 
      6 C6        -52.7247  -25.0903    7.5231 C.3       14 UNK        -0.0898 
      7 S7        -53.8278  -25.3570    8.9562 S.3       14 UNK        -0.2598 
      8 C8        -54.1707  -27.1441    8.8680 C.3       14 UNK         0.0286 
      9 C9        -52.9991  -27.9914    9.3491 C.ar      14 UNK        -0.0844 
     10 C10       -52.1037  -28.5472    8.4299 C.ar      14 UNK        -0.0881 
     11 C11       -51.0509  -29.3604    8.8632 C.ar      14 UNK        -0.0643 
     12 C12       -50.9133  -29.6340   10.2270 C.ar      14 UNK        -0.0930 
     13 C13       -51.7938  -29.0771   11.1579 C.ar      14 UNK        -0.0827 
     14 C14       -52.8318  -28.2511   10.7134 C.ar      14 UNK        -0.1249 
     15 C15       -51.6090  -29.3714   12.6397 C.3       14 UNK         0.0141 
     16 S16       -52.5419  -30.8462   13.1545 S.3       14 UNK        -0.2313 
     17 C17       -54.1989  -30.1247   13.3821 C.3       14 UNK        -0.0915 
     18 CA        -55.2296  -31.0924   14.0213 C.3       13 UNK         0.0968 
     19 C         -55.0261  -31.2559   15.5601 C.2       13 UNK         0.5732 
     20 N         -55.9481  -30.8231   16.4139 N.am      13 UNK        -0.7310 
     21 O         -54.0189  -31.8084   15.9944 O.2       13 UNK        -0.5035 
     22 N         -56.5920  -30.6991   13.6375 N.am      13 UNK        -0.4233 
     23 C         -57.6606  -31.5069   13.6707 C.2       13 UNK         0.4989 
     24 O         -57.5908  -32.7158   13.9002 O.2       13 UNK        -0.4996 
     25 CA        -59.0385  -30.8558   13.4101 C.3       12 UNK         0.0216 
     26 CB        -60.1912  -31.6236   14.0927 C.3       12 UNK        -0.1964 
     27 N         -59.0974  -29.4265   13.7558 N.am      12 UNK        -0.4276 
     28 C         -58.8352  -28.8769   14.9506 C.2       12 UNK         0.5020 
     29 O         -58.5316  -29.5176   15.9598 O.2       12 UNK        -0.5489 
     30 CA        -58.8500  -27.3416   15.0146 C.3       11 UNK         0.0294 
     31 CB        -59.9672  -26.8436   15.9460 C.3       11 UNK        -0.2019 
     32 N         -57.5593  -26.8235   15.4763 N.am      11 UNK        -0.4493 
     33 C         -56.3949  -26.9933   14.8367 C.2       11 UNK         0.4932 
     34 O         -56.2786  -27.5805   13.7560 O.2       11 UNK        -0.5029 
     35 CA        -55.1507  -26.4259   15.5275 C.3       10 UNK         0.0280 
     36 CB        -54.6383  -27.3787   16.6241 C.3       10 UNK        -0.1976 
     37 N         -54.1208  -26.2158   14.5158 N.am      10 UNK        -0.4242 
     38 C         -53.0668  -25.4021   14.6280 C.2       10 UNK         0.5072 
     39 O         -52.8201  -24.7260   15.6306 O.2       10 UNK        -0.5224 
     40 CA        -52.1685  -25.2902   13.3848 C.3       9 UNK         0.0343 
     41 CB        -52.7170  -24.2306   12.4171 C.3       9 UNK        -0.2003 
     42 N         -50.7859  -24.9547   13.7253 N.am      9 UNK        -0.4272 
     43 C         -49.9193  -25.7683   14.3415 C.2       9 UNK         0.4988 
     44 O         -50.1837  -26.9256   14.6723 O.2       9 UNK        -0.5108 
     45 CA        -48.5089  -25.1938   14.5918 C.3       8 UNK         0.0248 
     46 CB        -47.6141  -26.1487   15.4040 C.3       8 UNK        -0.2001 
     47 N         -47.8418  -24.8843   13.3257 N.am      8 UNK        -0.4140 
     48 C         -48.0840  -23.8008   12.5720 C.2       8 UNK         0.5028 
     49 O         -48.8118  -22.8741   12.9305 O.2       8 UNK        -0.5428 
     50 CA        -47.4669  -23.7679   11.1601 C.3       7 UNK         0.0264 
     51 CB        -46.1058  -23.0552   11.1927 C.3       7 UNK        -0.1988 
     52 N         -47.3004  -25.0956   10.5606 N.am      7 UNK        -0.4454 
     53 C         -48.2667  -26.0118   10.3882 C.2       7 UNK         0.5027 
     54 O         -49.4580  -25.7671   10.5715 O.2       7 UNK        -0.5083 
     55 CA        -47.8427  -27.4434    9.9832 C.3       6 UNK         0.0844 
     56 C56       -48.3300  -27.7918    8.5567 C.3       14 UNK        -0.0967 
     57 S57       -48.3149  -29.5920    8.2616 S.3       14 UNK        -0.2604 
     58 C58       -50.0632  -29.9354    7.8522 C.3       14 UNK         0.0134 
     59 N         -46.3981  -27.6652   10.1022 N.am      6 UNK        -0.4116 
     60 C         -45.6664  -27.6295   11.2211 C.2       5 UNK         0.5034 
     61 O         -46.1386  -27.4748   12.3477 O.2       5 UNK        -0.5045 
     62 CA        -44.1409  -27.6686   11.0290 C.3       5 UNK         0.0224 
     63 CB        -43.6836  -28.9037   10.2245 C.3       5 UNK        -0.1978 
     64 N         -43.6050  -26.4200   10.4567 N.am      5 UNK        -0.4737 
     65 C         -43.8516  -25.8751    9.2552 C.2       4 UNK         0.5027 
     66 O         -44.5903  -26.3726    8.4012 O.2       4 UNK        -0.5211 
     67 CA        -43.1581  -24.5418    8.9586 C.3       4 UNK         0.0297 
     68 CB        -41.6995  -24.7633    8.5199 C.3       4 UNK        -0.1993 
     69 N         -43.8966  -23.8568    7.9005 N.am      4 UNK        -0.4486 
     70 C         -43.9505  -22.5322    7.7194 C.2       3 UNK         0.4961 
     71 O         -43.3435  -21.7256    8.4248 O.2       3 UNK        -0.5105 
     72 CA        -44.8123  -22.0006    6.5562 C.3       3 UNK         0.0299 
     73 CB        -43.9175  -21.6106    5.3679 C.3       3 UNK        -0.1972 
     74 N         -45.8514  -22.9252    6.0876 N.am      3 UNK        -0.4305 
     75 C         -46.9465  -23.2598    6.7822 C.2       2 UNK         0.5006 
     76 O         -47.1929  -22.8434    7.9170 O.2       2 UNK        -0.5106 
     77 CA        -47.9254  -24.2269    6.0987 C.3       2 UNK         0.0296 
     78 CB        -47.2329  -25.5348    5.6642 C.3       2 UNK        -0.2002 
     79 N         -49.0082  -24.4978    7.0394 N.am      2 UNK        -0.4032 
     80 C         -50.2487  -24.9119    6.7503 C.2       1 UNK         0.5000 
     81 O         -50.6154  -25.2244    5.6157 O.2       1 UNK        -0.5238 
     82 H82       -51.5613  -21.0913   10.2444 H         1 UNK         0.0889 
     83 H83       -49.8489  -21.1934    9.8219 H         1 UNK         0.0889 
     84 H84       -50.5653  -22.3799   10.9154 H         1 UNK         0.0889 
     85 H85       -50.6080  -24.3532    9.8280 H         1 UNK         0.3028 
     86 H86       -51.0010  -25.9342    8.4332 H         1 UNK         0.0864 
     87 H87       -53.0395  -24.1794    7.0120 H         1 UNK         0.0720 
     88 H88       -52.8736  -25.9014    6.8087 H         1 UNK         0.0720 
     89 H89       -54.4535  -27.4165    7.8501 H         1 UNK         0.0814 
     90 H90       -55.0441  -27.3580    9.4860 H         1 UNK         0.0814 
     91 H91       -52.2279  -28.3455    7.3748 H         1 UNK         0.1469 
     92 H92       -50.1076  -30.2713   10.5649 H         1 UNK         0.1381 
     93 H93       -53.5211  -27.8213   11.4264 H         1 UNK         0.1206 
     94 H94       -51.9091  -28.5165   13.2450 H         1 UNK         0.0813 
     95 H95       -50.5514  -29.5304   12.8559 H         1 UNK         0.0813 
     96 H96       -54.5436  -29.8238   12.3918 H         1 UNK         0.0638 
     97 H97       -54.1160  -29.2068   13.9646 H         1 UNK         0.0638 
     98 H98       -55.0597  -32.0811   13.5908 H         1 UNK         0.0568 
     99 H99       -55.7942  -30.9556   17.4001 H         1 UNK         0.3450 
    100 H100      -56.8106  -30.3890   16.0983 H         1 UNK         0.3450 
    101 H101      -56.7301  -29.7093   13.4736 H         1 UNK         0.2987 
    102 H102      -59.1957  -30.9156   12.3322 H         1 UNK         0.0766 
    103 H103      -61.1555  -31.1607   13.8832 H         1 UNK         0.0798 
    104 H104      -60.0656  -31.6615   15.1754 H         1 UNK         0.0798 
    105 H105      -60.2449  -32.6528   13.7356 H         1 UNK         0.0798 
    106 H106      -59.3038  -28.8050   12.9849 H         1 UNK         0.3198 
    107 H107      -59.0326  -26.9406   14.0152 H         1 UNK         0.0843 
    108 H108      -59.8254  -27.1925   16.9699 H         1 UNK         0.0831 
    109 H109      -60.9414  -27.2037   15.6125 H         1 UNK         0.0831 
    110 H110      -60.0148  -25.7546   15.9649 H         1 UNK         0.0831 
    111 H111      -57.5557  -26.3622   16.3747 H         1 UNK         0.3133 
    112 H112      -55.4148  -25.4638   15.9718 H         1 UNK         0.0566 
    113 H113      -54.3044  -28.3294   16.2093 H         1 UNK         0.0814 
    114 H114      -53.8005  -26.9432   17.1686 H         1 UNK         0.0814 
    115 H115      -55.4178  -27.5980   17.3548 H         1 UNK         0.0814 
    116 H116      -54.3111  -26.6895   13.6412 H         1 UNK         0.3091 
    117 H117      -52.1605  -26.2508   12.8687 H         1 UNK         0.0702 
    118 H118      -52.1437  -24.2156   11.4920 H         1 UNK         0.0785 
    119 H119      -52.6892  -23.2305   12.8514 H         1 UNK         0.0785 
    120 H120      -53.7520  -24.4421   12.1449 H         1 UNK         0.0785 
    121 H121      -50.4635  -24.0238   13.4867 H         1 UNK         0.2998 
    122 H122      -48.6261  -24.2744   15.1695 H         1 UNK         0.0697 
    123 H123      -47.4468  -27.0901   14.8785 H         1 UNK         0.0825 
    124 H124      -48.0698  -26.3876   16.3658 H         1 UNK         0.0825 
    125 H125      -46.6408  -25.7026   15.6088 H         1 UNK         0.0825 
    126 H126      -47.2621  -25.6202   12.9402 H         1 UNK         0.3029 
    127 H127      -48.1398  -23.1974   10.5180 H         1 UNK         0.0897 
    128 H128      -46.1998  -22.0557   11.6196 H         1 UNK         0.0792 
    129 H129      -45.6967  -22.9354   10.1901 H         1 UNK         0.0792 
    130 H130      -45.3756  -23.5997   11.7927 H         1 UNK         0.0792 
    131 H131      -46.3544  -25.3757   10.3512 H         1 UNK         0.3086 
    132 H132      -48.3371  -28.1096   10.6934 H         1 UNK         0.0583 
    133 H133      -49.3338  -27.4139    8.3775 H         1 UNK         0.1020 
    134 H134      -47.7004  -27.3156    7.8080 H         1 UNK         0.1020 
    135 H135      -50.2633  -29.5438    6.8536 H         1 UNK         0.0694 
    136 H136      -50.2058  -31.0151    7.7936 H         1 UNK         0.0694 
    137 H137      -45.8831  -27.6886    9.2286 H         1 UNK         0.2989 
    138 H138      -43.7096  -27.7578   12.0279 H         1 UNK         0.1055 
    139 H139      -44.0657  -29.8227   10.6713 H         1 UNK         0.0806 
    140 H140      -42.5964  -28.9809   10.2109 H         1 UNK         0.0806 
    141 H141      -44.0245  -28.8813    9.1892 H         1 UNK         0.0806 
    142 H142      -42.9879  -25.9101   11.0755 H         1 UNK         0.3061 
    143 H143      -43.1805  -23.9349    9.8665 H         1 UNK         0.0734 
    144 H144      -41.1954  -23.8166    8.3250 H         1 UNK         0.0832 
    145 H145      -41.1286  -25.2790    9.2930 H         1 UNK         0.0832 
    146 H146      -41.6405  -25.3663    7.6128 H         1 UNK         0.0832 
    147 H147      -44.4572  -24.4688    7.3207 H         1 UNK         0.3156 
    148 H148      -45.3099  -21.0967    6.9144 H         1 UNK         0.0589 
    149 H149      -44.4956  -21.1430    4.5706 H         1 UNK         0.0808 
    150 H150      -43.1534  -20.8938    5.6727 H         1 UNK         0.0808 
    151 H151      -43.4023  -22.4760    4.9490 H         1 UNK         0.0808 
    152 H152      -45.7254  -23.3123    5.1632 H         1 UNK         0.3098 
    153 H153      -48.3441  -23.7248    5.2241 H         1 UNK         0.0720 
    154 H154      -47.9539  -26.3074    5.3964 H         1 UNK         0.0791 
    155 H155      -46.5861  -25.9308    6.4472 H         1 UNK         0.0791 
    156 H156      -46.6066  -25.3711    4.7870 H         1 UNK         0.0791 
    157 H157      -48.8101  -24.1682    7.9769 H         1 UNK         0.3028 
@<TRIPOS>BOND
     1    1    2 1    
     2    1   82 1    
     3    1   83 1    
     4    1   84 1    
     5    2    3 2    
     6    2    4 am   BACKBONE|DICT|INTERRES
     7    4    5 1    
     8    4   85 1    
     9    5    6 1    
    10    5   80 1    
    11    5   86 1    
    12    6    7 1    
    13    6   87 1    
    14    6   88 1    
    15    7    8 1    
    16    8    9 1    
    17    8   89 1    
    18    8   90 1    
    19    9   10 ar   
    20    9   14 ar   
    21   10   11 ar   
    22   10   91 1    
    23   11   12 ar   
    24   11   58 1    
    25   12   13 ar   
    26   12   92 1    
    27   13   14 ar   
    28   13   15 1    
    29   14   93 1    
    30   15   16 1    
    31   15   94 1    
    32   15   95 1    
    33   16   17 1    
    34   17   18 1    
    35   17   96 1    
    36   17   97 1    
    37   18   19 1    
    38   18   22 1    
    39   18   98 1    
    40   19   20 am   BACKBONE|DICT|INTERRES
    41   19   21 2    
    42   20   99 1    
    43   20  100 1    
    44   22   23 am   BACKBONE|DICT|INTERRES
    45   22  101 1    
    46   23   24 2    
    47   23   25 1    
    48   25   26 1    
    49   25   27 1    
    50   25  102 1    
    51   26  103 1    
    52   26  104 1    
    53   26  105 1    
    54   27   28 am   BACKBONE|DICT|INTERRES
    55   27  106 1    
    56   28   29 2    
    57   28   30 1    
    58   30   31 1    
    59   30   32 1    
    60   30  107 1    
    61   31  108 1    
    62   31  109 1    
    63   31  110 1    
    64   32   33 am   BACKBONE|DICT|INTERRES
    65   32  111 1    
    66   33   34 2    
    67   33   35 1    
    68   35   36 1    
    69   35   37 1    
    70   35  112 1    
    71   36  113 1    
    72   36  114 1    
    73   36  115 1    
    74   37   38 am   BACKBONE|DICT|INTERRES
    75   37  116 1    
    76   38   39 2    
    77   38   40 1    
    78   40   41 1    
    79   40   42 1    
    80   40  117 1    
    81   41  118 1    
    82   41  119 1    
    83   41  120 1    
    84   42   43 am   BACKBONE|DICT|INTERRES
    85   42  121 1    
    86   43   44 2    
    87   43   45 1    
    88   45   46 1    
    89   45   47 1    
    90   45  122 1    
    91   46  123 1    
    92   46  124 1    
    93   46  125 1    
    94   47   48 am   BACKBONE|DICT|INTERRES
    95   47  126 1    
    96   48   49 2    
    97   48   50 1    
    98   50   51 1    
    99   50   52 1    
   100   50  127 1    
   101   51  128 1    
   102   51  129 1    
   103   51  130 1    
   104   52   53 am   BACKBONE|DICT|INTERRES
   105   52  131 1    
   106   53   54 2    
   107   53   55 1    
   108   55   56 1    
   109   55   59 1    
   110   55  132 1    
   111   56   57 1    
   112   56  133 1    
   113   56  134 1    
   114   57   58 1    
   115   58  135 1    
   116   58  136 1    
   117   59   60 am   BACKBONE|DICT|INTERRES
   118   59  137 1    
   119   60   61 2    
   120   60   62 1    
   121   62   63 1    
   122   62   64 1    
   123   62  138 1    
   124   63  139 1    
   125   63  140 1    
   126   63  141 1    
   127   64   65 am   BACKBONE|DICT|INTERRES
   128   64  142 1    
   129   65   66 2    
   130   65   67 1    
   131   67   68 1    
   132   67   69 1    
   133   67  143 1    
   134   68  144 1    
   135   68  145 1    
   136   68  146 1    
   137   69   70 am   BACKBONE|DICT|INTERRES
   138   69  147 1    
   139   70   71 2    
   140   70   72 1    
   141   72   73 1    
   142   72   74 1    
   143   72  148 1    
   144   73  149 1    
   145   73  150 1    
   146   73  151 1    
   147   74   75 am   BACKBONE|DICT|INTERRES
   148   74  152 1    
   149   75   76 2    
   150   75   77 1    
   151   77   78 1    
   152   77   79 1    
   153   77  153 1    
   154   78  154 1    
   155   78  155 1    
   156   78  156 1    
   157   79   80 am   BACKBONE|DICT|INTERRES
   158   79  157 1    
   159   80   81 2    
@<TRIPOS>SUBSTRUCTURE
     1 UNK         1 GROUP             0       ****    0 ROOT    
