@<TRIPOS>MOLECULE
3R207
157   159    1
SMALL
USER_CHARGES


@<TRIPOS>ATOM
      1 CA        -51.2286  -28.9108    3.2468 C.3       0 UNK        -0.1975 
      2 C         -50.5359  -27.6724    3.7957 C.2       0 UNK         0.4852 
      3 O         -49.7179  -27.0703    3.0995 O.2       0 UNK        -0.5216 
      4 N         -50.8582  -27.2900    5.0394 N.am      1 UNK        -0.4461 
      5 CA        -50.3015  -26.1190    5.7334 C.3       1 UNK         0.0864 
      6 C6        -51.1170  -25.7474    6.9936 C.3       14 UNK        -0.0898 
      7 S7        -52.8632  -25.3625    6.6210 S.3       14 UNK        -0.2598 
      8 C8        -53.7378  -26.8600    7.1913 C.3       14 UNK         0.0286 
      9 C9        -53.6326  -27.0416    8.6981 C.ar      14 UNK        -0.0844 
     10 C10       -52.7872  -28.0165    9.2378 C.ar      14 UNK        -0.0881 
     11 C11       -52.6400  -28.1414   10.6225 C.ar      14 UNK        -0.0643 
     12 C12       -53.3874  -27.3072   11.4630 C.ar      14 UNK        -0.0930 
     13 C13       -54.2584  -26.3465   10.9385 C.ar      14 UNK        -0.0827 
     14 C14       -54.3729  -26.2200    9.5522 C.ar      14 UNK        -0.1249 
     15 C15       -55.0371  -25.4032   11.8535 C.3       14 UNK         0.0141 
     16 S16       -56.0500  -26.2631   13.0967 S.3       14 UNK        -0.2313 
     17 C17       -57.3096  -27.0666   12.0515 C.3       14 UNK        -0.0915 
     18 CA        -57.6221  -28.5098   12.5212 C.3       13 UNK         0.0968 
     19 C         -58.7807  -29.1281   11.6851 C.2       13 UNK         0.5732 
     20 N         -58.5620  -30.1961   10.9267 N.am      13 UNK        -0.7310 
     21 O         -59.9041  -28.6324   11.7334 O.2       13 UNK        -0.5035 
     22 N         -56.4038  -29.3335   12.5930 N.am      13 UNK        -0.4233 
     23 C         -56.2817  -30.4410   13.3345 C.2       13 UNK         0.4989 
     24 O         -57.1691  -30.8908   14.0597 O.2       13 UNK        -0.4996 
     25 CA        -54.9295  -31.1520   13.2697 C.3       12 UNK         0.0216 
     26 CB        -54.5604  -31.5637   11.8299 C.3       12 UNK        -0.1964 
     27 N         -53.8977  -30.3085   13.8780 N.am      12 UNK        -0.4276 
     28 C         -52.7820  -30.7777   14.4508 C.2       12 UNK         0.5020 
     29 O         -52.4714  -31.9702   14.4312 O.2       12 UNK        -0.5489 
     30 CA        -51.8510  -29.7855   15.1822 C.3       11 UNK         0.0294 
     31 CB        -50.3661  -30.0445   14.8604 C.3       11 UNK        -0.2019 
     32 N         -52.1405  -28.3611   14.9768 N.am      11 UNK        -0.4493 
     33 C         -53.1058  -27.6709   15.5998 C.2       11 UNK         0.4932 
     34 O         -53.9974  -28.1970   16.2661 O.2       11 UNK        -0.5029 
     35 CA        -53.0218  -26.1370   15.4701 C.3       10 UNK         0.0280 
     36 CB        -54.0296  -25.3875   16.3654 C.3       10 UNK        -0.1976 
     37 N         -51.6513  -25.6574   15.6871 N.am      10 UNK        -0.4242 
     38 C         -50.8995  -25.7852   16.7922 C.2       10 UNK         0.5072 
     39 O         -51.3137  -26.2233   17.8662 O.2       10 UNK        -0.5224 
     40 CA        -49.4146  -25.3943   16.6758 C.3       9 UNK         0.0343 
     41 CB        -48.5559  -26.6518   16.4651 C.3       9 UNK        -0.2003 
     42 N         -49.1466  -24.4494   15.5890 N.am      9 UNK        -0.4272 
     43 C         -49.4125  -23.1364   15.6468 C.2       9 UNK         0.4988 
     44 O         -49.8484  -22.5679   16.6486 O.2       9 UNK        -0.5108 
     45 CA        -49.1754  -22.3228   14.3619 C.3       8 UNK         0.0248 
     46 CB        -47.6857  -21.9845   14.1963 C.3       8 UNK        -0.2001 
     47 N         -49.6664  -23.0065   13.1623 N.am      8 UNK        -0.4140 
     48 C         -50.9540  -23.3034   12.9324 C.2       8 UNK         0.5028 
     49 O         -51.8795  -22.9810   13.6766 O.2       8 UNK        -0.5428 
     50 CA        -51.2653  -24.1342   11.6821 C.3       7 UNK         0.0264 
     51 CB        -51.4867  -23.2404   10.4523 C.3       7 UNK        -0.1988 
     52 N         -50.2354  -25.1258   11.3914 N.am      7 UNK        -0.4454 
     53 C         -50.0410  -26.2535   12.0899 C.2       7 UNK         0.5027 
     54 O         -50.6724  -26.5638   13.1022 O.2       7 UNK        -0.5083 
     55 CA        -48.9246  -27.1769   11.5641 C.3       6 UNK         0.0844 
     56 C56       -49.3513  -27.8268   10.2183 C.3       14 UNK        -0.0967 
     57 S57       -50.1257  -29.4715   10.3583 S.3       14 UNK        -0.2604 
     58 C58       -51.6997  -29.1760   11.2403 C.3       14 UNK         0.0134 
     59 N         -47.6518  -26.4565   11.4350 N.am      6 UNK        -0.4116 
     60 C         -47.0516  -25.7441   12.4021 C.2       5 UNK         0.5034 
     61 O         -47.4507  -25.6723   13.5638 O.2       5 UNK        -0.5045 
     62 CA        -45.8294  -24.9127   11.9872 C.3       5 UNK         0.0224 
     63 CB        -44.5517  -25.7631   12.0616 C.3       5 UNK        -0.1978 
     64 N         -45.9391  -24.3291   10.6489 N.am      5 UNK        -0.4737 
     65 C         -46.9235  -23.5567   10.1702 C.2       4 UNK         0.5027 
     66 O         -47.9029  -23.2210   10.8363 O.2       4 UNK        -0.5211 
     67 CA        -46.8357  -23.1162    8.6925 C.3       4 UNK         0.0297 
     68 CB        -46.3590  -21.6557    8.5810 C.3       4 UNK        -0.1993 
     69 N         -46.0514  -24.0139    7.8248 N.am      4 UNK        -0.4486 
     70 C         -44.7391  -24.2970    7.8792 C.2       3 UNK         0.4961 
     71 O         -43.9554  -23.7187    8.6325 O.2       3 UNK        -0.5105 
     72 CA        -44.2137  -25.4597    7.0115 C.3       3 UNK         0.0299 
     73 CB        -43.0676  -26.2238    7.7090 C.3       3 UNK        -0.1972 
     74 N         -45.2409  -26.4076    6.5617 N.am      3 UNK        -0.4305 
     75 C         -46.0887  -27.1357    7.3062 C.2       2 UNK         0.5006 
     76 O         -46.1762  -27.0840    8.5363 O.2       2 UNK        -0.5106 
     77 CA        -47.0293  -28.0537    6.5055 C.3       2 UNK         0.0296 
     78 CB        -47.0742  -29.4685    7.1096 C.3       2 UNK        -0.2002 
     79 N         -48.4001  -27.5512    6.3475 N.am      2 UNK        -0.4032 
     80 C         -48.8078  -26.2961    6.0857 C.2       1 UNK         0.5000 
     81 O         -48.0739  -25.3052    6.0837 O.2       1 UNK        -0.5238 
     82 H82       -51.9280  -29.3402    3.9638 H         1 UNK         0.0889 
     83 H83       -50.4911  -29.6723    2.9946 H         1 UNK         0.0889 
     84 H84       -51.7825  -28.6601    2.3424 H         1 UNK         0.0889 
     85 H85       -51.5569  -27.8100    5.5480 H         1 UNK         0.3028 
     86 H86       -50.3583  -25.2754    5.0414 H         1 UNK         0.0864 
     87 H87       -51.0641  -26.5473    7.7286 H         1 UNK         0.0720 
     88 H88       -50.6889  -24.8663    7.4759 H         1 UNK         0.0720 
     89 H89       -53.3545  -27.7349    6.6656 H         1 UNK         0.0814 
     90 H90       -54.7897  -26.7785    6.9134 H         1 UNK         0.0814 
     91 H91       -52.2234  -28.6628    8.5799 H         1 UNK         0.1469 
     92 H92       -53.2794  -27.3917   12.5333 H         1 UNK         0.1381 
     93 H93       -55.0229  -25.4654    9.1306 H         1 UNK         0.1206 
     94 H94       -54.3438  -24.7481   12.3792 H         1 UNK         0.0813 
     95 H95       -55.6865  -24.7470   11.2719 H         1 UNK         0.0813 
     96 H96       -56.9790  -27.0726   11.0115 H         1 UNK         0.0638 
     97 H97       -58.2076  -26.4470   12.0836 H         1 UNK         0.0638 
     98 H98       -58.0132  -28.4322   13.5377 H         1 UNK         0.0568 
     99 H99       -59.3241  -30.5868   10.3956 H         1 UNK         0.3450 
    100 H100      -57.6467  -30.6115   10.8772 H         1 UNK         0.3450 
    101 H101      -55.6362  -29.0316   12.0120 H         1 UNK         0.2987 
    102 H102      -55.0259  -32.0635   13.8645 H         1 UNK         0.0766 
    103 H103      -53.6262  -32.1249   11.8056 H         1 UNK         0.0798 
    104 H104      -54.4541  -30.7057   11.1663 H         1 UNK         0.0798 
    105 H105      -55.3297  -32.2088   11.4036 H         1 UNK         0.0798 
    106 H106      -54.1347  -29.3367   14.0241 H         1 UNK         0.3198 
    107 H107      -51.9846  -29.9930   16.2463 H         1 UNK         0.0843 
    108 H108      -50.1316  -29.8677   13.8116 H         1 UNK         0.0831 
    109 H109      -50.0887  -31.0757   15.0824 H         1 UNK         0.0831 
    110 H110      -49.7156  -29.4092   15.4607 H         1 UNK         0.0831 
    111 H111      -51.4780  -27.8343   14.4135 H         1 UNK         0.3133 
    112 H112      -53.2620  -25.8972   14.4342 H         1 UNK         0.0566 
    113 H113      -53.9467  -24.3086   16.2340 H         1 UNK         0.0814 
    114 H114      -55.0536  -25.6669   16.1146 H         1 UNK         0.0814 
    115 H115      -53.8823  -25.6110   17.4223 H         1 UNK         0.0814 
    116 H116      -51.1802  -25.3356   14.8508 H         1 UNK         0.3091 
    117 H117      -49.1186  -24.9338   17.6208 H         1 UNK         0.0702 
    118 H118      -47.4931  -26.4090   16.4593 H         1 UNK         0.0785 
    119 H119      -48.7901  -27.1418   15.5191 H         1 UNK         0.0785 
    120 H120      -48.7195  -27.3790   17.2615 H         1 UNK         0.0785 
    121 H121      -48.7225  -24.8341   14.7482 H         1 UNK         0.2998 
    122 H122      -49.7279  -21.3853   14.4531 H         1 UNK         0.0697 
    123 H123      -47.0712  -22.8832   14.1595 H         1 UNK         0.0825 
    124 H124      -47.3295  -21.3832   15.0337 H         1 UNK         0.0825 
    125 H125      -47.5039  -21.4142   13.2850 H         1 UNK         0.0825 
    126 H126      -48.9811  -23.2526   12.4524 H         1 UNK         0.3029 
    127 H127      -52.1890  -24.6745   11.8775 H         1 UNK         0.0897 
    128 H128      -51.8143  -23.8272    9.5935 H         1 UNK         0.0792 
    129 H129      -52.2602  -22.4962   10.6468 H         1 UNK         0.0792 
    130 H130      -50.5796  -22.7041   10.1709 H         1 UNK         0.0792 
    131 H131      -49.6016  -24.9044   10.6370 H         1 UNK         0.3086 
    132 H132      -48.7604  -27.9605   12.3065 H         1 UNK         0.0583 
    133 H133      -49.9951  -27.1780    9.6251 H         1 UNK         0.1020 
    134 H134      -48.4717  -27.9804    9.5940 H         1 UNK         0.1020 
    135 H135      -52.2214  -30.1285   11.3001 H         1 UNK         0.0694 
    136 H136      -51.4673  -28.8991   12.2650 H         1 UNK         0.0694 
    137 H137      -47.2137  -26.4656   10.5217 H         1 UNK         0.2989 
    138 H138      -45.7341  -24.0876   12.6941 H         1 UNK         0.1055 
    139 H139      -44.4309  -26.2025   13.0529 H         1 UNK         0.0806 
    140 H140      -43.6635  -25.1625   11.8643 H         1 UNK         0.0806 
    141 H141      -44.5693  -26.5813   11.3398 H         1 UNK         0.0806 
    142 H142      -45.1536  -24.4819   10.0262 H         1 UNK         0.3061 
    143 H143      -47.8546  -23.1585    8.3042 H         1 UNK         0.0734 
    144 H144      -46.3493  -21.3194    7.5444 H         1 UNK         0.0832 
    145 H145      -47.0238  -20.9893    9.1322 H         1 UNK         0.0832 
    146 H146      -45.3573  -21.5188    8.9891 H         1 UNK         0.0832 
    147 H147      -46.6143  -24.5612    7.1766 H         1 UNK         0.3156 
    148 H148      -43.8071  -25.0003    6.1095 H         1 UNK         0.0589 
    149 H149      -43.3913  -26.6587    8.6555 H         1 UNK         0.0808 
    150 H150      -42.2257  -25.5646    7.9246 H         1 UNK         0.0808 
    151 H151      -42.6885  -27.0309    7.0820 H         1 UNK         0.0808 
    152 H152      -45.3160  -26.4997    5.5576 H         1 UNK         0.3098 
    153 H153      -46.6228  -28.1517    5.4970 H         1 UNK         0.0720 
    154 H154      -47.5560  -29.4816    8.0870 H         1 UNK         0.0791 
    155 H155      -46.0680  -29.8694    7.2400 H         1 UNK         0.0791 
    156 H156      -47.6136  -30.1608    6.4628 H         1 UNK         0.0791 
    157 H157      -49.1138  -28.2639    6.3227 H         1 UNK         0.3028 
@<TRIPOS>BOND
     1    1    2 1    
     2    1   82 1    
     3    1   83 1    
     4    1   84 1    
     5    2    3 2    
     6    2    4 am   BACKBONE|DICT|INTERRES
     7    4    5 1    
     8    4   85 1    
     9    5    6 1    
    10    5   80 1    
    11    5   86 1    
    12    6    7 1    
    13    6   87 1    
    14    6   88 1    
    15    7    8 1    
    16    8    9 1    
    17    8   89 1    
    18    8   90 1    
    19    9   10 ar   
    20    9   14 ar   
    21   10   11 ar   
    22   10   91 1    
    23   11   12 ar   
    24   11   58 1    
    25   12   13 ar   
    26   12   92 1    
    27   13   14 ar   
    28   13   15 1    
    29   14   93 1    
    30   15   16 1    
    31   15   94 1    
    32   15   95 1    
    33   16   17 1    
    34   17   18 1    
    35   17   96 1    
    36   17   97 1    
    37   18   19 1    
    38   18   22 1    
    39   18   98 1    
    40   19   20 am   BACKBONE|DICT|INTERRES
    41   19   21 2    
    42   20   99 1    
    43   20  100 1    
    44   22   23 am   BACKBONE|DICT|INTERRES
    45   22  101 1    
    46   23   24 2    
    47   23   25 1    
    48   25   26 1    
    49   25   27 1    
    50   25  102 1    
    51   26  103 1    
    52   26  104 1    
    53   26  105 1    
    54   27   28 am   BACKBONE|DICT|INTERRES
    55   27  106 1    
    56   28   29 2    
    57   28   30 1    
    58   30   31 1    
    59   30   32 1    
    60   30  107 1    
    61   31  108 1    
    62   31  109 1    
    63   31  110 1    
    64   32   33 am   BACKBONE|DICT|INTERRES
    65   32  111 1    
    66   33   34 2    
    67   33   35 1    
    68   35   36 1    
    69   35   37 1    
    70   35  112 1    
    71   36  113 1    
    72   36  114 1    
    73   36  115 1    
    74   37   38 am   BACKBONE|DICT|INTERRES
    75   37  116 1    
    76   38   39 2    
    77   38   40 1    
    78   40   41 1    
    79   40   42 1    
    80   40  117 1    
    81   41  118 1    
    82   41  119 1    
    83   41  120 1    
    84   42   43 am   BACKBONE|DICT|INTERRES
    85   42  121 1    
    86   43   44 2    
    87   43   45 1    
    88   45   46 1    
    89   45   47 1    
    90   45  122 1    
    91   46  123 1    
    92   46  124 1    
    93   46  125 1    
    94   47   48 am   BACKBONE|DICT|INTERRES
    95   47  126 1    
    96   48   49 2    
    97   48   50 1    
    98   50   51 1    
    99   50   52 1    
   100   50  127 1    
   101   51  128 1    
   102   51  129 1    
   103   51  130 1    
   104   52   53 am   BACKBONE|DICT|INTERRES
   105   52  131 1    
   106   53   54 2    
   107   53   55 1    
   108   55   56 1    
   109   55   59 1    
   110   55  132 1    
   111   56   57 1    
   112   56  133 1    
   113   56  134 1    
   114   57   58 1    
   115   58  135 1    
   116   58  136 1    
   117   59   60 am   BACKBONE|DICT|INTERRES
   118   59  137 1    
   119   60   61 2    
   120   60   62 1    
   121   62   63 1    
   122   62   64 1    
   123   62  138 1    
   124   63  139 1    
   125   63  140 1    
   126   63  141 1    
   127   64   65 am   BACKBONE|DICT|INTERRES
   128   64  142 1    
   129   65   66 2    
   130   65   67 1    
   131   67   68 1    
   132   67   69 1    
   133   67  143 1    
   134   68  144 1    
   135   68  145 1    
   136   68  146 1    
   137   69   70 am   BACKBONE|DICT|INTERRES
   138   69  147 1    
   139   70   71 2    
   140   70   72 1    
   141   72   73 1    
   142   72   74 1    
   143   72  148 1    
   144   73  149 1    
   145   73  150 1    
   146   73  151 1    
   147   74   75 am   BACKBONE|DICT|INTERRES
   148   74  152 1    
   149   75   76 2    
   150   75   77 1    
   151   77   78 1    
   152   77   79 1    
   153   77  153 1    
   154   78  154 1    
   155   78  155 1    
   156   78  156 1    
   157   79   80 am   BACKBONE|DICT|INTERRES
   158   79  157 1    
   159   80   81 2    
@<TRIPOS>SUBSTRUCTURE
     1 UNK         1 GROUP             0       ****    0 ROOT    
