@<TRIPOS>MOLECULE
3R207
157   159    1
SMALL
USER_CHARGES


@<TRIPOS>ATOM
      1 CA        -47.4268  -30.8517    2.9508 C.3       0 UNK        -0.1975 
      2 C         -47.4587  -29.8966    4.1347 C.2       0 UNK         0.4852 
      3 O         -46.4066  -29.4051    4.5465 O.2       0 UNK        -0.5216 
      4 N         -48.6570  -29.6362    4.6781 N.am      1 UNK        -0.4461 
      5 CA        -48.9540  -28.7449    5.8077 C.3       1 UNK         0.0864 
      6 C6        -48.2672  -29.1545    7.1407 C.3       14 UNK        -0.0898 
      7 S7        -48.9628  -30.6873    7.8408 S.3       14 UNK        -0.2598 
      8 C8        -49.4566  -30.1406    9.5098 C.3       14 UNK         0.0286 
      9 C9        -50.8759  -29.5861    9.5635 C.ar      14 UNK        -0.0844 
     10 C10       -51.2177  -28.4099    8.8877 C.ar      14 UNK        -0.0881 
     11 C11       -52.4994  -27.8650    9.0042 C.ar      14 UNK        -0.0643 
     12 C12       -53.4534  -28.5138    9.7934 C.ar      14 UNK        -0.0930 
     13 C13       -53.1288  -29.6955   10.4655 C.ar      14 UNK        -0.0827 
     14 C14       -51.8421  -30.2274   10.3444 C.ar      14 UNK        -0.1249 
     15 C15       -54.1560  -30.3835   11.3484 C.3       14 UNK         0.0141 
     16 S16       -54.1295  -29.6687   13.0162 S.3       14 UNK        -0.2313 
     17 C17       -55.2512  -30.7924   13.9135 C.3       14 UNK        -0.0915 
     18 CA        -56.7445  -30.3802   13.8251 C.3       13 UNK         0.0968 
     19 C         -57.6326  -31.3434   14.6653 C.2       13 UNK         0.5732 
     20 N         -58.2851  -30.8915   15.7297 N.am      13 UNK        -0.7310 
     21 O         -57.7337  -32.5241   14.3400 O.2       13 UNK        -0.5035 
     22 N         -56.9278  -28.9476   14.1022 N.am      13 UNK        -0.4233 
     23 C         -58.0131  -28.2316   13.7883 C.2       13 UNK         0.4989 
     24 O         -59.0436  -28.7093   13.3121 O.2       13 UNK        -0.4996 
     25 CA        -57.9260  -26.7152   14.0269 C.3       12 UNK         0.0216 
     26 CB        -58.4126  -26.3633   15.4420 C.3       12 UNK        -0.1964 
     27 N         -56.5837  -26.1586   13.8251 N.am      12 UNK        -0.4276 
     28 C         -55.9099  -26.1261   12.6692 C.2       12 UNK         0.5020 
     29 O         -56.3409  -26.6125   11.6228 O.2       12 UNK        -0.5489 
     30 CA        -54.5454  -25.4064   12.6412 C.3       11 UNK         0.0294 
     31 CB        -54.7289  -23.9319   12.2376 C.3       11 UNK        -0.2019 
     32 N         -53.6874  -25.4969   13.8338 N.am      11 UNK        -0.4493 
     33 C         -53.9174  -25.1315   15.1038 C.2       11 UNK         0.4932 
     34 O         -55.0057  -24.7254   15.5138 O.2       11 UNK        -0.5029 
     35 CA        -52.7251  -25.1856   16.0798 C.3       10 UNK         0.0280 
     36 CB        -53.1506  -25.5199   17.5258 C.3       10 UNK        -0.1976 
     37 N         -51.6155  -26.0360   15.6308 N.am      10 UNK        -0.4242 
     38 C         -51.5825  -27.3746   15.5298 C.2       10 UNK         0.5072 
     39 O         -52.5201  -28.1054   15.8501 O.2       10 UNK        -0.5224 
     40 CA        -50.2927  -28.0213   14.9781 C.3       9 UNK         0.0343 
     41 CB        -50.5663  -28.7374   13.6443 C.3       9 UNK        -0.2003 
     42 N         -49.1904  -27.0750   14.7840 N.am      9 UNK        -0.4272 
     43 C         -48.4257  -26.5669   15.7602 C.2       9 UNK         0.4988 
     44 O         -48.5170  -26.8965   16.9430 O.2       9 UNK        -0.5108 
     45 CA        -47.4153  -25.4763   15.3563 C.3       8 UNK         0.0248 
     46 CB        -46.0962  -26.1059   14.8819 C.3       8 UNK        -0.2001 
     47 N         -47.9285  -24.5592   14.3307 N.am      8 UNK        -0.4140 
     48 C         -48.9938  -23.7595   14.4954 C.2       8 UNK         0.5028 
     49 O         -49.6317  -23.6803   15.5451 O.2       8 UNK        -0.5428 
     50 CA        -49.4692  -22.9530   13.2758 C.3       7 UNK         0.0264 
     51 CB        -48.6024  -21.7005   13.0725 C.3       7 UNK        -0.1988 
     52 N         -49.5014  -23.7454   12.0446 N.am      7 UNK        -0.4454 
     53 C         -50.2649  -24.8336   11.8590 C.2       7 UNK         0.5027 
     54 O         -51.0556  -25.2635   12.6994 O.2       7 UNK        -0.5083 
     55 CA        -50.0627  -25.6155   10.5458 C.3       6 UNK         0.0844 
     56 C56       -50.7641  -24.9488    9.3355 C.3       14 UNK        -0.0967 
     57 S57       -52.5802  -25.1178    9.3608 S.3       14 UNK        -0.2604 
     58 C58       -52.8491  -26.5674    8.2912 C.3       14 UNK         0.0134 
     59 N         -48.6452  -25.8551   10.2712 N.am      6 UNK        -0.4116 
     60 C         -47.8028  -26.5383   11.0571 C.2       5 UNK         0.5034 
     61 O         -48.1418  -27.1302   12.0796 O.2       5 UNK        -0.5045 
     62 CA        -46.3169  -26.5053   10.6666 C.3       5 UNK         0.0224 
     63 CB        -45.9828  -27.5774    9.6178 C.3       5 UNK        -0.1978 
     64 N         -45.9088  -25.1884   10.1731 N.am      5 UNK        -0.4737 
     65 C         -45.8063  -24.0954   10.9406 C.2       4 UNK         0.5027 
     66 O         -46.0018  -24.0933   12.1557 O.2       4 UNK        -0.5211 
     67 CA        -45.4668  -22.7792   10.2213 C.3       4 UNK         0.0297 
     68 CB        -43.9547  -22.6746    9.9675 C.3       4 UNK        -0.1993 
     69 N         -46.1933  -22.6191    8.9573 N.am      4 UNK        -0.4486 
     70 C         -47.5216  -22.4625    8.8696 C.2       3 UNK         0.4961 
     71 O         -48.2713  -22.4219    9.8440 O.2       3 UNK        -0.5105 
     72 CA        -48.1277  -22.3784    7.4575 C.3       3 UNK         0.0299 
     73 CB        -48.0239  -20.9448    6.9135 C.3       3 UNK        -0.1972 
     74 N         -47.5612  -23.3191    6.4819 N.am      3 UNK        -0.4305 
     75 C         -47.4822  -24.6473    6.6417 C.2       2 UNK         0.5006 
     76 O         -47.7621  -25.2293    7.6918 O.2       2 UNK        -0.5106 
     77 CA        -46.9728  -25.4584    5.4368 C.3       2 UNK         0.0296 
     78 CB        -45.4361  -25.4363    5.3942 C.3       2 UNK        -0.2002 
     79 N         -47.4210  -26.8523    5.4921 N.am      2 UNK        -0.4032 
     80 C         -48.6959  -27.2647    5.4620 C.2       1 UNK         0.5000 
     81 O         -49.6511  -26.5301    5.2016 O.2       1 UNK        -0.5238 
     82 H82       -48.4212  -31.2141    2.6904 H         1 UNK         0.0889 
     83 H83       -46.8019  -31.7138    3.1826 H         1 UNK         0.0889 
     84 H84       -47.0082  -30.3521    2.0776 H         1 UNK         0.0889 
     85 H85       -49.4717  -30.0723    4.2688 H         1 UNK         0.3028 
     86 H86       -50.0316  -28.8228    5.9634 H         1 UNK         0.0864 
     87 H87       -47.1941  -29.2988    7.0132 H         1 UNK         0.0720 
     88 H88       -48.3628  -28.3564    7.8770 H         1 UNK         0.0720 
     89 H89       -48.7587  -29.3956    9.8934 H         1 UNK         0.0814 
     90 H90       -49.3645  -30.9973   10.1791 H         1 UNK         0.0814 
     91 H91       -50.4819  -27.8909    8.2943 H         1 UNK         0.1469 
     92 H92       -54.4423  -28.0881    9.9020 H         1 UNK         0.1381 
     93 H93       -51.5876  -31.1303   10.8827 H         1 UNK         0.1206 
     94 H94       -53.9505  -31.4537   11.4019 H         1 UNK         0.0813 
     95 H95       -55.1545  -30.2762   10.9221 H         1 UNK         0.0813 
     96 H96       -54.9270  -30.8030   14.9559 H         1 UNK         0.0638 
     97 H97       -55.1076  -31.8088   13.5425 H         1 UNK         0.0638 
     98 H98       -57.0543  -30.5313   12.7894 H         1 UNK         0.0568 
     99 H99       -58.2114  -29.9245   16.0005 H         1 UNK         0.3450 
    100 H100      -58.8597  -31.5249   16.2627 H         1 UNK         0.3450 
    101 H101      -56.1219  -28.4658   14.4719 H         1 UNK         0.2987 
    102 H102      -58.5910  -26.2343   13.3067 H         1 UNK         0.0766 
    103 H103      -58.4498  -25.2839   15.5907 H         1 UNK         0.0798 
    104 H104      -57.7615  -26.7838   16.2096 H         1 UNK         0.0798 
    105 H105      -59.4182  -26.7482   15.6177 H         1 UNK         0.0798 
    106 H106      -56.1480  -25.6816   14.6149 H         1 UNK         0.3198 
    107 H107      -53.9721  -25.8950   11.8521 H         1 UNK         0.0843 
    108 H108      -53.7662  -23.4468   12.0743 H         1 UNK         0.0831 
    109 H109      -55.2676  -23.3670   12.9990 H         1 UNK         0.0831 
    110 H110      -55.2924  -23.8490   11.3072 H         1 UNK         0.0831 
    111 H111      -52.7280  -25.7560   13.6173 H         1 UNK         0.3133 
    112 H112      -52.3197  -24.1733   16.0932 H         1 UNK         0.0566 
    113 H113      -52.2914  -25.5482   18.1958 H         1 UNK         0.0814 
    114 H114      -53.8376  -24.7673   17.9148 H         1 UNK         0.0814 
    115 H115      -53.6591  -26.4822   17.5884 H         1 UNK         0.0814 
    116 H116      -50.7921  -25.5259   15.3316 H         1 UNK         0.3091 
    117 H117      -49.9730  -28.7720   15.7035 H         1 UNK         0.0702 
    118 H118      -51.2952  -29.5369   13.7753 H         1 UNK         0.0785 
    119 H119      -49.6619  -29.1932   13.2413 H         1 UNK         0.0785 
    120 H120      -50.9610  -28.0552   12.8899 H         1 UNK         0.0785 
    121 H121      -48.9944  -26.8065   13.8235 H         1 UNK         0.2998 
    122 H122      -47.2033  -24.8807   16.2467 H         1 UNK         0.0697 
    123 H123      -46.2382  -26.7177   13.9913 H         1 UNK         0.0825 
    124 H124      -45.6716  -26.7488   15.6540 H         1 UNK         0.0825 
    125 H125      -45.3526  -25.3433   14.6494 H         1 UNK         0.0825 
    126 H126      -47.4192  -24.5220   13.4514 H         1 UNK         0.3029 
    127 H127      -50.4918  -22.6270   13.4784 H         1 UNK         0.0897 
    128 H128      -48.9913  -21.0772   12.2670 H         1 UNK         0.0792 
    129 H129      -48.5820  -21.0885   13.9752 H         1 UNK         0.0792 
    130 H130      -47.5714  -21.9561   12.8270 H         1 UNK         0.0792 
    131 H131      -48.9129  -23.4195   11.2801 H         1 UNK         0.3086 
    132 H132      -50.5085  -26.5971   10.7071 H         1 UNK         0.0583 
    133 H133      -50.5170  -23.8876    9.2797 H         1 UNK         0.1020 
    134 H134      -50.3960  -25.3781    8.4024 H         1 UNK         0.1020 
    135 H135      -53.8978  -26.5879    7.9911 H         1 UNK         0.0694 
    136 H136      -52.2734  -26.4645    7.3697 H         1 UNK         0.0694 
    137 H137      -48.2729  -25.4501    9.4143 H         1 UNK         0.2989 
    138 H138      -45.7409  -26.7254   11.5680 H         1 UNK         0.1055 
    139 H139      -46.3491  -28.5581    9.9243 H         1 UNK         0.0806 
    140 H140      -44.9054  -27.6656    9.4778 H         1 UNK         0.0806 
    141 H141      -46.4222  -27.3464    8.6485 H         1 UNK         0.0806 
    142 H142      -45.7987  -25.0885    9.1741 H         1 UNK         0.3061 
    143 H143      -45.7576  -21.9590   10.8816 H         1 UNK         0.0734 
    144 H144      -43.6902  -21.7083    9.5376 H         1 UNK         0.0832 
    145 H145      -43.3966  -22.7756   10.8995 H         1 UNK         0.0832 
    146 H146      -43.6005  -23.4528    9.2904 H         1 UNK         0.0832 
    147 H147      -45.6541  -22.6467    8.1042 H         1 UNK         0.3156 
    148 H148      -49.1875  -22.6235    7.5500 H         1 UNK         0.0589 
    149 H149      -46.9878  -20.6498    6.7423 H         1 UNK         0.0808 
    150 H150      -48.5645  -20.8359    5.9730 H         1 UNK         0.0808 
    151 H151      -48.4546  -20.2288    7.6153 H         1 UNK         0.0808 
    152 H152      -47.2865  -22.9273    5.5922 H         1 UNK         0.3098 
    153 H153      -47.3663  -25.0122    4.5214 H         1 UNK         0.0720 
    154 H154      -45.0561  -25.9900    4.5352 H         1 UNK         0.0791 
    155 H155      -45.0016  -25.8755    6.2935 H         1 UNK         0.0791 
    156 H156      -45.0569  -24.4169    5.3123 H         1 UNK         0.0791 
    157 H157      -46.7086  -27.5604    5.6200 H         1 UNK         0.3028 
@<TRIPOS>BOND
     1    1    2 1    
     2    1   82 1    
     3    1   83 1    
     4    1   84 1    
     5    2    3 2    
     6    2    4 am   BACKBONE|DICT|INTERRES
     7    4    5 1    
     8    4   85 1    
     9    5    6 1    
    10    5   80 1    
    11    5   86 1    
    12    6    7 1    
    13    6   87 1    
    14    6   88 1    
    15    7    8 1    
    16    8    9 1    
    17    8   89 1    
    18    8   90 1    
    19    9   10 ar   
    20    9   14 ar   
    21   10   11 ar   
    22   10   91 1    
    23   11   12 ar   
    24   11   58 1    
    25   12   13 ar   
    26   12   92 1    
    27   13   14 ar   
    28   13   15 1    
    29   14   93 1    
    30   15   16 1    
    31   15   94 1    
    32   15   95 1    
    33   16   17 1    
    34   17   18 1    
    35   17   96 1    
    36   17   97 1    
    37   18   19 1    
    38   18   22 1    
    39   18   98 1    
    40   19   20 am   BACKBONE|DICT|INTERRES
    41   19   21 2    
    42   20   99 1    
    43   20  100 1    
    44   22   23 am   BACKBONE|DICT|INTERRES
    45   22  101 1    
    46   23   24 2    
    47   23   25 1    
    48   25   26 1    
    49   25   27 1    
    50   25  102 1    
    51   26  103 1    
    52   26  104 1    
    53   26  105 1    
    54   27   28 am   BACKBONE|DICT|INTERRES
    55   27  106 1    
    56   28   29 2    
    57   28   30 1    
    58   30   31 1    
    59   30   32 1    
    60   30  107 1    
    61   31  108 1    
    62   31  109 1    
    63   31  110 1    
    64   32   33 am   BACKBONE|DICT|INTERRES
    65   32  111 1    
    66   33   34 2    
    67   33   35 1    
    68   35   36 1    
    69   35   37 1    
    70   35  112 1    
    71   36  113 1    
    72   36  114 1    
    73   36  115 1    
    74   37   38 am   BACKBONE|DICT|INTERRES
    75   37  116 1    
    76   38   39 2    
    77   38   40 1    
    78   40   41 1    
    79   40   42 1    
    80   40  117 1    
    81   41  118 1    
    82   41  119 1    
    83   41  120 1    
    84   42   43 am   BACKBONE|DICT|INTERRES
    85   42  121 1    
    86   43   44 2    
    87   43   45 1    
    88   45   46 1    
    89   45   47 1    
    90   45  122 1    
    91   46  123 1    
    92   46  124 1    
    93   46  125 1    
    94   47   48 am   BACKBONE|DICT|INTERRES
    95   47  126 1    
    96   48   49 2    
    97   48   50 1    
    98   50   51 1    
    99   50   52 1    
   100   50  127 1    
   101   51  128 1    
   102   51  129 1    
   103   51  130 1    
   104   52   53 am   BACKBONE|DICT|INTERRES
   105   52  131 1    
   106   53   54 2    
   107   53   55 1    
   108   55   56 1    
   109   55   59 1    
   110   55  132 1    
   111   56   57 1    
   112   56  133 1    
   113   56  134 1    
   114   57   58 1    
   115   58  135 1    
   116   58  136 1    
   117   59   60 am   BACKBONE|DICT|INTERRES
   118   59  137 1    
   119   60   61 2    
   120   60   62 1    
   121   62   63 1    
   122   62   64 1    
   123   62  138 1    
   124   63  139 1    
   125   63  140 1    
   126   63  141 1    
   127   64   65 am   BACKBONE|DICT|INTERRES
   128   64  142 1    
   129   65   66 2    
   130   65   67 1    
   131   67   68 1    
   132   67   69 1    
   133   67  143 1    
   134   68  144 1    
   135   68  145 1    
   136   68  146 1    
   137   69   70 am   BACKBONE|DICT|INTERRES
   138   69  147 1    
   139   70   71 2    
   140   70   72 1    
   141   72   73 1    
   142   72   74 1    
   143   72  148 1    
   144   73  149 1    
   145   73  150 1    
   146   73  151 1    
   147   74   75 am   BACKBONE|DICT|INTERRES
   148   74  152 1    
   149   75   76 2    
   150   75   77 1    
   151   77   78 1    
   152   77   79 1    
   153   77  153 1    
   154   78  154 1    
   155   78  155 1    
   156   78  156 1    
   157   79   80 am   BACKBONE|DICT|INTERRES
   158   79  157 1    
   159   80   81 2    
@<TRIPOS>SUBSTRUCTURE
     1 UNK         1 GROUP             0       ****    0 ROOT    
