@<TRIPOS>MOLECULE
3R207
157   159    1
SMALL
USER_CHARGES


@<TRIPOS>ATOM
      1 CA        -45.2070  -30.5208    7.0515 C.3       0 UNK        -0.1975 
      2 C         -46.0666  -29.2875    7.2800 C.2       0 UNK         0.4852 
      3 O         -45.5889  -28.3180    7.8688 O.2       0 UNK        -0.5216 
      4 N         -47.3174  -29.3104    6.7960 N.am      1 UNK        -0.4461 
      5 CA        -48.3484  -28.2705    6.9547 C.3       1 UNK         0.0864 
      6 C6        -48.9584  -28.2201    8.3835 C.3       14 UNK        -0.0898 
      7 S7        -49.6268  -29.8270    8.9321 S.3       14 UNK        -0.2598 
      8 C8        -51.2161  -29.9122    8.0456 C.3       14 UNK         0.0286 
      9 C9        -52.2620  -28.9624    8.6123 C.ar      14 UNK        -0.0844 
     10 C10       -52.5660  -27.7659    7.9570 C.ar      14 UNK        -0.0881 
     11 C11       -53.5693  -26.9242    8.4467 C.ar      14 UNK        -0.0643 
     12 C12       -54.2720  -27.2875    9.5998 C.ar      14 UNK        -0.0930 
     13 C13       -53.9757  -28.4813   10.2696 C.ar      14 UNK        -0.0827 
     14 C14       -52.9670  -29.3097    9.7674 C.ar      14 UNK        -0.1249 
     15 C15       -54.7516  -28.9378   11.5034 C.3       14 UNK         0.0141 
     16 S16       -55.3090  -27.5899   12.5978 S.3       14 UNK        -0.2313 
     17 C17       -57.0620  -27.3803   12.1209 C.3       14 UNK        -0.0915 
     18 CA        -58.0530  -28.2380   12.9620 C.3       13 UNK         0.0968 
     19 C         -58.2308  -29.6652   12.3624 C.2       13 UNK         0.5732 
     20 N         -57.7818  -30.7338   13.0108 N.am      13 UNK        -0.7310 
     21 O         -58.7976  -29.8033   11.2811 O.2       13 UNK        -0.5035 
     22 N         -57.7141  -28.1999   14.3912 N.am      13 UNK        -0.4233 
     23 C         -58.4845  -28.6216   15.3997 C.2       13 UNK         0.4989 
     24 O         -59.6699  -28.9319   15.2688 O.2       13 UNK        -0.4996 
     25 CA        -57.8034  -28.7245   16.7834 C.3       12 UNK         0.0216 
     26 CB        -58.4755  -29.7777   17.6895 C.3       12 UNK        -0.1964 
     27 N         -56.3497  -28.9591   16.7213 N.am      12 UNK        -0.4276 
     28 C         -55.7053  -29.9662   16.1113 C.2       12 UNK         0.5020 
     29 O         -56.2774  -30.8557   15.4783 O.2       12 UNK        -0.5489 
     30 CA        -54.1647  -29.9412   16.1830 C.3       11 UNK         0.0294 
     31 CB        -53.5214  -31.1409   15.4628 C.3       11 UNK        -0.2019 
     32 N         -53.6078  -28.7089   15.6196 N.am      11 UNK        -0.4493 
     33 C         -53.5914  -27.5065   16.2027 C.2       11 UNK         0.4932 
     34 O         -54.0537  -27.3023   17.3274 O.2       11 UNK        -0.5029 
     35 CA        -52.9867  -26.3461   15.3868 C.3       10 UNK         0.0280 
     36 CB        -53.0147  -25.0109   16.1531 C.3       10 UNK        -0.1976 
     37 N         -51.6181  -26.5939   14.9260 N.am      10 UNK        -0.4242 
     38 C         -51.2303  -27.4220   13.9457 C.2       10 UNK         0.5072 
     39 O         -51.9956  -28.2077   13.3859 O.2       10 UNK        -0.5224 
     40 CA        -49.7466  -27.3737   13.5155 C.3       9 UNK         0.0343 
     41 CB        -49.5543  -27.8301   12.0572 C.3       9 UNK        -0.2003 
     42 N         -49.1380  -26.0486   13.6682 N.am      9 UNK        -0.4272 
     43 C         -48.6981  -25.5179   14.8175 C.2       9 UNK         0.4988 
     44 O         -48.7610  -26.0936   15.9033 O.2       9 UNK        -0.5108 
     45 CA        -48.1556  -24.0860   14.7505 C.3       8 UNK         0.0248 
     46 CB        -46.7381  -24.0750   14.1617 C.3       8 UNK        -0.2001 
     47 N         -49.0425  -23.2426   13.9467 N.am      8 UNK        -0.4140 
     48 C         -50.1091  -22.5963   14.4407 C.2       8 UNK         0.5028 
     49 O         -50.3974  -22.5700   15.6375 O.2       8 UNK        -0.5428 
     50 CA        -51.0138  -21.8492   13.4438 C.3       7 UNK         0.0264 
     51 CB        -50.5664  -20.3849   13.3059 C.3       7 UNK        -0.1988 
     52 N         -51.0520  -22.4681   12.1176 N.am      7 UNK        -0.4454 
     53 C         -51.6507  -23.6350   11.8326 C.2       7 UNK         0.5027 
     54 O         -52.3038  -24.2804   12.6499 O.2       7 UNK        -0.5083 
     55 CA        -51.4893  -24.1764   10.3944 C.3       6 UNK         0.0844 
     56 C56       -52.7512  -23.8448    9.5578 C.3       14 UNK        -0.0967 
     57 S57       -52.6183  -24.3873    7.8175 S.3       14 UNK        -0.2604 
     58 C58       -53.9255  -25.6475    7.6992 C.3       14 UNK         0.0134 
     59 N         -50.2599  -23.7166    9.7325 N.am      6 UNK        -0.4116 
     60 C         -49.0071  -23.9348   10.1508 C.2       5 UNK         0.5034 
     61 O         -48.7295  -24.4892   11.2185 O.2       5 UNK        -0.5045 
     62 CA        -47.9016  -23.3984    9.2268 C.3       5 UNK         0.0224 
     63 CB        -47.6009  -21.9102    9.5001 C.3       5 UNK        -0.1978 
     64 N         -46.7070  -24.2488    9.2713 N.am      5 UNK        -0.4737 
     65 C         -45.7460  -24.3088   10.2047 C.2       4 UNK         0.5027 
     66 O         -45.5852  -23.4857   11.1047 O.2       4 UNK        -0.5211 
     67 CA        -44.7925  -25.5103   10.1214 C.3       4 UNK         0.0297 
     68 CB        -45.3979  -26.7182   10.8558 C.3       4 UNK        -0.1993 
     69 N         -44.4744  -25.8895    8.7439 N.am      4 UNK        -0.4486 
     70 C         -43.6307  -25.2143    7.9517 C.2       3 UNK         0.4961 
     71 O         -43.0252  -24.1989    8.2966 O.2       3 UNK        -0.5105 
     72 CA        -43.4209  -25.7702    6.5359 C.3       3 UNK         0.0299 
     73 CB        -42.5439  -27.0337    6.5629 C.3       3 UNK        -0.1972 
     74 N         -44.6936  -26.0639    5.8774 N.am      3 UNK        -0.4305 
     75 C         -45.4591  -25.1465    5.2690 C.2       2 UNK         0.5006 
     76 O         -45.1586  -23.9556    5.1787 O.2       2 UNK        -0.5106 
     77 CA        -46.7745  -25.6309    4.6299 C.3       2 UNK         0.0296 
     78 CB        -46.5799  -25.8744    3.1241 C.3       2 UNK        -0.2002 
     79 N         -47.3232  -26.8424    5.2460 N.am      2 UNK        -0.4032 
     80 C         -47.8654  -26.8859    6.4710 C.2       1 UNK         0.5000 
     81 O         -47.9507  -25.9035    7.2086 O.2       1 UNK        -0.5238 
     82 H82       -44.3228  -30.2594    6.4711 H         1 UNK         0.0889 
     83 H83       -45.7469  -31.3024    6.5174 H         1 UNK         0.0889 
     84 H84       -44.8790  -30.9276    8.0076 H         1 UNK         0.0889 
     85 H85       -47.6297  -30.1431    6.3160 H         1 UNK         0.3028 
     86 H86       -49.1520  -28.5401    6.2689 H         1 UNK         0.0864 
     87 H87       -49.7503  -27.4718    8.4469 H         1 UNK         0.0720 
     88 H88       -48.2003  -27.9131    9.1053 H         1 UNK         0.0720 
     89 H89       -51.5918  -30.9342    8.1132 H         1 UNK         0.0814 
     90 H90       -51.0602  -29.7259    6.9827 H         1 UNK         0.0814 
     91 H91       -52.0333  -27.4916    7.0569 H         1 UNK         0.1469 
     92 H92       -55.0597  -26.6445    9.9653 H         1 UNK         0.1381 
     93 H93       -52.7367  -30.2400   10.2688 H         1 UNK         0.1206 
     94 H94       -55.5991  -29.5422   11.1818 H         1 UNK         0.0813 
     95 H95       -54.1217  -29.5950   12.1049 H         1 UNK         0.0813 
     96 H96       -57.2997  -26.3260   12.2686 H         1 UNK         0.0638 
     97 H97       -57.1801  -27.5531   11.0494 H         1 UNK         0.0638 
     98 H98       -59.0350  -27.7709   12.8677 H         1 UNK         0.0568 
     99 H99       -57.2998  -30.6529   13.9028 H         1 UNK         0.3450 
    100 H100      -57.9172  -31.6441   12.6026 H         1 UNK         0.3450 
    101 H101      -56.7500  -27.9774   14.5887 H         1 UNK         0.2987 
    102 H102      -57.9347  -27.7494   17.2547 H         1 UNK         0.0766 
    103 H103      -58.4305  -30.7747   17.2496 H         1 UNK         0.0798 
    104 H104      -57.9984  -29.8215   18.6685 H         1 UNK         0.0798 
    105 H105      -59.5274  -29.5419   17.8551 H         1 UNK         0.0798 
    106 H106      -55.7640  -28.2602   17.1729 H         1 UNK         0.3198 
    107 H107      -53.8903  -29.9986   17.2386 H         1 UNK         0.0843 
    108 H108      -53.8830  -32.0845   15.8736 H         1 UNK         0.0831 
    109 H109      -52.4368  -31.1351   15.5727 H         1 UNK         0.0831 
    110 H110      -53.7498  -31.1394   14.3961 H         1 UNK         0.0831 
    111 H111      -53.2022  -28.7648   14.6863 H         1 UNK         0.3133 
    112 H112      -53.6124  -26.2195   14.5028 H         1 UNK         0.0566 
    113 H113      -52.6789  -24.1886   15.5213 H         1 UNK         0.0814 
    114 H114      -54.0254  -24.7662   16.4825 H         1 UNK         0.0814 
    115 H115      -52.3774  -25.0379   17.0377 H         1 UNK         0.0814 
    116 H116      -50.8925  -26.0530   15.3771 H         1 UNK         0.3091 
    117 H117      -49.2103  -28.0758   14.1569 H         1 UNK         0.0702 
    118 H118      -49.9069  -28.8523   11.9136 H         1 UNK         0.0785 
    119 H119      -48.5038  -27.8094   11.7670 H         1 UNK         0.0785 
    120 H120      -50.1061  -27.1972   11.3611 H         1 UNK         0.0785 
    121 H121      -49.0513  -25.4980   12.8176 H         1 UNK         0.2998 
    122 H122      -48.0982  -23.6911   15.7673 H         1 UNK         0.0697 
    123 H123      -46.7103  -24.5442   13.1788 H         1 UNK         0.0825 
    124 H124      -46.0463  -24.6240   14.8016 H         1 UNK         0.0825 
    125 H125      -46.3535  -23.0602   14.0596 H         1 UNK         0.0825 
    126 H126      -48.8985  -23.2631   12.9442 H         1 UNK         0.3029 
    127 H127      -52.0273  -21.8604   13.8516 H         1 UNK         0.0897 
    128 H128      -51.2455  -19.8202   12.6667 H         1 UNK         0.0792 
    129 H129      -50.5525  -19.8891   14.2777 H         1 UNK         0.0792 
    130 H130      -49.5629  -20.3052   12.8857 H         1 UNK         0.0792 
    131 H131      -50.5560  -21.9929   11.3781 H         1 UNK         0.3086 
    132 H132      -51.4164  -25.2634   10.4723 H         1 UNK         0.0583 
    133 H133      -53.6335  -24.2980   10.0144 H         1 UNK         0.1020 
    134 H134      -52.9371  -22.7687    9.5536 H         1 UNK         0.1020 
    135 H135      -54.8670  -25.2292    8.0590 H         1 UNK         0.0694 
    136 H136      -54.0839  -25.8869    6.6468 H         1 UNK         0.0694 
    137 H137      -50.4014  -23.2664    8.8396 H         1 UNK         0.2989 
    138 H138      -48.2638  -23.4756    8.2003 H         1 UNK         0.1055 
    139 H139      -46.7585  -21.5593    8.9039 H         1 UNK         0.0806 
    140 H140      -47.3722  -21.7231   10.5497 H         1 UNK         0.0806 
    141 H141      -48.4590  -21.2874    9.2454 H         1 UNK         0.0806 
    142 H142      -46.7362  -25.0022    8.5914 H         1 UNK         0.3061 
    143 H143      -43.8639  -25.2370   10.6273 H         1 UNK         0.0734 
    144 H144      -45.6175  -26.4739   11.8959 H         1 UNK         0.0832 
    145 H145      -46.3312  -27.0427   10.3946 H         1 UNK         0.0832 
    146 H146      -44.7136  -27.5667   10.8574 H         1 UNK         0.0832 
    147 H147      -44.9129  -26.7401    8.3893 H         1 UNK         0.3156 
    148 H148      -42.8903  -25.0138    5.9533 H         1 UNK         0.0589 
    149 H149      -43.0071  -27.8436    7.1272 H         1 UNK         0.0808 
    150 H150      -42.3447  -27.3990    5.5553 H         1 UNK         0.0808 
    151 H151      -41.5791  -26.8258    7.0276 H         1 UNK         0.0808 
    152 H152      -45.0400  -27.0091    5.9577 H         1 UNK         0.3098 
    153 H153      -47.5073  -24.8300    4.7518 H         1 UNK         0.0720 
    154 H154      -47.5207  -26.1345    2.6386 H         1 UNK         0.0791 
    155 H155      -45.8678  -26.6782    2.9327 H         1 UNK         0.0791 
    156 H156      -46.2002  -24.9788    2.6300 H         1 UNK         0.0791 
    157 H157      -47.2738  -27.6948    4.7063 H         1 UNK         0.3028 
@<TRIPOS>BOND
     1    1    2 1    
     2    1   82 1    
     3    1   83 1    
     4    1   84 1    
     5    2    3 2    
     6    2    4 am   BACKBONE|DICT|INTERRES
     7    4    5 1    
     8    4   85 1    
     9    5    6 1    
    10    5   80 1    
    11    5   86 1    
    12    6    7 1    
    13    6   87 1    
    14    6   88 1    
    15    7    8 1    
    16    8    9 1    
    17    8   89 1    
    18    8   90 1    
    19    9   10 ar   
    20    9   14 ar   
    21   10   11 ar   
    22   10   91 1    
    23   11   12 ar   
    24   11   58 1    
    25   12   13 ar   
    26   12   92 1    
    27   13   14 ar   
    28   13   15 1    
    29   14   93 1    
    30   15   16 1    
    31   15   94 1    
    32   15   95 1    
    33   16   17 1    
    34   17   18 1    
    35   17   96 1    
    36   17   97 1    
    37   18   19 1    
    38   18   22 1    
    39   18   98 1    
    40   19   20 am   BACKBONE|DICT|INTERRES
    41   19   21 2    
    42   20   99 1    
    43   20  100 1    
    44   22   23 am   BACKBONE|DICT|INTERRES
    45   22  101 1    
    46   23   24 2    
    47   23   25 1    
    48   25   26 1    
    49   25   27 1    
    50   25  102 1    
    51   26  103 1    
    52   26  104 1    
    53   26  105 1    
    54   27   28 am   BACKBONE|DICT|INTERRES
    55   27  106 1    
    56   28   29 2    
    57   28   30 1    
    58   30   31 1    
    59   30   32 1    
    60   30  107 1    
    61   31  108 1    
    62   31  109 1    
    63   31  110 1    
    64   32   33 am   BACKBONE|DICT|INTERRES
    65   32  111 1    
    66   33   34 2    
    67   33   35 1    
    68   35   36 1    
    69   35   37 1    
    70   35  112 1    
    71   36  113 1    
    72   36  114 1    
    73   36  115 1    
    74   37   38 am   BACKBONE|DICT|INTERRES
    75   37  116 1    
    76   38   39 2    
    77   38   40 1    
    78   40   41 1    
    79   40   42 1    
    80   40  117 1    
    81   41  118 1    
    82   41  119 1    
    83   41  120 1    
    84   42   43 am   BACKBONE|DICT|INTERRES
    85   42  121 1    
    86   43   44 2    
    87   43   45 1    
    88   45   46 1    
    89   45   47 1    
    90   45  122 1    
    91   46  123 1    
    92   46  124 1    
    93   46  125 1    
    94   47   48 am   BACKBONE|DICT|INTERRES
    95   47  126 1    
    96   48   49 2    
    97   48   50 1    
    98   50   51 1    
    99   50   52 1    
   100   50  127 1    
   101   51  128 1    
   102   51  129 1    
   103   51  130 1    
   104   52   53 am   BACKBONE|DICT|INTERRES
   105   52  131 1    
   106   53   54 2    
   107   53   55 1    
   108   55   56 1    
   109   55   59 1    
   110   55  132 1    
   111   56   57 1    
   112   56  133 1    
   113   56  134 1    
   114   57   58 1    
   115   58  135 1    
   116   58  136 1    
   117   59   60 am   BACKBONE|DICT|INTERRES
   118   59  137 1    
   119   60   61 2    
   120   60   62 1    
   121   62   63 1    
   122   62   64 1    
   123   62  138 1    
   124   63  139 1    
   125   63  140 1    
   126   63  141 1    
   127   64   65 am   BACKBONE|DICT|INTERRES
   128   64  142 1    
   129   65   66 2    
   130   65   67 1    
   131   67   68 1    
   132   67   69 1    
   133   67  143 1    
   134   68  144 1    
   135   68  145 1    
   136   68  146 1    
   137   69   70 am   BACKBONE|DICT|INTERRES
   138   69  147 1    
   139   70   71 2    
   140   70   72 1    
   141   72   73 1    
   142   72   74 1    
   143   72  148 1    
   144   73  149 1    
   145   73  150 1    
   146   73  151 1    
   147   74   75 am   BACKBONE|DICT|INTERRES
   148   74  152 1    
   149   75   76 2    
   150   75   77 1    
   151   77   78 1    
   152   77   79 1    
   153   77  153 1    
   154   78  154 1    
   155   78  155 1    
   156   78  156 1    
   157   79   80 am   BACKBONE|DICT|INTERRES
   158   79  157 1    
   159   80   81 2    
@<TRIPOS>SUBSTRUCTURE
     1 UNK         1 GROUP             0       ****    0 ROOT    
