@<TRIPOS>MOLECULE
3R207
157   159    1
SMALL
USER_CHARGES


@<TRIPOS>ATOM
      1 CA        -50.7898  -32.7591    8.3014 C.3       0 UNK        -0.1975 
      2 C         -49.8783  -32.0788    7.2941 C.2       0 UNK         0.4852 
      3 O         -48.7241  -32.4825    7.1467 O.2       0 UNK        -0.5216 
      4 N         -50.3863  -31.0526    6.5959 N.am      1 UNK        -0.4461 
      5 CA        -49.6381  -30.2988    5.5821 C.3       1 UNK         0.0864 
      6 C6        -50.5784  -29.6099    4.5588 C.3       14 UNK        -0.0898 
      7 S7        -51.4561  -28.1152    5.1390 S.3       14 UNK        -0.2598 
      8 C8        -53.0566  -28.7667    5.7273 C.3       14 UNK         0.0286 
      9 C9        -53.0838  -28.9024    7.2439 C.ar      14 UNK        -0.0844 
     10 C10       -52.8442  -27.7788    8.0403 C.ar      14 UNK        -0.0881 
     11 C11       -52.8428  -27.8759    9.4332 C.ar      14 UNK        -0.0643 
     12 C12       -53.1056  -29.1096   10.0292 C.ar      14 UNK        -0.0930 
     13 C13       -53.4081  -30.2325    9.2514 C.ar      14 UNK        -0.0827 
     14 C14       -53.3823  -30.1250    7.8555 C.ar      14 UNK        -0.1249 
     15 C15       -53.7701  -31.5583    9.9158 C.3       14 UNK         0.0141 
     16 S16       -54.9177  -31.3747   11.3226 S.3       14 UNK        -0.2313 
     17 C17       -56.4731  -30.8894   10.5018 C.3       14 UNK        -0.0915 
     18 CA        -56.6481  -29.3612   10.2724 C.3       13 UNK         0.0968 
     19 C         -58.0393  -29.0755    9.6342 C.2       13 UNK         0.5732 
     20 N         -58.9764  -28.4453   10.3332 N.am      13 UNK        -0.7310 
     21 O         -58.2722  -29.4346    8.4824 O.2       13 UNK        -0.5035 
     22 N         -56.3314  -28.5628   11.4714 N.am      13 UNK        -0.4233 
     23 C         -56.1575  -27.2355   11.4871 C.2       13 UNK         0.4989 
     24 O         -56.2479  -26.5229   10.4875 O.2       13 UNK        -0.4996 
     25 CA        -55.8199  -26.5716   12.8356 C.3       12 UNK         0.0216 
     26 CB        -57.0732  -26.4479   13.7248 C.3       12 UNK        -0.1964 
     27 N         -54.6948  -27.1759   13.5653 N.am      12 UNK        -0.4276 
     28 C         -54.6058  -28.3932   14.1214 C.2       12 UNK         0.5020 
     29 O         -55.5038  -29.2349   14.0842 O.2       12 UNK        -0.5489 
     30 CA        -53.2878  -28.7340   14.8399 C.3       11 UNK         0.0294 
     31 CB        -52.3489  -29.5258   13.9148 C.3       11 UNK        -0.2019 
     32 N         -52.5713  -27.5603   15.3480 N.am      11 UNK        -0.4493 
     33 C         -52.9224  -26.8529   16.4319 C.2       11 UNK         0.4932 
     34 O         -53.9337  -27.0857   17.0956 O.2       11 UNK        -0.5029 
     35 CA        -51.9892  -25.6897   16.8349 C.3       10 UNK         0.0280 
     36 CB        -52.0462  -25.3719   18.3441 C.3       10 UNK        -0.1976 
     37 N         -50.5993  -25.8615   16.3861 N.am      10 UNK        -0.4242 
     38 C         -49.7444  -26.8364   16.7378 C.2       10 UNK         0.5072 
     39 O         -50.0112  -27.7351   17.5365 O.2       10 UNK        -0.5224 
     40 CA        -48.3623  -26.8316   16.0626 C.3       9 UNK         0.0343 
     41 CB        -48.4118  -27.6043   14.7338 C.3       9 UNK        -0.2003 
     42 N         -47.8207  -25.4920   15.8245 N.am      9 UNK        -0.4272 
     43 C         -47.4054  -24.6547   16.7870 C.2       9 UNK         0.4988 
     44 O         -47.4699  -24.9041   17.9911 O.2       9 UNK        -0.5108 
     45 CA        -46.8037  -23.3181   16.3290 C.3       8 UNK         0.0248 
     46 CB        -45.3559  -23.5105   15.8461 C.3       8 UNK        -0.2001 
     47 N         -47.6007  -22.7177   15.2600 N.am      8 UNK        -0.4140 
     48 C         -48.6210  -21.8714   15.4584 C.2       8 UNK         0.5028 
     49 O         -48.9539  -21.4444   16.5646 O.2       8 UNK        -0.5428 
     50 CA        -49.4139  -21.4226   14.2156 C.3       7 UNK         0.0264 
     51 CB        -48.8537  -20.0995   13.6691 C.3       7 UNK        -0.1988 
     52 N         -49.4345  -22.4160   13.1384 N.am      7 UNK        -0.4454 
     53 C         -50.0135  -23.6229   13.2269 C.2       7 UNK         0.5027 
     54 O         -50.6235  -24.0174   14.2202 O.2       7 UNK        -0.5083 
     55 CA        -49.8463  -24.5790   12.0299 C.3       6 UNK         0.0844 
     56 C56       -51.0475  -24.4361   11.0687 C.3       14 UNK        -0.0967 
     57 S57       -51.0768  -25.7774    9.8409 S.3       14 UNK        -0.2604 
     58 C58       -52.6067  -26.6446   10.2952 C.3       14 UNK         0.0134 
     59 N         -48.5537  -24.4293   11.3448 N.am      6 UNK        -0.4116 
     60 C         -47.3495  -24.5518   11.9268 C.2       5 UNK         0.5034 
     61 O         -47.2014  -24.8153   13.1209 O.2       5 UNK        -0.5045 
     62 CA        -46.0955  -24.3053   11.0706 C.3       5 UNK         0.0224 
     63 CB        -45.2602  -25.5874   10.9233 C.3       5 UNK        -0.1978 
     64 N         -46.3837  -23.7462    9.7463 N.am      5 UNK        -0.4737 
     65 C         -46.6771  -22.4560    9.5253 C.2       4 UNK         0.5027 
     66 O         -46.7483  -21.6155   10.4222 O.2       4 UNK        -0.5211 
     67 CA        -46.9537  -22.0273    8.0723 C.3       4 UNK         0.0297 
     68 CB        -45.6750  -21.4709    7.4263 C.3       4 UNK        -0.1993 
     69 N         -47.4893  -23.1038    7.2350 N.am      4 UNK        -0.4486 
     70 C         -48.6918  -23.6707    7.4004 C.2       3 UNK         0.4961 
     71 O         -49.4943  -23.3093    8.2596 O.2       3 UNK        -0.5105 
     72 CA        -49.0574  -24.8434    6.4677 C.3       3 UNK         0.0299 
     73 CB        -48.2926  -24.8303    5.1256 C.3       3 UNK        -0.1972 
     74 N         -48.9113  -26.1525    7.1152 N.am      3 UNK        -0.4305 
     75 C         -47.8262  -26.6416    7.7365 C.2       2 UNK         0.5006 
     76 O         -46.7804  -26.0105    7.8979 O.2       2 UNK        -0.5106 
     77 CA        -47.8992  -28.0936    8.2451 C.3       2 UNK         0.0296 
     78 CB        -48.3072  -28.1614    9.7274 C.3       2 UNK        -0.2002 
     79 N         -48.7909  -28.9552    7.4658 N.am      2 UNK        -0.4032 
     80 C         -48.5904  -29.3411    6.1957 C.2       1 UNK         0.5000 
     81 O         -47.6209  -28.9933    5.5188 O.2       1 UNK        -0.5238 
     82 H82       -50.5403  -33.8164    8.3865 H         1 UNK         0.0889 
     83 H83       -51.8342  -32.6886    8.0020 H         1 UNK         0.0889 
     84 H84       -50.6703  -32.3005    9.2822 H         1 UNK         0.0889 
     85 H85       -51.3320  -30.7406    6.7702 H         1 UNK         0.3028 
     86 H86       -49.0611  -31.0312    5.0124 H         1 UNK         0.0864 
     87 H87       -49.9901  -29.3068    3.6907 H         1 UNK         0.0720 
     88 H88       -51.3002  -30.3293    4.1696 H         1 UNK         0.0720 
     89 H89       -53.2874  -29.7139    5.2382 H         1 UNK         0.0814 
     90 H90       -53.8437  -28.0728    5.4291 H         1 UNK         0.0814 
     91 H91       -52.6491  -26.8231    7.5731 H         1 UNK         0.1469 
     92 H92       -53.1243  -29.1878   11.1056 H         1 UNK         0.1381 
     93 H93       -53.6124  -30.9888    7.2464 H         1 UNK         0.1206 
     94 H94       -54.2018  -32.2532    9.1940 H         1 UNK         0.0813 
     95 H95       -52.8566  -32.0219   10.2870 H         1 UNK         0.0813 
     96 H96       -56.5460  -31.4269    9.5545 H         1 UNK         0.0638 
     97 H97       -57.2875  -31.2655   11.1237 H         1 UNK         0.0638 
     98 H98       -55.9248  -29.0636    9.5124 H         1 UNK         0.0568 
     99 H99       -59.8720  -28.2648    9.9082 H         1 UNK         0.3450 
    100 H100      -58.7960  -28.1515   11.2791 H         1 UNK         0.3450 
    101 H101      -56.1984  -29.0710   12.3426 H         1 UNK         0.2987 
    102 H102      -55.4950  -25.5562   12.6021 H         1 UNK         0.0766 
    103 H103      -56.8549  -25.8982   14.6404 H         1 UNK         0.0798 
    104 H104      -57.4743  -27.4213   14.0085 H         1 UNK         0.0798 
    105 H105      -57.8672  -25.9095   13.2056 H         1 UNK         0.0798 
    106 H106      -53.8857  -26.5804   13.6665 H         1 UNK         0.3198 
    107 H107      -53.5430  -29.3723   15.6889 H         1 UNK         0.0843 
    108 H108      -52.8601  -30.3850   13.4780 H         1 UNK         0.0831 
    109 H109      -51.4890  -29.9104   14.4636 H         1 UNK         0.0831 
    110 H110      -51.9725  -28.9135   13.0953 H         1 UNK         0.0831 
    111 H111      -51.7177  -27.3033   14.8757 H         1 UNK         0.3133 
    112 H112      -52.3642  -24.8131   16.3050 H         1 UNK         0.0566 
    113 H113      -51.3880  -24.5411   18.5988 H         1 UNK         0.0814 
    114 H114      -53.0549  -25.0889   18.6477 H         1 UNK         0.0814 
    115 H115      -51.7541  -26.2297   18.9505 H         1 UNK         0.0814 
    116 H116      -50.2999  -25.1832   15.6892 H         1 UNK         0.3091 
    117 H117      -47.6717  -27.3531   16.7290 H         1 UNK         0.0702 
    118 H118      -47.4235  -27.6731   14.2785 H         1 UNK         0.0785 
    119 H119      -49.0770  -27.1299   14.0133 H         1 UNK         0.0785 
    120 H120      -48.7694  -28.6236   14.8871 H         1 UNK         0.0785 
    121 H121      -47.6757  -25.2262   14.8531 H         1 UNK         0.2998 
    122 H122      -46.7807  -22.6465   17.1902 H         1 UNK         0.0697 
    123 H123      -45.2960  -24.1756   14.9838 H         1 UNK         0.0825 
    124 H124      -44.7378  -23.9431   16.6340 H         1 UNK         0.0825 
    125 H125      -44.9032  -22.5592   15.5662 H         1 UNK         0.0825 
    126 H126      -47.4241  -23.0551   14.3225 H         1 UNK         0.3029 
    127 H127      -50.4453  -21.2539   14.5332 H         1 UNK         0.0897 
    128 H128      -49.4638  -19.7180   12.8501 H         1 UNK         0.0792 
    129 H129      -48.8384  -19.3318   14.4441 H         1 UNK         0.0792 
    130 H130      -47.8325  -20.2137   13.3022 H         1 UNK         0.0792 
    131 H131      -48.9463  -22.1750   12.2866 H         1 UNK         0.3086 
    132 H132      -49.8664  -25.5902   12.4392 H         1 UNK         0.0583 
    133 H133      -51.9915  -24.4370   11.6180 H         1 UNK         0.1020 
    134 H134      -51.0099  -23.4817   10.5400 H         1 UNK         0.1020 
    135 H135      -52.5574  -26.9165   11.3505 H         1 UNK         0.0694 
    136 H136      -53.4531  -25.9661   10.1808 H         1 UNK         0.0694 
    137 H137      -48.5970  -24.2073   10.3589 H         1 UNK         0.2989 
    138 H138      -45.4881  -23.5834   11.6215 H         1 UNK         0.1055 
    139 H139      -45.0210  -26.0146   11.8984 H         1 UNK         0.0806 
    140 H140      -44.3144  -25.3847   10.4208 H         1 UNK         0.0806 
    141 H141      -45.7802  -26.3538   10.3515 H         1 UNK         0.0806 
    142 H142      -46.3908  -24.3985    8.9653 H         1 UNK         0.3061 
    143 H143      -47.6963  -21.2271    8.1042 H         1 UNK         0.0734 
    144 H144      -45.2680  -20.6474    8.0150 H         1 UNK         0.0832 
    145 H145      -44.8968  -22.2314    7.3495 H         1 UNK         0.0832 
    146 H146      -45.8699  -21.0851    6.4255 H         1 UNK         0.0832 
    147 H147      -46.8757  -23.4871    6.5304 H         1 UNK         0.3156 
    148 H148      -50.1187  -24.7315    6.2408 H         1 UNK         0.0589 
    149 H149      -47.2298  -25.0404    5.2498 H         1 UNK         0.0808 
    150 H150      -48.6937  -25.5828    4.4461 H         1 UNK         0.0808 
    151 H151      -48.3877  -23.8656    4.6252 H         1 UNK         0.0808 
    152 H152      -49.7281  -26.7456    7.0762 H         1 UNK         0.3098 
    153 H153      -46.8890  -28.4997    8.1598 H         1 UNK         0.0720 
    154 H154      -47.8233  -27.3852   10.3194 H         1 UNK         0.0791 
    155 H155      -48.0288  -29.1205   10.1643 H         1 UNK         0.0791 
    156 H156      -49.3818  -28.0447    9.8592 H         1 UNK         0.0791 
    157 H157      -49.6176  -29.2958    7.9341 H         1 UNK         0.3028 
@<TRIPOS>BOND
     1    1    2 1    
     2    1   82 1    
     3    1   83 1    
     4    1   84 1    
     5    2    3 2    
     6    2    4 am   BACKBONE|DICT|INTERRES
     7    4    5 1    
     8    4   85 1    
     9    5    6 1    
    10    5   80 1    
    11    5   86 1    
    12    6    7 1    
    13    6   87 1    
    14    6   88 1    
    15    7    8 1    
    16    8    9 1    
    17    8   89 1    
    18    8   90 1    
    19    9   10 ar   
    20    9   14 ar   
    21   10   11 ar   
    22   10   91 1    
    23   11   12 ar   
    24   11   58 1    
    25   12   13 ar   
    26   12   92 1    
    27   13   14 ar   
    28   13   15 1    
    29   14   93 1    
    30   15   16 1    
    31   15   94 1    
    32   15   95 1    
    33   16   17 1    
    34   17   18 1    
    35   17   96 1    
    36   17   97 1    
    37   18   19 1    
    38   18   22 1    
    39   18   98 1    
    40   19   20 am   BACKBONE|DICT|INTERRES
    41   19   21 2    
    42   20   99 1    
    43   20  100 1    
    44   22   23 am   BACKBONE|DICT|INTERRES
    45   22  101 1    
    46   23   24 2    
    47   23   25 1    
    48   25   26 1    
    49   25   27 1    
    50   25  102 1    
    51   26  103 1    
    52   26  104 1    
    53   26  105 1    
    54   27   28 am   BACKBONE|DICT|INTERRES
    55   27  106 1    
    56   28   29 2    
    57   28   30 1    
    58   30   31 1    
    59   30   32 1    
    60   30  107 1    
    61   31  108 1    
    62   31  109 1    
    63   31  110 1    
    64   32   33 am   BACKBONE|DICT|INTERRES
    65   32  111 1    
    66   33   34 2    
    67   33   35 1    
    68   35   36 1    
    69   35   37 1    
    70   35  112 1    
    71   36  113 1    
    72   36  114 1    
    73   36  115 1    
    74   37   38 am   BACKBONE|DICT|INTERRES
    75   37  116 1    
    76   38   39 2    
    77   38   40 1    
    78   40   41 1    
    79   40   42 1    
    80   40  117 1    
    81   41  118 1    
    82   41  119 1    
    83   41  120 1    
    84   42   43 am   BACKBONE|DICT|INTERRES
    85   42  121 1    
    86   43   44 2    
    87   43   45 1    
    88   45   46 1    
    89   45   47 1    
    90   45  122 1    
    91   46  123 1    
    92   46  124 1    
    93   46  125 1    
    94   47   48 am   BACKBONE|DICT|INTERRES
    95   47  126 1    
    96   48   49 2    
    97   48   50 1    
    98   50   51 1    
    99   50   52 1    
   100   50  127 1    
   101   51  128 1    
   102   51  129 1    
   103   51  130 1    
   104   52   53 am   BACKBONE|DICT|INTERRES
   105   52  131 1    
   106   53   54 2    
   107   53   55 1    
   108   55   56 1    
   109   55   59 1    
   110   55  132 1    
   111   56   57 1    
   112   56  133 1    
   113   56  134 1    
   114   57   58 1    
   115   58  135 1    
   116   58  136 1    
   117   59   60 am   BACKBONE|DICT|INTERRES
   118   59  137 1    
   119   60   61 2    
   120   60   62 1    
   121   62   63 1    
   122   62   64 1    
   123   62  138 1    
   124   63  139 1    
   125   63  140 1    
   126   63  141 1    
   127   64   65 am   BACKBONE|DICT|INTERRES
   128   64  142 1    
   129   65   66 2    
   130   65   67 1    
   131   67   68 1    
   132   67   69 1    
   133   67  143 1    
   134   68  144 1    
   135   68  145 1    
   136   68  146 1    
   137   69   70 am   BACKBONE|DICT|INTERRES
   138   69  147 1    
   139   70   71 2    
   140   70   72 1    
   141   72   73 1    
   142   72   74 1    
   143   72  148 1    
   144   73  149 1    
   145   73  150 1    
   146   73  151 1    
   147   74   75 am   BACKBONE|DICT|INTERRES
   148   74  152 1    
   149   75   76 2    
   150   75   77 1    
   151   77   78 1    
   152   77   79 1    
   153   77  153 1    
   154   78  154 1    
   155   78  155 1    
   156   78  156 1    
   157   79   80 am   BACKBONE|DICT|INTERRES
   158   79  157 1    
   159   80   81 2    
@<TRIPOS>SUBSTRUCTURE
     1 UNK         1 GROUP             0       ****    0 ROOT    
