@<TRIPOS>MOLECULE
3R207
157   159    1
SMALL
USER_CHARGES


@<TRIPOS>ATOM
      1 CA        -47.8271  -29.1156    5.7210 C.3       0 UNK        -0.1975 
      2 C         -47.8813  -27.6003    5.8347 C.2       0 UNK         0.4852 
      3 O         -46.8463  -26.9374    5.7430 O.2       0 UNK        -0.5216 
      4 N         -49.0909  -27.0601    6.0295 N.am      1 UNK        -0.4461 
      5 CA        -49.4199  -25.6307    6.0875 C.3       1 UNK         0.0864 
      6 C6        -50.9147  -25.3959    6.4098 C.3       14 UNK        -0.0898 
      7 S7        -52.0395  -26.2198    5.2313 S.3       14 UNK        -0.2598 
      8 C8        -53.5563  -26.4223    6.2384 C.3       14 UNK         0.0286 
      9 C9        -53.4409  -27.3384    7.4613 C.ar      14 UNK        -0.0844 
     10 C10       -52.3736  -28.2250    7.6429 C.ar      14 UNK        -0.0881 
     11 C11       -52.2776  -29.0115    8.7919 C.ar      14 UNK        -0.0643 
     12 C12       -53.2895  -28.9529    9.7541 C.ar      14 UNK        -0.0930 
     13 C13       -54.3864  -28.1047    9.5699 C.ar      14 UNK        -0.0827 
     14 C14       -54.4470  -27.2929    8.4319 C.ar      14 UNK        -0.1249 
     15 C15       -55.5281  -28.0932   10.5754 C.3       14 UNK         0.0141 
     16 S16       -55.0661  -27.2666   12.1271 S.3       14 UNK        -0.2313 
     17 C17       -56.6907  -27.1034   12.9433 C.3       14 UNK        -0.0915 
     18 CA        -56.9569  -28.2146   13.9920 C.3       13 UNK         0.0968 
     19 C         -58.2262  -27.8981   14.8351 C.2       13 UNK         0.5732 
     20 N         -59.2545  -28.7381   14.8333 N.am      13 UNK        -0.7310 
     21 O         -58.2686  -26.8807   15.5213 O.2       13 UNK        -0.5035 
     22 N         -56.9618  -29.5501   13.3665 N.am      13 UNK        -0.4233 
     23 C         -56.7024  -30.7418   13.9255 C.2       13 UNK         0.4989 
     24 O         -56.8502  -31.7806   13.2820 O.2       13 UNK        -0.4996 
     25 CA        -56.2058  -30.8256   15.3898 C.3       12 UNK         0.0216 
     26 CB        -56.1600  -32.2754   15.9183 C.3       12 UNK        -0.1964 
     27 N         -54.9055  -30.1794   15.6031 N.am      12 UNK        -0.4276 
     28 C         -53.7519  -30.3787   14.9518 C.2       12 UNK         0.5020 
     29 O         -53.5964  -31.1971   14.0438 O.2       12 UNK        -0.5489 
     30 CA        -52.5724  -29.4956   15.4077 C.3       11 UNK         0.0294 
     31 CB        -51.2409  -29.8947   14.7481 C.3       11 UNK        -0.2019 
     32 N         -52.8111  -28.0719   15.1575 N.am      11 UNK        -0.4493 
     33 C         -53.6247  -27.2780   15.8658 C.2       11 UNK         0.4932 
     34 O         -54.3234  -27.6786   16.7999 O.2       11 UNK        -0.5029 
     35 CA        -53.6311  -25.7923   15.4649 C.3       10 UNK         0.0280 
     36 CB        -54.5547  -24.9252   16.3449 C.3       10 UNK        -0.1976 
     37 N         -52.2706  -25.2482   15.4185 N.am      10 UNK        -0.4242 
     38 C         -51.3778  -25.1783   16.4192 C.2       10 UNK         0.5072 
     39 O         -51.6209  -25.4818   17.5878 O.2       10 UNK        -0.5224 
     40 CA        -49.9533  -24.7162   16.0578 C.3       9 UNK         0.0343 
     41 CB        -49.0074  -25.9273   15.9973 C.3       9 UNK        -0.2003 
     42 N         -49.8765  -23.9967   14.7851 N.am      9 UNK        -0.4272 
     43 C         -50.3411  -22.7581   14.5719 C.2       9 UNK         0.4988 
     44 O         -50.8212  -22.0419   15.4509 O.2       9 UNK        -0.5108 
     45 CA        -50.2923  -22.2498   13.1220 C.3       8 UNK         0.0248 
     46 CB        -48.8983  -21.7007   12.7766 C.3       8 UNK        -0.2001 
     47 N         -50.6715  -23.2847   12.1552 N.am      8 UNK        -0.4140 
     48 C         -51.9105  -23.7789   12.0157 C.2       8 UNK         0.5028 
     49 O         -52.8755  -23.4092   12.6836 O.2       8 UNK        -0.5428 
     50 CA        -52.1021  -24.8802   10.9610 C.3       7 UNK         0.0264 
     51 CB        -52.2910  -24.2580    9.5701 C.3       7 UNK        -0.1988 
     52 N         -51.0002  -25.8476   10.9421 N.am      7 UNK        -0.4454 
     53 C         -50.7696  -26.7309   11.9261 C.2       7 UNK         0.5027 
     54 O         -51.5003  -26.8668   12.9092 O.2       7 UNK        -0.5083 
     55 CA        -49.4657  -27.5511   11.8553 C.3       6 UNK         0.0844 
     56 C56       -49.6594  -28.9466   11.2097 C.3       14 UNK        -0.0967 
     57 S57       -49.5810  -28.9771    9.3855 S.3       14 UNK        -0.2604 
     58 C58       -51.0768  -29.9262    8.9632 C.3       14 UNK         0.0134 
     59 N         -48.3476  -26.8025   11.2747 N.am      6 UNK        -0.4116 
     60 C         -47.7879  -25.7114   11.8137 C.2       5 UNK         0.5034 
     61 O         -48.1845  -25.1981   12.8596 O.2       5 UNK        -0.5045 
     62 CA        -46.6312  -25.0492   11.0448 C.3       5 UNK         0.0224 
     63 CB        -45.5589  -24.4524   11.9802 C.3       5 UNK        -0.1978 
     64 N         -46.0315  -25.9087   10.0175 N.am      5 UNK        -0.4737 
     65 C         -45.2929  -27.0165   10.1819 C.2       4 UNK         0.5027 
     66 O         -45.0027  -27.5008   11.2751 O.2       4 UNK        -0.5211 
     67 CA        -44.8092  -27.7145    8.8983 C.3       4 UNK         0.0297 
     68 CB        -45.7272  -28.8983    8.5634 C.3       4 UNK        -0.1993 
     69 N         -44.7485  -26.7954    7.7555 N.am      4 UNK        -0.4486 
     70 C         -43.7630  -25.9053    7.5694 C.2       3 UNK         0.4961 
     71 O         -42.7415  -25.8556    8.2554 O.2       3 UNK        -0.5105 
     72 CA        -43.9754  -24.8665    6.4581 C.3       3 UNK         0.0299 
     73 CB        -43.7459  -25.4801    5.0670 C.3       3 UNK        -0.1972 
     74 N         -45.3076  -24.2589    6.5318 N.am      3 UNK        -0.4305 
     75 C         -45.6819  -23.3717    7.4685 C.2       2 UNK         0.5006 
     76 O         -44.9294  -22.9537    8.3482 O.2       2 UNK        -0.5106 
     77 CA        -47.1299  -22.8466    7.4318 C.3       2 UNK         0.0296 
     78 CB        -47.1683  -21.4197    6.8600 C.3       2 UNK        -0.2002 
     79 N         -48.0406  -23.6947    6.6611 N.am      2 UNK        -0.4032 
     80 C         -48.5427  -24.8583    7.0934 C.2       1 UNK         0.5000 
     81 O         -48.3454  -25.3186    8.2218 O.2       1 UNK        -0.5238 
     82 H82       -48.2148  -29.5854    6.6244 H         1 UNK         0.0889 
     83 H83       -46.8024  -29.4549    5.5729 H         1 UNK         0.0889 
     84 H84       -48.4201  -29.4553    4.8723 H         1 UNK         0.0889 
     85 H85       -49.8862  -27.6747    6.1013 H         1 UNK         0.3028 
     86 H86       -49.2220  -25.2341    5.0897 H         1 UNK         0.0864 
     87 H87       -51.1518  -24.3302    6.4097 H         1 UNK         0.0720 
     88 H88       -51.1238  -25.7598    7.4151 H         1 UNK         0.0720 
     89 H89       -54.3434  -26.8134    5.5925 H         1 UNK         0.0814 
     90 H90       -53.8858  -25.4324    6.5583 H         1 UNK         0.0814 
     91 H91       -51.5946  -28.3035    6.9016 H         1 UNK         0.1469 
     92 H92       -53.2325  -29.5709   10.6400 H         1 UNK         0.1381 
     93 H93       -55.2888  -26.6277    8.2947 H         1 UNK         0.1206 
     94 H94       -55.8279  -29.1200   10.7867 H         1 UNK         0.0813 
     95 H95       -56.4006  -27.5980   10.1466 H         1 UNK         0.0813 
     96 H96       -57.4841  -27.0789   12.1946 H         1 UNK         0.0638 
     97 H97       -56.6994  -26.1214   13.4205 H         1 UNK         0.0638 
     98 H98       -56.1343  -28.1611   14.6986 H         1 UNK         0.0568 
     99 H99       -60.0658  -28.5201   15.3904 H         1 UNK         0.3450 
    100 H100      -59.2461  -29.5669   14.2608 H         1 UNK         0.3450 
    101 H101      -57.2828  -29.5553   12.4113 H         1 UNK         0.2987 
    102 H102      -56.9287  -30.2867   16.0028 H         1 UNK         0.0766 
    103 H103      -55.8788  -32.3047   16.9710 H         1 UNK         0.0798 
    104 H104      -55.4457  -32.8862   15.3649 H         1 UNK         0.0798 
    105 H105      -57.1358  -32.7551   15.8314 H         1 UNK         0.0798 
    106 H106      -54.8956  -29.4225   16.2839 H         1 UNK         0.3198 
    107 H107      -52.4596  -29.6395   16.4845 H         1 UNK         0.0843 
    108 H108      -51.2892  -29.7867   13.6662 H         1 UNK         0.0831 
    109 H109      -50.9948  -30.9356   14.9620 H         1 UNK         0.0831 
    110 H110      -50.4151  -29.2832   15.1121 H         1 UNK         0.0831 
    111 H111      -52.3190  -27.6612   14.3647 H         1 UNK         0.3133 
    112 H112      -54.0109  -25.7436   14.4443 H         1 UNK         0.0566 
    113 H113      -54.5494  -23.8856   16.0174 H         1 UNK         0.0814 
    114 H114      -55.5854  -25.2784   16.2894 H         1 UNK         0.0814 
    115 H115      -54.2593  -24.9491   17.3942 H         1 UNK         0.0814 
    116 H116      -51.9463  -24.9960   14.4945 H         1 UNK         0.3091 
    117 H117      -49.6102  -24.0483   16.8506 H         1 UNK         0.0702 
    118 H118      -47.9816  -25.6202   15.7921 H         1 UNK         0.0785 
    119 H119      -49.3073  -26.6316   15.2202 H         1 UNK         0.0785 
    120 H120      -49.0015  -26.4684   16.9445 H         1 UNK         0.0785 
    121 H121      -49.4142  -24.4821   14.0183 H         1 UNK         0.2998 
    122 H122      -51.0093  -21.4306   13.0340 H         1 UNK         0.0697 
    123 H123      -48.1296  -22.4705   12.8420 H         1 UNK         0.0825 
    124 H124      -48.6154  -20.9017   13.4633 H         1 UNK         0.0825 
    125 H125      -48.8728  -21.2843   11.7695 H         1 UNK         0.0825 
    126 H126      -49.9331  -23.6694   11.5862 H         1 UNK         0.3029 
    127 H127      -53.0189  -25.4155   11.2136 H         1 UNK         0.0897 
    128 H128      -53.0255  -23.4516    9.5969 H         1 UNK         0.0792 
    129 H129      -52.6673  -24.9970    8.8666 H         1 UNK         0.0792 
    130 H130      -51.3629  -23.8434    9.1750 H         1 UNK         0.0792 
    131 H131      -50.3598  -25.8168   10.1607 H         1 UNK         0.3086 
    132 H132      -49.1909  -27.7358   12.8963 H         1 UNK         0.0583 
    133 H133      -48.8747  -29.6135   11.5703 H         1 UNK         0.1020 
    134 H134      -50.5935  -29.3981   11.5451 H         1 UNK         0.1020 
    135 H135      -50.8974  -30.4577    8.0275 H         1 UNK         0.0694 
    136 H136      -51.2672  -30.6953    9.7131 H         1 UNK         0.0694 
    137 H137      -48.0025  -27.1323   10.3845 H         1 UNK         0.2989 
    138 H138      -47.0844  -24.2174   10.5043 H         1 UNK         0.1055 
    139 H139      -45.9862  -23.6937   12.6363 H         1 UNK         0.0806 
    140 H140      -44.7617  -23.9736   11.4111 H         1 UNK         0.0806 
    141 H141      -45.1081  -25.2118   12.6194 H         1 UNK         0.0806 
    142 H142      -46.2732  -25.6558    9.0676 H         1 UNK         0.3061 
    143 H143      -43.8076  -28.1062    9.0892 H         1 UNK         0.0734 
    144 H144      -45.3925  -29.4212    7.6677 H         1 UNK         0.0832 
    145 H145      -45.7388  -29.6246    9.3773 H         1 UNK         0.0832 
    146 H146      -46.7551  -28.5739    8.4073 H         1 UNK         0.0832 
    147 H147      -45.5325  -26.7976    7.1054 H         1 UNK         0.3156 
    148 H148      -43.2346  -24.0757    6.5958 H         1 UNK         0.0589 
    149 H149      -44.4546  -26.2785    4.8468 H         1 UNK         0.0808 
    150 H150      -43.8351  -24.7280    4.2830 H         1 UNK         0.0808 
    151 H151      -42.7447  -25.9067    4.9924 H         1 UNK         0.0808 
    152 H152      -45.9933  -24.5902    5.8674 H         1 UNK         0.3098 
    153 H153      -47.4875  -22.8049    8.4628 H         1 UNK         0.0720 
    154 H154      -48.1760  -21.0051    6.8942 H         1 UNK         0.0791 
    155 H155      -46.8257  -21.3885    5.8249 H         1 UNK         0.0791 
    156 H156      -46.5263  -20.7510    7.4355 H         1 UNK         0.0791 
    157 H157      -48.2656  -23.3798    5.7278 H         1 UNK         0.3028 
@<TRIPOS>BOND
     1    1    2 1    
     2    1   82 1    
     3    1   83 1    
     4    1   84 1    
     5    2    3 2    
     6    2    4 am   BACKBONE|DICT|INTERRES
     7    4    5 1    
     8    4   85 1    
     9    5    6 1    
    10    5   80 1    
    11    5   86 1    
    12    6    7 1    
    13    6   87 1    
    14    6   88 1    
    15    7    8 1    
    16    8    9 1    
    17    8   89 1    
    18    8   90 1    
    19    9   10 ar   
    20    9   14 ar   
    21   10   11 ar   
    22   10   91 1    
    23   11   12 ar   
    24   11   58 1    
    25   12   13 ar   
    26   12   92 1    
    27   13   14 ar   
    28   13   15 1    
    29   14   93 1    
    30   15   16 1    
    31   15   94 1    
    32   15   95 1    
    33   16   17 1    
    34   17   18 1    
    35   17   96 1    
    36   17   97 1    
    37   18   19 1    
    38   18   22 1    
    39   18   98 1    
    40   19   20 am   BACKBONE|DICT|INTERRES
    41   19   21 2    
    42   20   99 1    
    43   20  100 1    
    44   22   23 am   BACKBONE|DICT|INTERRES
    45   22  101 1    
    46   23   24 2    
    47   23   25 1    
    48   25   26 1    
    49   25   27 1    
    50   25  102 1    
    51   26  103 1    
    52   26  104 1    
    53   26  105 1    
    54   27   28 am   BACKBONE|DICT|INTERRES
    55   27  106 1    
    56   28   29 2    
    57   28   30 1    
    58   30   31 1    
    59   30   32 1    
    60   30  107 1    
    61   31  108 1    
    62   31  109 1    
    63   31  110 1    
    64   32   33 am   BACKBONE|DICT|INTERRES
    65   32  111 1    
    66   33   34 2    
    67   33   35 1    
    68   35   36 1    
    69   35   37 1    
    70   35  112 1    
    71   36  113 1    
    72   36  114 1    
    73   36  115 1    
    74   37   38 am   BACKBONE|DICT|INTERRES
    75   37  116 1    
    76   38   39 2    
    77   38   40 1    
    78   40   41 1    
    79   40   42 1    
    80   40  117 1    
    81   41  118 1    
    82   41  119 1    
    83   41  120 1    
    84   42   43 am   BACKBONE|DICT|INTERRES
    85   42  121 1    
    86   43   44 2    
    87   43   45 1    
    88   45   46 1    
    89   45   47 1    
    90   45  122 1    
    91   46  123 1    
    92   46  124 1    
    93   46  125 1    
    94   47   48 am   BACKBONE|DICT|INTERRES
    95   47  126 1    
    96   48   49 2    
    97   48   50 1    
    98   50   51 1    
    99   50   52 1    
   100   50  127 1    
   101   51  128 1    
   102   51  129 1    
   103   51  130 1    
   104   52   53 am   BACKBONE|DICT|INTERRES
   105   52  131 1    
   106   53   54 2    
   107   53   55 1    
   108   55   56 1    
   109   55   59 1    
   110   55  132 1    
   111   56   57 1    
   112   56  133 1    
   113   56  134 1    
   114   57   58 1    
   115   58  135 1    
   116   58  136 1    
   117   59   60 am   BACKBONE|DICT|INTERRES
   118   59  137 1    
   119   60   61 2    
   120   60   62 1    
   121   62   63 1    
   122   62   64 1    
   123   62  138 1    
   124   63  139 1    
   125   63  140 1    
   126   63  141 1    
   127   64   65 am   BACKBONE|DICT|INTERRES
   128   64  142 1    
   129   65   66 2    
   130   65   67 1    
   131   67   68 1    
   132   67   69 1    
   133   67  143 1    
   134   68  144 1    
   135   68  145 1    
   136   68  146 1    
   137   69   70 am   BACKBONE|DICT|INTERRES
   138   69  147 1    
   139   70   71 2    
   140   70   72 1    
   141   72   73 1    
   142   72   74 1    
   143   72  148 1    
   144   73  149 1    
   145   73  150 1    
   146   73  151 1    
   147   74   75 am   BACKBONE|DICT|INTERRES
   148   74  152 1    
   149   75   76 2    
   150   75   77 1    
   151   77   78 1    
   152   77   79 1    
   153   77  153 1    
   154   78  154 1    
   155   78  155 1    
   156   78  156 1    
   157   79   80 am   BACKBONE|DICT|INTERRES
   158   79  157 1    
   159   80   81 2    
@<TRIPOS>SUBSTRUCTURE
     1 UNK         1 GROUP             0       ****    0 ROOT    
