@<TRIPOS>MOLECULE
3R207
157   159    1
SMALL
USER_CHARGES


@<TRIPOS>ATOM
      1 CA        -51.1661  -27.3679    7.5051 C.3       0 UNK        -0.1975 
      2 C         -50.4262  -26.0421    7.4244 C.2       0 UNK         0.4852 
      3 O         -49.8166  -25.7360    6.3966 O.2       0 UNK        -0.5216 
      4 N         -50.4845  -25.2544    8.5058 N.am      1 UNK        -0.4461 
      5 CA        -49.8941  -23.9156    8.6213 C.3       1 UNK         0.0864 
      6 C6        -50.2351  -23.2456    9.9725 C.3       14 UNK        -0.0898 
      7 S7        -52.0280  -23.0021   10.1946 S.3       14 UNK        -0.2598 
      8 C8        -52.3486  -24.0071   11.6755 C.3       14 UNK         0.0286 
      9 C9        -52.3218  -25.4972   11.3754 C.ar      14 UNK        -0.0844 
     10 C10       -51.2230  -26.2761   11.7507 C.ar      14 UNK        -0.0881 
     11 C11       -51.2135  -27.6519   11.5048 C.ar      14 UNK        -0.0643 
     12 C12       -52.3157  -28.2497   10.8880 C.ar      14 UNK        -0.0930 
     13 C13       -53.4191  -27.4804   10.5069 C.ar      14 UNK        -0.0827 
     14 C14       -53.4128  -26.1032   10.7456 C.ar      14 UNK        -0.1249 
     15 C15       -54.6134  -28.1393    9.8358 C.3       14 UNK         0.0141 
     16 S16       -56.0630  -28.1853   10.9375 S.3       14 UNK        -0.2313 
     17 C17       -57.0859  -29.4413   10.0895 C.3       14 UNK        -0.0915 
     18 CA        -57.3755  -30.6980   10.9528 C.3       13 UNK         0.0968 
     19 C         -56.0801  -31.4789   11.3329 C.2       13 UNK         0.5732 
     20 N         -55.7101  -31.5862   12.6051 N.am      13 UNK        -0.7310 
     21 O         -55.4054  -32.0061   10.4516 O.2       13 UNK        -0.5035 
     22 N         -58.2532  -30.3702   12.0838 N.am      13 UNK        -0.4233 
     23 C         -58.9711  -31.2610   12.7797 C.2       13 UNK         0.4989 
     24 O         -59.0708  -32.4480   12.4632 O.2       13 UNK        -0.4996 
     25 CA        -59.7030  -30.7419   14.0370 C.3       12 UNK         0.0216 
     26 CB        -59.8614  -31.8381   15.1128 C.3       12 UNK        -0.1964 
     27 N         -59.1168  -29.5285   14.6303 N.am      12 UNK        -0.4276 
     28 C         -57.8635  -29.3705   15.0808 C.2       12 UNK         0.5020 
     29 O         -56.9838  -30.2351   15.0111 O.2       12 UNK        -0.5489 
     30 CA        -57.5428  -28.0093   15.7075 C.3       11 UNK         0.0294 
     31 CB        -58.0799  -27.9194   17.1469 C.3       11 UNK        -0.2019 
     32 N         -56.0949  -27.8334   15.7161 N.am      11 UNK        -0.4493 
     33 C         -55.4531  -26.6826   15.5022 C.2       11 UNK         0.4932 
     34 O         -56.0188  -25.5989   15.3276 O.2       11 UNK        -0.5029 
     35 CA        -53.9210  -26.7584   15.4728 C.3       10 UNK         0.0280 
     36 CB        -53.4236  -27.6504   14.3191 C.3       10 UNK        -0.1976 
     37 N         -53.3967  -25.4025   15.3343 N.am      10 UNK        -0.4242 
     38 C         -52.1558  -25.0045   15.6237 C.2       10 UNK         0.5072 
     39 O         -51.2646  -25.7519   16.0351 O.2       10 UNK        -0.5224 
     40 CA        -51.8656  -23.5095   15.4508 C.3       9 UNK         0.0343 
     41 CB        -52.3110  -22.7107   16.6891 C.3       9 UNK        -0.2003 
     42 N         -50.4310  -23.3410   15.2428 N.am      9 UNK        -0.4272 
     43 C         -49.8435  -22.3416   14.5743 C.2       9 UNK         0.4988 
     44 O         -50.4630  -21.4138   14.0533 O.2       9 UNK        -0.5108 
     45 CA        -48.3054  -22.3616   14.4766 C.3       8 UNK         0.0248 
     46 CB        -47.6944  -21.3705   15.4814 C.3       8 UNK        -0.2001 
     47 N         -47.7234  -23.6898   14.6986 N.am      8 UNK        -0.4140 
     48 C         -47.7232  -24.6706   13.7878 C.2       8 UNK         0.5028 
     49 O         -48.1655  -24.5479   12.6433 O.2       8 UNK        -0.5428 
     50 CA        -47.1604  -26.0224   14.2392 C.3       7 UNK         0.0264 
     51 CB        -48.1385  -26.7160   15.2109 C.3       7 UNK        -0.1988 
     52 N         -46.9429  -26.8406   13.0489 N.am      7 UNK        -0.4454 
     53 C         -46.2965  -28.0106   12.9954 C.2       7 UNK         0.5027 
     54 O         -45.7845  -28.5560   13.9744 O.2       7 UNK        -0.5083 
     55 CA        -46.1880  -28.6868   11.6149 C.3       6 UNK         0.0844 
     56 C56       -47.4485  -29.5261   11.2724 C.3       14 UNK        -0.0967 
     57 S57       -48.8167  -28.5571   10.5411 S.3       14 UNK        -0.2604 
     58 C58       -50.0131  -28.4933   11.9026 C.3       14 UNK         0.0134 
     59 N         -45.8558  -27.7400   10.5502 N.am      6 UNK        -0.4116 
     60 C         -44.6819  -27.1229   10.3713 C.2       5 UNK         0.5034 
     61 O         -43.7101  -27.2681   11.1147 O.2       5 UNK        -0.5045 
     62 CA        -44.5885  -26.1901    9.1466 C.3       5 UNK         0.0224 
     63 CB        -43.1437  -25.9920    8.6419 C.3       5 UNK        -0.1978 
     64 N         -45.4852  -26.5872    8.0510 N.am      5 UNK        -0.4737 
     65 C         -45.4472  -27.7160    7.3243 C.2       4 UNK         0.5027 
     66 O         -44.5945  -28.5942    7.4528 O.2       4 UNK        -0.5211 
     67 CA        -46.5672  -27.9070    6.2876 C.3       4 UNK         0.0297 
     68 CB        -47.7875  -28.5725    6.9382 C.3       4 UNK        -0.1993 
     69 N         -46.9678  -26.6408    5.6695 N.am      4 UNK        -0.4486 
     70 C         -46.2669  -26.0365    4.6991 C.2       3 UNK         0.4961 
     71 O         -45.2846  -26.5334    4.1470 O.2       3 UNK        -0.5105 
     72 CA        -46.7182  -24.6229    4.2990 C.3       3 UNK         0.0299 
     73 CB        -47.9752  -24.6701    3.4150 C.3       3 UNK        -0.1972 
     74 N         -46.9612  -23.7789    5.4702 N.am      3 UNK        -0.4305 
     75 C         -46.0049  -23.3450    6.3073 C.2       2 UNK         0.5006 
     76 O         -44.8021  -23.5368    6.1288 O.2       2 UNK        -0.5106 
     77 CA        -46.4516  -22.5639    7.5578 C.3       2 UNK         0.0296 
     78 CB        -46.1909  -21.0597    7.3746 C.3       2 UNK        -0.2002 
     79 N         -47.8598  -22.7675    7.9091 N.am      2 UNK        -0.4032 
     80 C         -48.3686  -23.9093    8.3922 C.2       1 UNK         0.5000 
     81 O         -47.6899  -24.9106    8.6372 O.2       1 UNK        -0.5238 
     82 H82       -52.2189  -27.2045    7.7332 H         1 UNK         0.0889 
     83 H83       -50.7385  -27.9991    8.2828 H         1 UNK         0.0889 
     84 H84       -51.1032  -27.9044    6.5588 H         1 UNK         0.0889 
     85 H85       -50.9863  -25.5740    9.3241 H         1 UNK         0.3028 
     86 H86       -50.3408  -23.3177    7.8240 H         1 UNK         0.0864 
     87 H87       -49.7683  -22.2617   10.0488 H         1 UNK         0.0720 
     88 H88       -49.8316  -23.8316   10.7983 H         1 UNK         0.0720 
     89 H89       -53.3246  -23.7383   12.0821 H         1 UNK         0.0814 
     90 H90       -51.6163  -23.7549   12.4427 H         1 UNK         0.0814 
     91 H91       -50.3749  -25.8154   12.2375 H         1 UNK         0.1469 
     92 H92       -52.3104  -29.3151   10.7025 H         1 UNK         0.1381 
     93 H93       -54.2665  -25.5054   10.4563 H         1 UNK         0.1206 
     94 H94       -54.8689  -27.5974    8.9242 H         1 UNK         0.0813 
     95 H95       -54.3562  -29.1552    9.5312 H         1 UNK         0.0813 
     96 H96       -56.6132  -29.7360    9.1511 H         1 UNK         0.0638 
     97 H97       -58.0256  -28.9686    9.8001 H         1 UNK         0.0638 
     98 H98       -57.9399  -31.3817   10.3158 H         1 UNK         0.0568 
     99 H99       -54.8736  -32.0991   12.8304 H         1 UNK         0.3450 
    100 H100      -56.2446  -31.1440   13.3452 H         1 UNK         0.3450 
    101 H101      -58.2063  -29.4185   12.4145 H         1 UNK         0.2987 
    102 H102      -60.7033  -30.4635   13.7020 H         1 UNK         0.0766 
    103 H103      -58.8947  -32.2118   15.4526 H         1 UNK         0.0798 
    104 H104      -60.4230  -32.6907   14.7288 H         1 UNK         0.0798 
    105 H105      -60.4010  -31.4652   15.9834 H         1 UNK         0.0798 
    106 H106      -59.7516  -28.7460   14.7196 H         1 UNK         0.3198 
    107 H107      -58.0072  -27.2342   15.0932 H         1 UNK         0.0843 
    108 H108      -57.6484  -28.6909   17.7860 H         1 UNK         0.0831 
    109 H109      -59.1634  -28.0415   17.1733 H         1 UNK         0.0831 
    110 H110      -57.8539  -26.9508   17.5933 H         1 UNK         0.0831 
    111 H111      -55.5757  -28.7019   15.7656 H         1 UNK         0.3133 
    112 H112      -53.5848  -27.1714   16.4261 H         1 UNK         0.0566 
    113 H113      -53.7955  -27.2953   13.3583 H         1 UNK         0.0814 
    114 H114      -53.7585  -28.6816   14.4340 H         1 UNK         0.0814 
    115 H115      -52.3352  -27.6733   14.2692 H         1 UNK         0.0814 
    116 H116      -54.1027  -24.7253   15.0693 H         1 UNK         0.3091 
    117 H117      -52.4084  -23.1480   14.5757 H         1 UNK         0.0702 
    118 H118      -52.1195  -21.6448   16.5637 H         1 UNK         0.0785 
    119 H119      -51.7895  -23.0407   17.5886 H         1 UNK         0.0785 
    120 H120      -53.3805  -22.8276   16.8688 H         1 UNK         0.0785 
    121 H121      -49.8712  -24.1033   15.6028 H         1 UNK         0.2998 
    122 H122      -48.0396  -22.0304   13.4701 H         1 UNK         0.0697 
    123 H123      -47.9220  -21.6462   16.5120 H         1 UNK         0.0825 
    124 H124      -46.6104  -21.3170   15.3781 H         1 UNK         0.0825 
    125 H125      -48.0827  -20.3636   15.3212 H         1 UNK         0.0825 
    126 H126      -47.3337  -23.8684   15.6135 H         1 UNK         0.3029 
    127 H127      -46.1994  -25.8567   14.7305 H         1 UNK         0.0897 
    128 H128      -49.1169  -26.8698   14.7554 H         1 UNK         0.0792 
    129 H129      -48.2934  -26.1194   16.1103 H         1 UNK         0.0792 
    130 H130      -47.7685  -27.6867   15.5395 H         1 UNK         0.0792 
    131 H131      -47.3235  -26.4313   12.2024 H         1 UNK         0.3086 
    132 H132      -45.3513  -29.3855   11.6856 H         1 UNK         0.0583 
    133 H133      -47.1736  -30.2831   10.5363 H         1 UNK         0.1020 
    134 H134      -47.8012  -30.0896   12.1389 H         1 UNK         0.1020 
    135 H135      -50.3283  -29.5053   12.1612 H         1 UNK         0.0694 
    136 H136      -49.5389  -28.0776   12.7911 H         1 UNK         0.0694 
    137 H137      -46.6003  -27.5435    9.8962 H         1 UNK         0.2989 
    138 H138      -44.9499  -25.2194    9.4901 H         1 UNK         0.1055 
    139 H139      -42.5155  -25.5508    9.4167 H         1 UNK         0.0806 
    140 H140      -43.1145  -25.3222    7.7822 H         1 UNK         0.0806 
    141 H141      -42.6825  -26.9355    8.3491 H         1 UNK         0.0806 
    142 H142      -46.2850  -25.9701    7.9257 H         1 UNK         0.3061 
    143 H143      -46.1939  -28.5773    5.5100 H         1 UNK         0.0734 
    144 H144      -48.5742  -28.7626    6.2082 H         1 UNK         0.0832 
    145 H145      -47.5199  -29.5301    7.3869 H         1 UNK         0.0832 
    146 H146      -48.2036  -27.9487    7.7282 H         1 UNK         0.0832 
    147 H147      -47.7967  -26.1843    6.0383 H         1 UNK         0.3156 
    148 H148      -45.9147  -24.1672    3.7161 H         1 UNK         0.0589 
    149 H149      -48.8305  -25.0935    3.9427 H         1 UNK         0.0808 
    150 H150      -48.2541  -23.6748    3.0689 H         1 UNK         0.0808 
    151 H151      -47.8040  -25.2836    2.5294 H         1 UNK         0.0808 
    152 H152      -47.9252  -23.5800    5.6935 H         1 UNK         0.3098 
    153 H153      -45.8418  -22.9160    8.3927 H         1 UNK         0.0720 
    154 H154      -46.4273  -20.5020    8.2811 H         1 UNK         0.0791 
    155 H155      -46.7818  -20.6428    6.5580 H         1 UNK         0.0791 
    156 H156      -45.1410  -20.8705    7.1459 H         1 UNK         0.0791 
    157 H157      -48.4795  -21.9863    7.7463 H         1 UNK         0.3028 
@<TRIPOS>BOND
     1    1    2 1    
     2    1   82 1    
     3    1   83 1    
     4    1   84 1    
     5    2    3 2    
     6    2    4 am   BACKBONE|DICT|INTERRES
     7    4    5 1    
     8    4   85 1    
     9    5    6 1    
    10    5   80 1    
    11    5   86 1    
    12    6    7 1    
    13    6   87 1    
    14    6   88 1    
    15    7    8 1    
    16    8    9 1    
    17    8   89 1    
    18    8   90 1    
    19    9   10 ar   
    20    9   14 ar   
    21   10   11 ar   
    22   10   91 1    
    23   11   12 ar   
    24   11   58 1    
    25   12   13 ar   
    26   12   92 1    
    27   13   14 ar   
    28   13   15 1    
    29   14   93 1    
    30   15   16 1    
    31   15   94 1    
    32   15   95 1    
    33   16   17 1    
    34   17   18 1    
    35   17   96 1    
    36   17   97 1    
    37   18   19 1    
    38   18   22 1    
    39   18   98 1    
    40   19   20 am   BACKBONE|DICT|INTERRES
    41   19   21 2    
    42   20   99 1    
    43   20  100 1    
    44   22   23 am   BACKBONE|DICT|INTERRES
    45   22  101 1    
    46   23   24 2    
    47   23   25 1    
    48   25   26 1    
    49   25   27 1    
    50   25  102 1    
    51   26  103 1    
    52   26  104 1    
    53   26  105 1    
    54   27   28 am   BACKBONE|DICT|INTERRES
    55   27  106 1    
    56   28   29 2    
    57   28   30 1    
    58   30   31 1    
    59   30   32 1    
    60   30  107 1    
    61   31  108 1    
    62   31  109 1    
    63   31  110 1    
    64   32   33 am   BACKBONE|DICT|INTERRES
    65   32  111 1    
    66   33   34 2    
    67   33   35 1    
    68   35   36 1    
    69   35   37 1    
    70   35  112 1    
    71   36  113 1    
    72   36  114 1    
    73   36  115 1    
    74   37   38 am   BACKBONE|DICT|INTERRES
    75   37  116 1    
    76   38   39 2    
    77   38   40 1    
    78   40   41 1    
    79   40   42 1    
    80   40  117 1    
    81   41  118 1    
    82   41  119 1    
    83   41  120 1    
    84   42   43 am   BACKBONE|DICT|INTERRES
    85   42  121 1    
    86   43   44 2    
    87   43   45 1    
    88   45   46 1    
    89   45   47 1    
    90   45  122 1    
    91   46  123 1    
    92   46  124 1    
    93   46  125 1    
    94   47   48 am   BACKBONE|DICT|INTERRES
    95   47  126 1    
    96   48   49 2    
    97   48   50 1    
    98   50   51 1    
    99   50   52 1    
   100   50  127 1    
   101   51  128 1    
   102   51  129 1    
   103   51  130 1    
   104   52   53 am   BACKBONE|DICT|INTERRES
   105   52  131 1    
   106   53   54 2    
   107   53   55 1    
   108   55   56 1    
   109   55   59 1    
   110   55  132 1    
   111   56   57 1    
   112   56  133 1    
   113   56  134 1    
   114   57   58 1    
   115   58  135 1    
   116   58  136 1    
   117   59   60 am   BACKBONE|DICT|INTERRES
   118   59  137 1    
   119   60   61 2    
   120   60   62 1    
   121   62   63 1    
   122   62   64 1    
   123   62  138 1    
   124   63  139 1    
   125   63  140 1    
   126   63  141 1    
   127   64   65 am   BACKBONE|DICT|INTERRES
   128   64  142 1    
   129   65   66 2    
   130   65   67 1    
   131   67   68 1    
   132   67   69 1    
   133   67  143 1    
   134   68  144 1    
   135   68  145 1    
   136   68  146 1    
   137   69   70 am   BACKBONE|DICT|INTERRES
   138   69  147 1    
   139   70   71 2    
   140   70   72 1    
   141   72   73 1    
   142   72   74 1    
   143   72  148 1    
   144   73  149 1    
   145   73  150 1    
   146   73  151 1    
   147   74   75 am   BACKBONE|DICT|INTERRES
   148   74  152 1    
   149   75   76 2    
   150   75   77 1    
   151   77   78 1    
   152   77   79 1    
   153   77  153 1    
   154   78  154 1    
   155   78  155 1    
   156   78  156 1    
   157   79   80 am   BACKBONE|DICT|INTERRES
   158   79  157 1    
   159   80   81 2    
@<TRIPOS>SUBSTRUCTURE
     1 UNK         1 GROUP             0       ****    0 ROOT    
