@<TRIPOS>MOLECULE
3R207
157   159    1
SMALL
USER_CHARGES


@<TRIPOS>ATOM
      1 CA        -49.7094  -31.9821    3.2501 C.3       0 UNK        -0.1975 
      2 C         -49.5022  -30.5218    3.6233 C.2       0 UNK         0.4852 
      3 O         -49.0304  -29.7400    2.7972 O.2       0 UNK        -0.5216 
      4 N         -49.8477  -30.1493    4.8635 N.am      1 UNK        -0.4461 
      5 CA        -49.7457  -28.7792    5.3921 C.3       1 UNK         0.0864 
      6 C6        -50.6518  -28.5576    6.6320 C.3       14 UNK        -0.0898 
      7 S7        -52.3648  -29.1333    6.3717 S.3       14 UNK        -0.2598 
      8 C8        -53.1249  -27.7043    5.5392 C.3       14 UNK         0.0286 
      9 C9        -53.5662  -26.6376    6.5287 C.ar      14 UNK        -0.0844 
     10 C10       -52.8913  -25.4165    6.6131 C.ar      14 UNK        -0.0881 
     11 C11       -53.3220  -24.4298    7.5060 C.ar      14 UNK        -0.0643 
     12 C12       -54.4368  -24.6704    8.3156 C.ar      14 UNK        -0.0930 
     13 C13       -55.0976  -25.9007    8.2616 C.ar      14 UNK        -0.0827 
     14 C14       -54.6684  -26.8722    7.3542 C.ar      14 UNK        -0.1249 
     15 C15       -56.2590  -26.1958    9.1991 C.3       14 UNK         0.0141 
     16 S16       -55.6813  -26.5966   10.8800 S.3       14 UNK        -0.2313 
     17 C17       -54.5866  -28.0245   10.5725 C.3       14 UNK        -0.0915 
     18 CA        -54.4223  -28.9421   11.8146 C.3       13 UNK         0.0968 
     19 C         -53.6684  -30.2634   11.4805 C.2       13 UNK         0.5732 
     20 N         -52.8222  -30.7950   12.3556 N.am      13 UNK        -0.7310 
     21 O         -53.8750  -30.8454   10.4180 O.2       13 UNK        -0.5035 
     22 N         -53.8289  -28.2259   12.9580 N.am      13 UNK        -0.4233 
     23 C         -54.3751  -28.1609   14.1784 C.2       13 UNK         0.4989 
     24 O         -55.4826  -28.6286   14.4531 O.2       13 UNK        -0.4996 
     25 CA        -53.5484  -27.4741   15.2878 C.3       12 UNK         0.0216 
     26 CB        -54.1808  -27.6368   16.6855 C.3       12 UNK        -0.1964 
     27 N         -52.1343  -27.8583   15.3519 N.am      12 UNK        -0.4276 
     28 C         -51.6098  -29.0940   15.3474 C.2       12 UNK         0.5020 
     29 O         -52.2582  -30.1198   15.1399 O.2       12 UNK        -0.5489 
     30 CA        -50.0987  -29.2208   15.6209 C.3       11 UNK         0.0294 
     31 CB        -49.3253  -29.3214   14.2999 C.3       11 UNK        -0.2019 
     32 N         -49.5531  -28.1150   16.4114 N.am      11 UNK        -0.4493 
     33 C         -49.8053  -27.9055   17.7116 C.2       11 UNK         0.4932 
     34 O         -50.4509  -28.6804   18.4176 O.2       11 UNK        -0.5029 
     35 CA        -49.2602  -26.6018   18.3290 C.3       10 UNK         0.0280 
     36 CB        -47.9422  -26.8722   19.0728 C.3       10 UNK        -0.1976 
     37 N         -49.0585  -25.5086   17.3673 N.am      10 UNK        -0.4242 
     38 C         -50.0219  -24.9552   16.6171 C.2       10 UNK         0.5072 
     39 O         -51.1949  -25.3338   16.6258 O.2       10 UNK        -0.5224 
     40 CA        -49.5790  -23.8415   15.6581 C.3       9 UNK         0.0343 
     41 CB        -48.8688  -24.4410   14.4308 C.3       9 UNK        -0.2003 
     42 N         -50.7388  -23.0725   15.2063 N.am      9 UNK        -0.4272 
     43 C         -51.2015  -21.9684   15.8097 C.2       9 UNK         0.4988 
     44 O         -50.6575  -21.4513   16.7869 O.2       9 UNK        -0.5108 
     45 CA        -52.4607  -21.2949   15.2285 C.3       8 UNK         0.0248 
     46 CB        -52.0767  -20.0132   14.4695 C.3       8 UNK        -0.2001 
     47 N         -53.2318  -22.1586   14.3329 N.am      8 UNK        -0.4140 
     48 C         -54.0907  -23.1071   14.7307 C.2       8 UNK         0.5028 
     49 O         -54.3850  -23.3178   15.9074 O.2       8 UNK        -0.5428 
     50 CA        -54.7355  -23.9692   13.6263 C.3       7 UNK         0.0264 
     51 CB        -56.1043  -23.3904   13.2327 C.3       7 UNK        -0.1988 
     52 N         -53.9232  -24.1384   12.4132 N.am      7 UNK        -0.4454 
     53 C         -52.6708  -24.6160   12.3582 C.2       7 UNK         0.5027 
     54 O         -52.0244  -24.9288   13.3584 O.2       7 UNK        -0.5083 
     55 CA        -52.0291  -24.6848   10.9559 C.3       6 UNK         0.0844 
     56 C56       -51.8909  -23.2608   10.3494 C.3       14 UNK        -0.0967 
     57 S57       -51.1225  -23.2422    8.6906 S.3       14 UNK        -0.2604 
     58 C58       -52.5733  -23.1096    7.5985 C.3       14 UNK         0.0134 
     59 N         -50.7376  -25.3692   10.9621 N.am      6 UNK        -0.4116 
     60 C         -50.4861  -26.6574   11.2082 C.2       5 UNK         0.5034 
     61 O         -51.3501  -27.4651   11.5529 O.2       5 UNK        -0.5045 
     62 CA        -49.0196  -27.1276   11.0349 C.3       5 UNK         0.0224 
     63 CB        -48.9326  -28.6338   10.7193 C.3       5 UNK        -0.1978 
     64 N         -48.2351  -26.4091   10.0168 N.am      5 UNK        -0.4737 
     65 C         -47.8292  -25.1315   10.0579 C.2       4 UNK         0.5027 
     66 O         -48.1117  -24.3601   10.9751 O.2       4 UNK        -0.5211 
     67 CA        -46.9842  -24.6414    8.8657 C.3       4 UNK         0.0297 
     68 CB        -46.4059  -23.2262    9.0775 C.3       4 UNK        -0.1993 
     69 N         -45.9261  -25.5900    8.5005 N.am      4 UNK        -0.4486 
     70 C         -44.9403  -26.0541    9.2865 C.2       3 UNK         0.4961 
     71 O         -44.7401  -25.6649   10.4381 O.2       3 UNK        -0.5105 
     72 CA        -44.0079  -27.1284    8.6848 C.3       3 UNK         0.0299 
     73 CB        -43.5524  -28.1591    9.7404 C.3       3 UNK        -0.1972 
     74 N         -44.5439  -27.8105    7.4966 N.am      3 UNK        -0.4305 
     75 C         -45.6562  -28.5559    7.4194 C.2       2 UNK         0.5006 
     76 O         -46.4200  -28.7691    8.3636 O.2       2 UNK        -0.5106 
     77 CA        -45.9496  -29.1698    6.0418 C.3       2 UNK         0.0296 
     78 CB        -45.2515  -30.5327    5.9032 C.3       2 UNK        -0.2002 
     79 N         -47.3811  -29.3438    5.7966 N.am      2 UNK        -0.4032 
     80 C         -48.2884  -28.3602    5.6949 C.2       1 UNK         0.5000 
     81 O         -48.0145  -27.1635    5.8145 O.2       1 UNK        -0.5238 
     82 H82       -50.1380  -32.5565    4.0713 H         1 UNK         0.0889 
     83 H83       -48.7582  -32.4383    2.9767 H         1 UNK         0.0889 
     84 H84       -50.3823  -32.0586    2.3963 H         1 UNK         0.0889 
     85 H85       -50.2615  -30.8256    5.4902 H         1 UNK         0.3028 
     86 H86       -50.0955  -28.1038    4.6085 H         1 UNK         0.0864 
     87 H87       -50.2554  -29.0992    7.4924 H         1 UNK         0.0720 
     88 H88       -50.6687  -27.5042    6.9191 H         1 UNK         0.0720 
     89 H89       -53.9967  -28.0503    4.9820 H         1 UNK         0.0814 
     90 H90       -52.4369  -27.2953    4.7982 H         1 UNK         0.0814 
     91 H91       -52.0296  -25.2310    5.9864 H         1 UNK         0.1469 
     92 H92       -54.7730  -23.9132    9.0096 H         1 UNK         0.1381 
     93 H93       -55.1796  -27.8239    7.3014 H         1 UNK         0.1206 
     94 H94       -56.9217  -25.3306    9.2473 H         1 UNK         0.0813 
     95 H95       -56.8623  -27.0221    8.8199 H         1 UNK         0.0813 
     96 H96       -53.6190  -27.6581   10.2276 H         1 UNK         0.0638 
     97 H97       -55.0108  -28.5912    9.7422 H         1 UNK         0.0638 
     98 H98       -55.4265  -29.2770   12.0781 H         1 UNK         0.0568 
     99 H99       -52.3566  -31.6556   12.1191 H         1 UNK         0.3450 
    100 H100      -52.6892  -30.3883   13.2764 H         1 UNK         0.3450 
    101 H101      -52.8999  -27.8516   12.7899 H         1 UNK         0.2987 
    102 H102      -53.5449  -26.4102   15.0578 H         1 UNK         0.0766 
    103 H103      -54.2178  -28.6836   16.9894 H         1 UNK         0.0798 
    104 H104      -55.2005  -27.2501   16.7053 H         1 UNK         0.0798 
    105 H105      -53.6149  -27.0884   17.4392 H         1 UNK         0.0798 
    106 H106      -51.5127  -27.0806   15.5485 H         1 UNK         0.3198 
    107 H107      -49.9445  -30.1466   16.1797 H         1 UNK         0.0843 
    108 H108      -49.4354  -28.4127   13.7096 H         1 UNK         0.0831 
    109 H109      -49.6935  -30.1527   13.6969 H         1 UNK         0.0831 
    110 H110      -48.2618  -29.4905   14.4691 H         1 UNK         0.0831 
    111 H111      -48.9904  -27.4352   15.9223 H         1 UNK         0.3133 
    112 H112      -49.9979  -26.2598   19.0579 H         1 UNK         0.0566 
    113 H113      -47.1513  -27.1899   18.3920 H         1 UNK         0.0814 
    114 H114      -48.0680  -27.6614   19.8157 H         1 UNK         0.0814 
    115 H115      -47.5948  -25.9854   19.6033 H         1 UNK         0.0814 
    116 H116      -48.1189  -25.1451   17.2910 H         1 UNK         0.3091 
    117 H117      -48.8791  -23.1849   16.1792 H         1 UNK         0.0702 
    118 H118      -48.6138  -23.6694   13.7040 H         1 UNK         0.0785 
    119 H119      -49.4864  -25.1817   13.9225 H         1 UNK         0.0785 
    120 H120      -47.9382  -24.9340   14.7134 H         1 UNK         0.0785 
    121 H121      -51.3026  -23.5226   14.4915 H         1 UNK         0.2998 
    122 H122      -53.0954  -21.0118   16.0710 H         1 UNK         0.0697 
    123 H123      -52.9596  -19.4848   14.1090 H         1 UNK         0.0825 
    124 H124      -51.4373  -20.2266   13.6119 H         1 UNK         0.0825 
    125 H125      -51.5324  -19.3241   15.1170 H         1 UNK         0.0825 
    126 H126      -53.0691  -22.0490   13.3434 H         1 UNK         0.3029 
    127 H127      -54.9068  -24.9612   14.0438 H         1 UNK         0.0897 
    128 H128      -56.0099  -22.4097   12.7647 H         1 UNK         0.0792 
    129 H129      -56.7449  -23.2732   14.1081 H         1 UNK         0.0792 
    130 H130      -56.6295  -24.0466   12.5382 H         1 UNK         0.0792 
    131 H131      -54.3930  -23.9293   11.5449 H         1 UNK         0.3086 
    132 H132      -52.6948  -25.2788   10.3292 H         1 UNK         0.0583 
    133 H133      -52.8567  -22.7571   10.2909 H         1 UNK         0.1020 
    134 H134      -51.2717  -22.6368   10.9977 H         1 UNK         0.1020 
    135 H135      -53.2312  -22.3112    7.9451 H         1 UNK         0.0694 
    136 H136      -52.2361  -22.8123    6.6044 H         1 UNK         0.0694 
    137 H137      -49.9300  -24.7814   10.7823 H         1 UNK         0.2989 
    138 H138      -48.5340  -26.9551   11.9972 H         1 UNK         0.1055 
    139 H139      -49.3373  -28.8574    9.7324 H         1 UNK         0.0806 
    140 H140      -49.4905  -29.2362   11.4355 H         1 UNK         0.0806 
    141 H141      -47.9003  -28.9839   10.7436 H         1 UNK         0.0806 
    142 H142      -47.9266  -26.9681    9.2317 H         1 UNK         0.3061 
    143 H143      -47.6638  -24.5944    8.0131 H         1 UNK         0.0734 
    144 H144      -45.7505  -23.1819    9.9479 H         1 UNK         0.0832 
    145 H145      -45.8357  -22.8953    8.2097 H         1 UNK         0.0832 
    146 H146      -47.2044  -22.5001    9.2361 H         1 UNK         0.0832 
    147 H147      -46.0047  -25.9908    7.5757 H         1 UNK         0.3156 
    148 H148      -43.1198  -26.5927    8.3465 H         1 UNK         0.0589 
    149 H149      -42.8833  -28.9027    9.3075 H         1 UNK         0.0808 
    150 H150      -43.0111  -27.6758   10.5547 H         1 UNK         0.0808 
    151 H151      -44.3989  -28.6858   10.1825 H         1 UNK         0.0808 
    152 H152      -43.9946  -27.6961    6.6549 H         1 UNK         0.3098 
    153 H153      -45.5645  -28.4986    5.2712 H         1 UNK         0.0720 
    154 H154      -45.6154  -31.2484    6.6419 H         1 UNK         0.0791 
    155 H155      -44.1739  -30.4389    6.0455 H         1 UNK         0.0791 
    156 H156      -45.4087  -30.9616    4.9132 H         1 UNK         0.0791 
    157 H157      -47.7111  -30.2930    5.7097 H         1 UNK         0.3028 
@<TRIPOS>BOND
     1    1    2 1    
     2    1   82 1    
     3    1   83 1    
     4    1   84 1    
     5    2    3 2    
     6    2    4 am   BACKBONE|DICT|INTERRES
     7    4    5 1    
     8    4   85 1    
     9    5    6 1    
    10    5   80 1    
    11    5   86 1    
    12    6    7 1    
    13    6   87 1    
    14    6   88 1    
    15    7    8 1    
    16    8    9 1    
    17    8   89 1    
    18    8   90 1    
    19    9   10 ar   
    20    9   14 ar   
    21   10   11 ar   
    22   10   91 1    
    23   11   12 ar   
    24   11   58 1    
    25   12   13 ar   
    26   12   92 1    
    27   13   14 ar   
    28   13   15 1    
    29   14   93 1    
    30   15   16 1    
    31   15   94 1    
    32   15   95 1    
    33   16   17 1    
    34   17   18 1    
    35   17   96 1    
    36   17   97 1    
    37   18   19 1    
    38   18   22 1    
    39   18   98 1    
    40   19   20 am   BACKBONE|DICT|INTERRES
    41   19   21 2    
    42   20   99 1    
    43   20  100 1    
    44   22   23 am   BACKBONE|DICT|INTERRES
    45   22  101 1    
    46   23   24 2    
    47   23   25 1    
    48   25   26 1    
    49   25   27 1    
    50   25  102 1    
    51   26  103 1    
    52   26  104 1    
    53   26  105 1    
    54   27   28 am   BACKBONE|DICT|INTERRES
    55   27  106 1    
    56   28   29 2    
    57   28   30 1    
    58   30   31 1    
    59   30   32 1    
    60   30  107 1    
    61   31  108 1    
    62   31  109 1    
    63   31  110 1    
    64   32   33 am   BACKBONE|DICT|INTERRES
    65   32  111 1    
    66   33   34 2    
    67   33   35 1    
    68   35   36 1    
    69   35   37 1    
    70   35  112 1    
    71   36  113 1    
    72   36  114 1    
    73   36  115 1    
    74   37   38 am   BACKBONE|DICT|INTERRES
    75   37  116 1    
    76   38   39 2    
    77   38   40 1    
    78   40   41 1    
    79   40   42 1    
    80   40  117 1    
    81   41  118 1    
    82   41  119 1    
    83   41  120 1    
    84   42   43 am   BACKBONE|DICT|INTERRES
    85   42  121 1    
    86   43   44 2    
    87   43   45 1    
    88   45   46 1    
    89   45   47 1    
    90   45  122 1    
    91   46  123 1    
    92   46  124 1    
    93   46  125 1    
    94   47   48 am   BACKBONE|DICT|INTERRES
    95   47  126 1    
    96   48   49 2    
    97   48   50 1    
    98   50   51 1    
    99   50   52 1    
   100   50  127 1    
   101   51  128 1    
   102   51  129 1    
   103   51  130 1    
   104   52   53 am   BACKBONE|DICT|INTERRES
   105   52  131 1    
   106   53   54 2    
   107   53   55 1    
   108   55   56 1    
   109   55   59 1    
   110   55  132 1    
   111   56   57 1    
   112   56  133 1    
   113   56  134 1    
   114   57   58 1    
   115   58  135 1    
   116   58  136 1    
   117   59   60 am   BACKBONE|DICT|INTERRES
   118   59  137 1    
   119   60   61 2    
   120   60   62 1    
   121   62   63 1    
   122   62   64 1    
   123   62  138 1    
   124   63  139 1    
   125   63  140 1    
   126   63  141 1    
   127   64   65 am   BACKBONE|DICT|INTERRES
   128   64  142 1    
   129   65   66 2    
   130   65   67 1    
   131   67   68 1    
   132   67   69 1    
   133   67  143 1    
   134   68  144 1    
   135   68  145 1    
   136   68  146 1    
   137   69   70 am   BACKBONE|DICT|INTERRES
   138   69  147 1    
   139   70   71 2    
   140   70   72 1    
   141   72   73 1    
   142   72   74 1    
   143   72  148 1    
   144   73  149 1    
   145   73  150 1    
   146   73  151 1    
   147   74   75 am   BACKBONE|DICT|INTERRES
   148   74  152 1    
   149   75   76 2    
   150   75   77 1    
   151   77   78 1    
   152   77   79 1    
   153   77  153 1    
   154   78  154 1    
   155   78  155 1    
   156   78  156 1    
   157   79   80 am   BACKBONE|DICT|INTERRES
   158   79  157 1    
   159   80   81 2    
@<TRIPOS>SUBSTRUCTURE
     1 UNK         1 GROUP             0       ****    0 ROOT    
