@<TRIPOS>MOLECULE
3R207
157   159    1
SMALL
USER_CHARGES


@<TRIPOS>ATOM
      1 CA        -52.1313  -24.6257   13.1951 C.3       0 UNK        -0.1975 
      2 C         -51.6936  -24.4748   11.7503 C.2       0 UNK         0.4852 
      3 O         -51.7304  -23.3657   11.2153 O.2       0 UNK        -0.5216 
      4 N         -51.2631  -25.5787   11.1218 N.am      1 UNK        -0.4461 
      5 CA        -50.7435  -25.6858    9.7501 C.3       1 UNK         0.0864 
      6 C6        -51.7565  -25.1962    8.6769 C.3       14 UNK        -0.0898 
      7 S7        -51.3973  -25.8094    6.9966 S.3       14 UNK        -0.2598 
      8 C8        -52.4926  -27.2637    6.8915 C.3       14 UNK         0.0286 
      9 C9        -52.0454  -28.3606    7.8455 C.ar      14 UNK        -0.0844 
     10 C10       -50.9244  -29.1350    7.5369 C.ar      14 UNK        -0.0881 
     11 C11       -50.4523  -30.0917    8.4386 C.ar      14 UNK        -0.0643 
     12 C12       -51.1260  -30.2897    9.6477 C.ar      14 UNK        -0.0930 
     13 C13       -52.2632  -29.5378    9.9569 C.ar      14 UNK        -0.0827 
     14 C14       -52.7221  -28.5769    9.0503 C.ar      14 UNK        -0.1249 
     15 C15       -52.9772  -29.7459   11.2826 C.3       14 UNK         0.0141 
     16 S16       -54.0400  -31.2214   11.2407 S.3       14 UNK        -0.2313 
     17 C17       -54.8115  -31.1266   12.8922 C.3       14 UNK        -0.0915 
     18 CA        -56.2938  -30.6660   12.8435 C.3       13 UNK         0.0968 
     19 C         -56.9419  -30.6843   14.2593 C.2       13 UNK         0.5732 
     20 N         -57.4993  -29.5887   14.7656 N.am      13 UNK        -0.7310 
     21 O         -56.9524  -31.7252   14.9121 O.2       13 UNK        -0.5035 
     22 N         -56.4465  -29.3815   12.1458 N.am      13 UNK        -0.4233 
     23 C         -57.5237  -29.0216   11.4347 C.2       13 UNK         0.4989 
     24 O         -58.4756  -29.7733   11.2159 O.2       13 UNK        -0.4996 
     25 CA        -57.5458  -27.5826   10.8697 C.3       12 UNK         0.0216 
     26 CB        -58.9806  -27.0398   10.6929 C.3       12 UNK        -0.1964 
     27 N         -56.7245  -26.6291   11.6308 N.am      12 UNK        -0.4276 
     28 C         -56.8391  -26.3335   12.9333 C.2       12 UNK         0.5020 
     29 O         -57.7049  -26.7976   13.6798 O.2       12 UNK        -0.5489 
     30 CA        -55.7586  -25.4077   13.5152 C.3       11 UNK         0.0294 
     31 CB        -56.3310  -24.0112   13.8034 C.3       11 UNK        -0.2019 
     32 N         -55.1831  -25.9655   14.7428 N.am      11 UNK        -0.4493 
     33 C         -54.5632  -27.1517   14.8249 C.2       11 UNK         0.4932 
     34 O         -54.3290  -27.8657   13.8481 O.2       11 UNK        -0.5029 
     35 CA        -54.1277  -27.5822   16.2368 C.3       10 UNK         0.0280 
     36 CB        -53.6138  -29.0376   16.2947 C.3       10 UNK        -0.1976 
     37 N         -53.1600  -26.6382   16.8133 N.am      10 UNK        -0.4242 
     38 C         -51.9144  -26.3903   16.3821 C.2       10 UNK         0.5072 
     39 O         -51.3559  -26.9972   15.4644 O.2       10 UNK        -0.5224 
     40 CA        -51.1597  -25.2678   17.1077 C.3       9 UNK         0.0343 
     41 CB        -50.7329  -25.6995   18.5222 C.3       9 UNK        -0.2003 
     42 N         -49.9729  -24.9292   16.3282 N.am      9 UNK        -0.4272 
     43 C         -49.4401  -23.7115   16.1746 C.2       9 UNK         0.4988 
     44 O         -49.8910  -22.7022   16.7178 O.2       9 UNK        -0.5108 
     45 CA        -48.1913  -23.5916   15.2753 C.3       8 UNK         0.0248 
     46 CB        -47.1028  -22.7308   15.9423 C.3       8 UNK        -0.2001 
     47 N         -47.6182  -24.9008   14.9426 N.am      8 UNK        -0.4140 
     48 C         -47.8207  -25.5594   13.7963 C.2       8 UNK         0.5028 
     49 O         -48.4722  -25.1206   12.8472 O.2       8 UNK        -0.5428 
     50 CA        -47.2360  -26.9718   13.7193 C.3       7 UNK         0.0264 
     51 CB        -48.1663  -27.9708   14.4391 C.3       7 UNK        -0.1988 
     52 N         -47.0843  -27.3386   12.3139 N.am      7 UNK        -0.4454 
     53 C         -46.3957  -28.3919   11.8572 C.2       7 UNK         0.5027 
     54 O         -45.7682  -29.1659   12.5821 O.2       7 UNK        -0.5083 
     55 CA        -46.4132  -28.6299   10.3375 C.3       6 UNK         0.0844 
     56 C56       -47.7499  -29.2747    9.9048 C.3       14 UNK        -0.0967 
     57 S57       -47.7024  -29.8535    8.1779 S.3       14 UNK        -0.2604 
     58 C58       -49.1985  -30.8903    8.1142 C.3       14 UNK         0.0134 
     59 N         -46.1175  -27.3980    9.6018 N.am      6 UNK        -0.4116 
     60 C         -44.8884  -26.8849    9.4506 C.2       5 UNK         0.5034 
     61 O         -43.8756  -27.3870    9.9423 O.2       5 UNK        -0.5045 
     62 CA        -44.7682  -25.5964    8.6115 C.3       5 UNK         0.0224 
     63 CB        -43.3503  -25.3729    8.0439 C.3       5 UNK        -0.1978 
     64 N         -45.7788  -25.4995    7.5518 N.am      5 UNK        -0.4737 
     65 C         -45.9627  -26.3090    6.4972 C.2       4 UNK         0.5027 
     66 O         -45.2189  -27.2476    6.2126 O.2       4 UNK        -0.5211 
     67 CA        -47.1991  -26.0395    5.6166 C.3       4 UNK         0.0297 
     68 CB        -48.1959  -27.2042    5.7196 C.3       4 UNK        -0.1993 
     69 N         -47.8939  -24.8055    5.9912 N.am      4 UNK        -0.4486 
     70 C         -47.6325  -23.5926    5.4857 C.2       3 UNK         0.4961 
     71 O         -46.8329  -23.3845    4.5732 O.2       3 UNK        -0.5105 
     72 CA        -48.3698  -22.4041    6.1306 C.3       3 UNK         0.0299 
     73 CB        -49.7267  -22.1768    5.4452 C.3       3 UNK        -0.1972 
     74 N         -48.5758  -22.5727    7.5726 N.am      3 UNK        -0.4305 
     75 C         -47.5967  -22.6285    8.4890 C.2       2 UNK         0.5006 
     76 O         -46.4050  -22.4732    8.2272 O.2       2 UNK        -0.5106 
     77 CA        -48.0027  -22.9705    9.9319 C.3       2 UNK         0.0296 
     78 CB        -48.1828  -21.6953   10.7693 C.3       2 UNK        -0.2002 
     79 N         -49.2219  -23.7746   10.0071 N.am      2 UNK        -0.4032 
     80 C         -49.3527  -25.0384    9.5851 C.2       1 UNK         0.5000 
     81 O         -48.4313  -25.6881    9.0851 O.2       1 UNK        -0.5238 
     82 H82       -52.9783  -23.9757   13.4113 H         1 UNK         0.0889 
     83 H83       -51.3122  -24.3509   13.8570 H         1 UNK         0.0889 
     84 H84       -52.4218  -25.6523   13.4118 H         1 UNK         0.0889 
     85 H85       -51.2215  -26.4386   11.6509 H         1 UNK         0.3028 
     86 H86       -50.5886  -26.7547    9.6001 H         1 UNK         0.0864 
     87 H87       -51.7959  -24.1064    8.6405 H         1 UNK         0.0720 
     88 H88       -52.7646  -25.5125    8.9478 H         1 UNK         0.0720 
     89 H89       -52.4793  -27.6438    5.8690 H         1 UNK         0.0814 
     90 H90       -53.5226  -26.9652    7.0929 H         1 UNK         0.0814 
     91 H91       -50.3957  -28.9689    6.6086 H         1 UNK         0.1469 
     92 H92       -50.7650  -31.0263   10.3525 H         1 UNK         0.1381 
     93 H93       -53.5911  -27.9810    9.2931 H         1 UNK         0.1206 
     94 H94       -52.2462  -29.8442   12.0868 H         1 UNK         0.0813 
     95 H95       -53.5820  -28.8711   11.5223 H         1 UNK         0.0813 
     96 H96       -54.2221  -30.4720   13.5351 H         1 UNK         0.0638 
     97 H97       -54.7411  -32.1210   13.3365 H         1 UNK         0.0638 
     98 H98       -56.8346  -31.4229   12.2725 H         1 UNK         0.0568 
     99 H99       -57.5217  -28.7163   14.2481 H         1 UNK         0.3450 
    100 H100      -57.9218  -29.6359   15.6784 H         1 UNK         0.3450 
    101 H101      -55.7264  -28.6982   12.3411 H         1 UNK         0.2987 
    102 H102      -57.0948  -27.6481    9.8784 H         1 UNK         0.0766 
    103 H103      -59.5204  -27.0091   11.6400 H         1 UNK         0.0798 
    104 H104      -59.5572  -27.6657   10.0107 H         1 UNK         0.0798 
    105 H105      -58.9757  -26.0323   10.2772 H         1 UNK         0.0798 
    106 H106      -55.9700  -26.2016   11.1111 H         1 UNK         0.3198 
    107 H107      -54.9525  -25.3073   12.7865 H         1 UNK         0.0843 
    108 H108      -57.1330  -24.0489   14.5420 H         1 UNK         0.0831 
    109 H109      -56.7445  -23.5649   12.8979 H         1 UNK         0.0831 
    110 H110      -55.5622  -23.3334   14.1749 H         1 UNK         0.0831 
    111 H111      -55.3571  -25.4530   15.5947 H         1 UNK         0.3133 
    112 H112      -55.0187  -27.5324   16.8646 H         1 UNK         0.0566 
    113 H113      -54.3947  -29.7337   15.9869 H         1 UNK         0.0814 
    114 H114      -52.7609  -29.2002   15.6350 H         1 UNK         0.0814 
    115 H115      -53.3138  -29.3133   17.3054 H         1 UNK         0.0814 
    116 H116      -53.5074  -26.0825   17.5829 H         1 UNK         0.3091 
    117 H117      -51.8210  -24.4008   17.1695 H         1 UNK         0.0702 
    118 H118      -50.1876  -24.9036   19.0300 H         1 UNK         0.0785 
    119 H119      -50.0899  -26.5804   18.4963 H         1 UNK         0.0785 
    120 H120      -51.5968  -25.9429   19.1415 H         1 UNK         0.0785 
    121 H121      -49.6174  -25.6968   15.7733 H         1 UNK         0.2998 
    122 H122      -48.5079  -23.0823   14.3626 H         1 UNK         0.0697 
    123 H123      -46.7755  -23.1570   16.8914 H         1 UNK         0.0825 
    124 H124      -46.2282  -22.6308   15.2993 H         1 UNK         0.0825 
    125 H125      -47.4669  -21.7228   16.1456 H         1 UNK         0.0825 
    126 H126      -47.0814  -25.3484   15.6729 H         1 UNK         0.3029 
    127 H127      -46.2514  -26.9717   14.1919 H         1 UNK         0.0897 
    128 H128      -49.1521  -28.0079   13.9728 H         1 UNK         0.0792 
    129 H129      -48.3123  -27.6967   15.4845 H         1 UNK         0.0792 
    130 H130      -47.7578  -28.9811   14.4327 H         1 UNK         0.0792 
    131 H131      -47.5502  -26.7080   11.6716 H         1 UNK         0.3086 
    132 H132      -45.6197  -29.3491   10.1208 H         1 UNK         0.0583 
    133 H133      -47.9852  -30.1316   10.5399 H         1 UNK         0.1020 
    134 H134      -48.5758  -28.5694   10.0177 H         1 UNK         0.1020 
    135 H135      -49.2909  -31.3183    7.1151 H         1 UNK         0.0694 
    136 H136      -49.0831  -31.7314    8.7996 H         1 UNK         0.0694 
    137 H137      -46.9069  -26.9050    9.1938 H         1 UNK         0.2989 
    138 H138      -44.9756  -24.7763    9.3007 H         1 UNK         0.1055 
    139 H139      -42.6149  -25.2954    8.8456 H         1 UNK         0.0806 
    140 H140      -43.2961  -24.4495    7.4672 H         1 UNK         0.0806 
    141 H141      -43.0385  -26.1929    7.3964 H         1 UNK         0.0806 
    142 H142      -46.4513  -24.7548    7.6737 H         1 UNK         0.3061 
    143 H143      -46.8577  -25.9717    4.5815 H         1 UNK         0.0734 
    144 H144      -49.0525  -27.0553    5.0622 H         1 UNK         0.0832 
    145 H145      -47.7295  -28.1488    5.4371 H         1 UNK         0.0832 
    146 H146      -48.5699  -27.3168    6.7380 H         1 UNK         0.0832 
    147 H147      -48.5657  -24.8862    6.7428 H         1 UNK         0.3156 
    148 H148      -47.7570  -21.5124    5.9821 H         1 UNK         0.0589 
    149 H149      -50.3962  -23.0279    5.5778 H         1 UNK         0.0808 
    150 H150      -50.2269  -21.2909    5.8370 H         1 UNK         0.0808 
    151 H151      -49.6004  -22.0268    4.3719 H         1 UNK         0.0808 
    152 H152      -49.5277  -22.6957    7.8853 H         1 UNK         0.3098 
    153 H153      -47.1934  -23.5566   10.3727 H         1 UNK         0.0720 
    154 H154      -48.3901  -21.9367   11.8124 H         1 UNK         0.0791 
    155 H155      -49.0026  -21.0794   10.3975 H         1 UNK         0.0791 
    156 H156      -47.2788  -21.0849   10.7517 H         1 UNK         0.0791 
    157 H157      -50.0368  -23.3532   10.4480 H         1 UNK         0.3028 
@<TRIPOS>BOND
     1    1    2 1    
     2    1   82 1    
     3    1   83 1    
     4    1   84 1    
     5    2    3 2    
     6    2    4 am   BACKBONE|DICT|INTERRES
     7    4    5 1    
     8    4   85 1    
     9    5    6 1    
    10    5   80 1    
    11    5   86 1    
    12    6    7 1    
    13    6   87 1    
    14    6   88 1    
    15    7    8 1    
    16    8    9 1    
    17    8   89 1    
    18    8   90 1    
    19    9   10 ar   
    20    9   14 ar   
    21   10   11 ar   
    22   10   91 1    
    23   11   12 ar   
    24   11   58 1    
    25   12   13 ar   
    26   12   92 1    
    27   13   14 ar   
    28   13   15 1    
    29   14   93 1    
    30   15   16 1    
    31   15   94 1    
    32   15   95 1    
    33   16   17 1    
    34   17   18 1    
    35   17   96 1    
    36   17   97 1    
    37   18   19 1    
    38   18   22 1    
    39   18   98 1    
    40   19   20 am   BACKBONE|DICT|INTERRES
    41   19   21 2    
    42   20   99 1    
    43   20  100 1    
    44   22   23 am   BACKBONE|DICT|INTERRES
    45   22  101 1    
    46   23   24 2    
    47   23   25 1    
    48   25   26 1    
    49   25   27 1    
    50   25  102 1    
    51   26  103 1    
    52   26  104 1    
    53   26  105 1    
    54   27   28 am   BACKBONE|DICT|INTERRES
    55   27  106 1    
    56   28   29 2    
    57   28   30 1    
    58   30   31 1    
    59   30   32 1    
    60   30  107 1    
    61   31  108 1    
    62   31  109 1    
    63   31  110 1    
    64   32   33 am   BACKBONE|DICT|INTERRES
    65   32  111 1    
    66   33   34 2    
    67   33   35 1    
    68   35   36 1    
    69   35   37 1    
    70   35  112 1    
    71   36  113 1    
    72   36  114 1    
    73   36  115 1    
    74   37   38 am   BACKBONE|DICT|INTERRES
    75   37  116 1    
    76   38   39 2    
    77   38   40 1    
    78   40   41 1    
    79   40   42 1    
    80   40  117 1    
    81   41  118 1    
    82   41  119 1    
    83   41  120 1    
    84   42   43 am   BACKBONE|DICT|INTERRES
    85   42  121 1    
    86   43   44 2    
    87   43   45 1    
    88   45   46 1    
    89   45   47 1    
    90   45  122 1    
    91   46  123 1    
    92   46  124 1    
    93   46  125 1    
    94   47   48 am   BACKBONE|DICT|INTERRES
    95   47  126 1    
    96   48   49 2    
    97   48   50 1    
    98   50   51 1    
    99   50   52 1    
   100   50  127 1    
   101   51  128 1    
   102   51  129 1    
   103   51  130 1    
   104   52   53 am   BACKBONE|DICT|INTERRES
   105   52  131 1    
   106   53   54 2    
   107   53   55 1    
   108   55   56 1    
   109   55   59 1    
   110   55  132 1    
   111   56   57 1    
   112   56  133 1    
   113   56  134 1    
   114   57   58 1    
   115   58  135 1    
   116   58  136 1    
   117   59   60 am   BACKBONE|DICT|INTERRES
   118   59  137 1    
   119   60   61 2    
   120   60   62 1    
   121   62   63 1    
   122   62   64 1    
   123   62  138 1    
   124   63  139 1    
   125   63  140 1    
   126   63  141 1    
   127   64   65 am   BACKBONE|DICT|INTERRES
   128   64  142 1    
   129   65   66 2    
   130   65   67 1    
   131   67   68 1    
   132   67   69 1    
   133   67  143 1    
   134   68  144 1    
   135   68  145 1    
   136   68  146 1    
   137   69   70 am   BACKBONE|DICT|INTERRES
   138   69  147 1    
   139   70   71 2    
   140   70   72 1    
   141   72   73 1    
   142   72   74 1    
   143   72  148 1    
   144   73  149 1    
   145   73  150 1    
   146   73  151 1    
   147   74   75 am   BACKBONE|DICT|INTERRES
   148   74  152 1    
   149   75   76 2    
   150   75   77 1    
   151   77   78 1    
   152   77   79 1    
   153   77  153 1    
   154   78  154 1    
   155   78  155 1    
   156   78  156 1    
   157   79   80 am   BACKBONE|DICT|INTERRES
   158   79  157 1    
   159   80   81 2    
@<TRIPOS>SUBSTRUCTURE
     1 UNK         1 GROUP             0       ****    0 ROOT    
