@<TRIPOS>MOLECULE
3R207
157   159    1
SMALL
USER_CHARGES


@<TRIPOS>ATOM
      1 CA        -54.7525  -29.7137    5.6390 C.3       0 UNK        -0.1975 
      2 C         -53.6592  -29.0310    6.4482 C.2       0 UNK         0.4852 
      3 O         -53.9599  -28.3578    7.4339 O.2       0 UNK        -0.5216 
      4 N         -52.3989  -29.2042    6.0305 N.am      1 UNK        -0.4461 
      5 CA        -51.2181  -28.5547    6.6087 C.3       1 UNK         0.0864 
      6 C6        -50.0150  -29.5380    6.6390 C.3       14 UNK        -0.0898 
      7 S7        -48.7326  -29.1196    7.8727 S.3       14 UNK        -0.2598 
      8 C8        -49.1604  -30.2079    9.2806 C.3       14 UNK         0.0286 
      9 C9        -50.3533  -29.7586   10.1288 C.ar      14 UNK        -0.0844 
     10 C10       -50.7997  -28.4331   10.1484 C.ar      14 UNK        -0.0881 
     11 C11       -51.8690  -28.0350   10.9577 C.ar      14 UNK        -0.0643 
     12 C12       -52.4648  -28.9829   11.7932 C.ar      14 UNK        -0.0930 
     13 C13       -52.0420  -30.3174   11.7901 C.ar      14 UNK        -0.0827 
     14 C14       -50.9872  -30.6931   10.9527 C.ar      14 UNK        -0.1249 
     15 C15       -52.6687  -31.3597   12.7152 C.3       14 UNK         0.0141 
     16 S16       -54.4538  -31.1331   13.0220 S.3       14 UNK        -0.2313 
     17 C17       -55.1847  -31.5293   11.3957 C.3       14 UNK        -0.0915 
     18 CA        -55.5226  -30.2823   10.5215 C.3       13 UNK         0.0968 
     19 C         -56.1703  -30.6774    9.1590 C.2       13 UNK         0.5732 
     20 N         -57.0675  -29.8775    8.5941 N.am      13 UNK        -0.7310 
     21 O         -55.8432  -31.7162    8.5892 O.2       13 UNK        -0.5035 
     22 N         -56.2337  -29.2226   11.2617 N.am      13 UNK        -0.4233 
     23 C         -57.4496  -29.3079   11.8134 C.2       13 UNK         0.4989 
     24 O         -58.1677  -30.3079   11.7545 O.2       13 UNK        -0.4996 
     25 CA        -57.9296  -28.0571   12.5766 C.3       12 UNK         0.0216 
     26 CB        -59.4217  -28.1307   12.9537 C.3       12 UNK        -0.1964 
     27 N         -57.1439  -27.8252   13.7925 N.am      12 UNK        -0.4276 
     28 C         -55.9092  -27.3098   13.8285 C.2       12 UNK         0.5020 
     29 O         -55.2806  -26.9687   12.8233 O.2       12 UNK        -0.5489 
     30 CA        -55.2659  -27.1692   15.2122 C.3       11 UNK         0.0294 
     31 CB        -54.7746  -28.5293   15.7387 C.3       11 UNK        -0.2019 
     32 N         -54.1286  -26.2564   15.1267 N.am      11 UNK        -0.4493 
     33 C         -53.7603  -25.3867   16.0733 C.2       11 UNK         0.4932 
     34 O         -54.3772  -25.2246   17.1285 O.2       11 UNK        -0.5029 
     35 CA        -52.4697  -24.5866   15.7963 C.3       10 UNK         0.0280 
     36 CB        -52.0643  -23.6750   16.9731 C.3       10 UNK        -0.1976 
     37 N         -51.3350  -25.4339   15.4053 N.am      10 UNK        -0.4242 
     38 C         -50.8470  -26.4995   16.0633 C.2       10 UNK         0.5072 
     39 O         -51.3116  -26.9481   17.1124 O.2       10 UNK        -0.5224 
     40 CA        -49.6098  -27.1767   15.4515 C.3       9 UNK         0.0343 
     41 CB        -49.9929  -27.9904   14.2047 C.3       9 UNK        -0.2003 
     42 N         -48.5404  -26.2284   15.1262 N.am      9 UNK        -0.4272 
     43 C         -47.8574  -25.5121   16.0334 C.2       9 UNK         0.4988 
     44 O         -48.0343  -25.5951   17.2495 O.2       9 UNK        -0.5108 
     45 CA        -46.7851  -24.5445   15.5042 C.3       8 UNK         0.0248 
     46 CB        -45.4891  -25.2999   15.1675 C.3       8 UNK        -0.2001 
     47 N         -47.2327  -23.7847   14.3366 N.am      8 UNK        -0.4140 
     48 C         -48.1757  -22.8314   14.3621 C.2       8 UNK         0.5028 
     49 O         -48.7144  -22.4248   15.3919 O.2       8 UNK        -0.5428 
     50 CA        -48.6147  -22.2495   13.0048 C.3       7 UNK         0.0264 
     51 CB        -47.6627  -21.1305   12.5553 C.3       7 UNK        -0.1988 
     52 N         -48.7220  -23.2678   11.9543 N.am      7 UNK        -0.4454 
     53 C         -49.5731  -24.3043   12.0030 C.2       7 UNK         0.5027 
     54 O         -50.3845  -24.4782   12.9129 O.2       7 UNK        -0.5083 
     55 CA        -49.4589  -25.3588   10.8889 C.3       6 UNK         0.0844 
     56 C56       -50.2929  -24.9934    9.6337 C.3       14 UNK        -0.0967 
     57 S57       -52.0356  -25.5527    9.5323 S.3       14 UNK        -0.2604 
     58 C58       -52.3963  -26.5970   10.9932 C.3       14 UNK         0.0134 
     59 N         -48.0642  -25.6361   10.5465 N.am      6 UNK        -0.4116 
     60 C         -47.2102  -26.2991   11.3375 C.2       5 UNK         0.5034 
     61 O         -47.5082  -26.7634   12.4369 O.2       5 UNK        -0.5045 
     62 CA        -45.7613  -26.4070   10.8395 C.3       5 UNK         0.0224 
     63 CB        -45.6249  -27.5350    9.8043 C.3       5 UNK        -0.1978 
     64 N         -45.2792  -25.1469   10.2681 N.am      5 UNK        -0.4737 
     65 C         -45.1592  -24.0043   10.9593 C.2       4 UNK         0.5027 
     66 O         -45.3731  -23.9129   12.1665 O.2       4 UNK        -0.5211 
     67 CA        -44.7820  -22.7397   10.1731 C.3       4 UNK         0.0297 
     68 CB        -43.2609  -22.5251   10.2063 C.3       4 UNK        -0.1993 
     69 N         -45.2444  -22.7396    8.7833 N.am      4 UNK        -0.4486 
     70 C         -46.5185  -22.8181    8.3722 C.2       3 UNK         0.4961 
     71 O         -47.4804  -22.9268    9.1386 O.2       3 UNK        -0.5105 
     72 CA        -46.7438  -22.7320    6.8468 C.3       3 UNK         0.0299 
     73 CB        -45.5030  -23.1376    6.0158 C.3       3 UNK        -0.1972 
     74 N         -47.9145  -23.4712    6.3616 N.am      3 UNK        -0.4305 
     75 C         -48.1746  -24.7771    6.5116 C.2       2 UNK         0.5006 
     76 O         -47.5335  -25.5457    7.2343 O.2       2 UNK        -0.5106 
     77 CA        -49.3292  -25.3173    5.6584 C.3       2 UNK         0.0296 
     78 CB        -48.8726  -25.4862    4.1938 C.3       2 UNK        -0.2002 
     79 N         -49.7831  -26.5962    6.1983 N.am      2 UNK        -0.4032 
     80 C         -50.9224  -27.2218    5.8789 C.2       1 UNK         0.5000 
     81 O         -51.7221  -26.7796    5.0477 O.2       1 UNK        -0.5238 
     82 H82       -54.3934  -30.0346    4.6614 H         1 UNK         0.0889 
     83 H83       -55.5873  -29.0310    5.4830 H         1 UNK         0.0889 
     84 H84       -55.1223  -30.5895    6.1703 H         1 UNK         0.0889 
     85 H85       -52.2308  -29.7343    5.1874 H         1 UNK         0.3028 
     86 H86       -51.4641  -28.2827    7.6327 H         1 UNK         0.0864 
     87 H87       -50.3671  -30.5466    6.8620 H         1 UNK         0.0720 
     88 H88       -49.5456  -29.6065    5.6557 H         1 UNK         0.0720 
     89 H89       -48.2901  -30.2634    9.9358 H         1 UNK         0.0814 
     90 H90       -49.3256  -31.2202    8.9087 H         1 UNK         0.0814 
     91 H91       -50.3034  -27.7030    9.5323 H         1 UNK         0.1469 
     92 H92       -53.2679  -28.6760   12.4478 H         1 UNK         0.1381 
     93 H93       -50.6405  -31.7177   10.9587 H         1 UNK         0.1206 
     94 H94       -52.1493  -31.3176   13.6732 H         1 UNK         0.0813 
     95 H95       -52.5085  -32.3652   12.3232 H         1 UNK         0.0813 
     96 H96       -56.0878  -32.1137   11.5785 H         1 UNK         0.0638 
     97 H97       -54.5031  -32.1932   10.8612 H         1 UNK         0.0638 
     98 H98       -54.5745  -29.8309   10.2318 H         1 UNK         0.0568 
     99 H99       -57.4800  -30.1414    7.7143 H         1 UNK         0.3450 
    100 H100      -57.3303  -29.0131    9.0379 H         1 UNK         0.3450 
    101 H101      -55.7114  -28.3683   11.4254 H         1 UNK         0.2987 
    102 H102      -57.8015  -27.2012   11.9100 H         1 UNK         0.0766 
    103 H103      -59.7579  -27.2071   13.4255 H         1 UNK         0.0798 
    104 H104      -59.6272  -28.9528   13.6406 H         1 UNK         0.0798 
    105 H105      -60.0408  -28.2833   12.0685 H         1 UNK         0.0798 
    106 H106      -57.5706  -28.1164   14.6607 H         1 UNK         0.3198 
    107 H107      -56.0200  -26.7646   15.8909 H         1 UNK         0.0843 
    108 H108      -55.5854  -29.2571   15.7871 H         1 UNK         0.0831 
    109 H109      -54.3620  -28.4364   16.7436 H         1 UNK         0.0831 
    110 H110      -53.9962  -28.9481   15.0999 H         1 UNK         0.0831 
    111 H111      -53.6355  -26.2781   14.2436 H         1 UNK         0.3133 
    112 H112      -52.6814  -23.9453   14.9395 H         1 UNK         0.0566 
    113 H113      -51.1779  -23.0883   16.7304 H         1 UNK         0.0814 
    114 H114      -52.8613  -22.9721   17.2183 H         1 UNK         0.0814 
    115 H115      -51.8470  -24.2513   17.8731 H         1 UNK         0.0814 
    116 H116      -50.8766  -25.1579   14.5374 H         1 UNK         0.3091 
    117 H117      -49.2148  -27.8733   16.1939 H         1 UNK         0.0702 
    118 H118      -49.1459  -28.5626   13.8261 H         1 UNK         0.0785 
    119 H119      -50.3460  -27.3491   13.3983 H         1 UNK         0.0785 
    120 H120      -50.7893  -28.7016   14.4284 H         1 UNK         0.0785 
    121 H121      -48.2770  -26.1597   14.1478 H         1 UNK         0.2998 
    122 H122      -46.5607  -23.8310   16.3000 H         1 UNK         0.0697 
    123 H123      -45.6339  -26.0096   14.3523 H         1 UNK         0.0825 
    124 H124      -45.1281  -25.8613   16.0303 H         1 UNK         0.0825 
    125 H125      -44.6960  -24.6125   14.8726 H         1 UNK         0.0825 
    126 H126      -46.7683  -23.9891   13.4548 H         1 UNK         0.3029 
    127 H127      -49.6083  -21.8160   13.1386 H         1 UNK         0.0897 
    128 H128      -47.9460  -20.7289   11.5821 H         1 UNK         0.0792 
    129 H129      -47.6780  -20.3031   13.2659 H         1 UNK         0.0792 
    130 H130      -46.6326  -21.4792   12.4915 H         1 UNK         0.0792 
    131 H131      -48.1077  -23.1794   11.1514 H         1 UNK         0.3086 
    132 H132      -49.8292  -26.2836   11.3190 H         1 UNK         0.0583 
    133 H133      -50.2607  -23.9191    9.4390 H         1 UNK         0.1020 
    134 H134      -49.8227  -25.4387    8.7596 H         1 UNK         0.1020 
    135 H135      -52.0817  -26.1036   11.9106 H         1 UNK         0.0694 
    136 H136      -53.4831  -26.6469   11.0471 H         1 UNK         0.0694 
    137 H137      -47.7185  -25.2458    9.6783 H         1 UNK         0.2989 
    138 H138      -45.1343  -26.6494   11.7007 H         1 UNK         0.1055 
    139 H139      -45.9820  -28.4825   10.2105 H         1 UNK         0.0806 
    140 H140      -44.5855  -27.6806    9.5102 H         1 UNK         0.0806 
    141 H141      -46.2036  -27.3313    8.9021 H         1 UNK         0.0806 
    142 H142      -45.1009  -25.1289    9.2740 H         1 UNK         0.3061 
    143 H143      -45.2544  -21.8909   10.6693 H         1 UNK         0.0734 
    144 H144      -42.8945  -22.4955   11.2337 H         1 UNK         0.0832 
    145 H145      -42.7273  -23.3268    9.6941 H         1 UNK         0.0832 
    146 H146      -42.9810  -21.5808    9.7390 H         1 UNK         0.0832 
    147 H147      -44.5297  -22.6509    8.0754 H         1 UNK         0.3156 
    148 H148      -46.9496  -21.6812    6.6386 H         1 UNK         0.0589 
    149 H149      -45.1726  -24.1511    6.2489 H         1 UNK         0.0808 
    150 H150      -45.7186  -23.1027    4.9476 H         1 UNK         0.0808 
    151 H151      -44.6632  -22.4623    6.1822 H         1 UNK         0.0808 
    152 H152      -48.5461  -22.9324    5.7855 H         1 UNK         0.3098 
    153 H153      -50.1564  -24.6060    5.7081 H         1 UNK         0.0720 
    154 H154      -48.4996  -24.5474    3.7827 H         1 UNK         0.0791 
    155 H155      -49.6903  -25.8100    3.5502 H         1 UNK         0.0791 
    156 H156      -48.0705  -26.2205    4.1083 H         1 UNK         0.0791 
    157 H157      -49.1499  -27.0170    6.8710 H         1 UNK         0.3028 
@<TRIPOS>BOND
     1    1    2 1    
     2    1   82 1    
     3    1   83 1    
     4    1   84 1    
     5    2    3 2    
     6    2    4 am   BACKBONE|DICT|INTERRES
     7    4    5 1    
     8    4   85 1    
     9    5    6 1    
    10    5   80 1    
    11    5   86 1    
    12    6    7 1    
    13    6   87 1    
    14    6   88 1    
    15    7    8 1    
    16    8    9 1    
    17    8   89 1    
    18    8   90 1    
    19    9   10 ar   
    20    9   14 ar   
    21   10   11 ar   
    22   10   91 1    
    23   11   12 ar   
    24   11   58 1    
    25   12   13 ar   
    26   12   92 1    
    27   13   14 ar   
    28   13   15 1    
    29   14   93 1    
    30   15   16 1    
    31   15   94 1    
    32   15   95 1    
    33   16   17 1    
    34   17   18 1    
    35   17   96 1    
    36   17   97 1    
    37   18   19 1    
    38   18   22 1    
    39   18   98 1    
    40   19   20 am   BACKBONE|DICT|INTERRES
    41   19   21 2    
    42   20   99 1    
    43   20  100 1    
    44   22   23 am   BACKBONE|DICT|INTERRES
    45   22  101 1    
    46   23   24 2    
    47   23   25 1    
    48   25   26 1    
    49   25   27 1    
    50   25  102 1    
    51   26  103 1    
    52   26  104 1    
    53   26  105 1    
    54   27   28 am   BACKBONE|DICT|INTERRES
    55   27  106 1    
    56   28   29 2    
    57   28   30 1    
    58   30   31 1    
    59   30   32 1    
    60   30  107 1    
    61   31  108 1    
    62   31  109 1    
    63   31  110 1    
    64   32   33 am   BACKBONE|DICT|INTERRES
    65   32  111 1    
    66   33   34 2    
    67   33   35 1    
    68   35   36 1    
    69   35   37 1    
    70   35  112 1    
    71   36  113 1    
    72   36  114 1    
    73   36  115 1    
    74   37   38 am   BACKBONE|DICT|INTERRES
    75   37  116 1    
    76   38   39 2    
    77   38   40 1    
    78   40   41 1    
    79   40   42 1    
    80   40  117 1    
    81   41  118 1    
    82   41  119 1    
    83   41  120 1    
    84   42   43 am   BACKBONE|DICT|INTERRES
    85   42  121 1    
    86   43   44 2    
    87   43   45 1    
    88   45   46 1    
    89   45   47 1    
    90   45  122 1    
    91   46  123 1    
    92   46  124 1    
    93   46  125 1    
    94   47   48 am   BACKBONE|DICT|INTERRES
    95   47  126 1    
    96   48   49 2    
    97   48   50 1    
    98   50   51 1    
    99   50   52 1    
   100   50  127 1    
   101   51  128 1    
   102   51  129 1    
   103   51  130 1    
   104   52   53 am   BACKBONE|DICT|INTERRES
   105   52  131 1    
   106   53   54 2    
   107   53   55 1    
   108   55   56 1    
   109   55   59 1    
   110   55  132 1    
   111   56   57 1    
   112   56  133 1    
   113   56  134 1    
   114   57   58 1    
   115   58  135 1    
   116   58  136 1    
   117   59   60 am   BACKBONE|DICT|INTERRES
   118   59  137 1    
   119   60   61 2    
   120   60   62 1    
   121   62   63 1    
   122   62   64 1    
   123   62  138 1    
   124   63  139 1    
   125   63  140 1    
   126   63  141 1    
   127   64   65 am   BACKBONE|DICT|INTERRES
   128   64  142 1    
   129   65   66 2    
   130   65   67 1    
   131   67   68 1    
   132   67   69 1    
   133   67  143 1    
   134   68  144 1    
   135   68  145 1    
   136   68  146 1    
   137   69   70 am   BACKBONE|DICT|INTERRES
   138   69  147 1    
   139   70   71 2    
   140   70   72 1    
   141   72   73 1    
   142   72   74 1    
   143   72  148 1    
   144   73  149 1    
   145   73  150 1    
   146   73  151 1    
   147   74   75 am   BACKBONE|DICT|INTERRES
   148   74  152 1    
   149   75   76 2    
   150   75   77 1    
   151   77   78 1    
   152   77   79 1    
   153   77  153 1    
   154   78  154 1    
   155   78  155 1    
   156   78  156 1    
   157   79   80 am   BACKBONE|DICT|INTERRES
   158   79  157 1    
   159   80   81 2    
@<TRIPOS>SUBSTRUCTURE
     1 UNK         1 GROUP             0       ****    0 ROOT    
