@<TRIPOS>MOLECULE
3R207
157   159    1
SMALL
USER_CHARGES


@<TRIPOS>ATOM
      1 CA        -47.1925  -28.4702    2.3660 C.3       0 UNK        -0.1975 
      2 C         -47.6158  -28.1294    3.7863 C.2       0 UNK         0.4852 
      3 O         -46.9044  -28.4672    4.7326 O.2       0 UNK        -0.5216 
      4 N         -48.7540  -27.4358    3.9428 N.am      1 UNK        -0.4461 
      5 CA        -49.3996  -27.0802    5.2210 C.3       1 UNK         0.0864 
      6 C6        -49.9661  -28.3133    5.9786 C.3       14 UNK        -0.0898 
      7 S7        -51.0099  -29.4161    4.9608 S.3       14 UNK        -0.2598 
      8 C8        -52.6980  -28.7908    5.2675 C.3       14 UNK         0.0286 
      9 C9        -53.0699  -28.7132    6.7452 C.ar      14 UNK        -0.0844 
     10 C10       -53.5965  -27.5259    7.2626 C.ar      14 UNK        -0.0881 
     11 C11       -53.9242  -27.4260    8.6161 C.ar      14 UNK        -0.0643 
     12 C12       -53.7223  -28.5245    9.4538 C.ar      14 UNK        -0.0930 
     13 C13       -53.1831  -29.7159    8.9599 C.ar      14 UNK        -0.0827 
     14 C14       -52.8773  -29.8074    7.5975 C.ar      14 UNK        -0.1249 
     15 C15       -52.8577  -30.8792    9.8938 C.3       14 UNK         0.0141 
     16 S16       -54.2850  -31.4746   10.8623 S.3       14 UNK        -0.2313 
     17 C17       -54.2409  -30.3950   12.3363 C.3       14 UNK        -0.0915 
     18 CA        -55.5949  -29.6630   12.5742 C.3       13 UNK         0.0968 
     19 C         -56.4870  -30.4359   13.5925 C.2       13 UNK         0.5732 
     20 N         -56.7181  -29.9290   14.7993 N.am      13 UNK        -0.7310 
     21 O         -56.9864  -31.5136   13.2784 O.2       13 UNK        -0.5035 
     22 N         -55.4034  -28.2399   12.8994 N.am      13 UNK        -0.4233 
     23 C         -56.3802  -27.3222   12.8430 C.2       13 UNK         0.4989 
     24 O         -57.4867  -27.5486   12.3496 O.2       13 UNK        -0.4996 
     25 CA        -56.0956  -25.9195   13.4264 C.3       12 UNK         0.0216 
     26 CB        -57.3622  -25.2753   14.0280 C.3       12 UNK        -0.1964 
     27 N         -54.9973  -25.8584   14.3994 N.am      12 UNK        -0.4276 
     28 C         -54.8519  -26.5617   15.5317 C.2       12 UNK         0.5020 
     29 O         -55.6421  -27.4240   15.9240 O.2       12 UNK        -0.5489 
     30 CA        -53.5672  -26.2691   16.3303 C.3       11 UNK         0.0294 
     31 CB        -53.8186  -26.3677   17.8454 C.3       11 UNK        -0.2019 
     32 N         -52.4001  -27.1005   15.9968 N.am      11 UNK        -0.4493 
     33 C         -52.0569  -27.6976   14.8457 C.2       11 UNK         0.4932 
     34 O         -52.7641  -27.7424   13.8401 O.2       11 UNK        -0.5029 
     35 CA        -50.6466  -28.3212   14.7995 C.3       10 UNK         0.0280 
     36 CB        -50.4009  -29.1041   13.4954 C.3       10 UNK        -0.1976 
     37 N         -49.5860  -27.3164   14.9548 N.am      10 UNK        -0.4242 
     38 C         -49.2578  -26.7135   16.1079 C.2       10 UNK         0.5072 
     39 O         -49.8349  -26.9321   17.1750 O.2       10 UNK        -0.5224 
     40 CA        -48.1007  -25.7057   16.0802 C.3       9 UNK         0.0343 
     41 CB        -46.9371  -26.1430   15.1747 C.3       9 UNK        -0.2003 
     42 N         -48.5719  -24.3841   15.6662 N.am      9 UNK        -0.4272 
     43 C         -48.9885  -23.4309   16.5107 C.2       9 UNK         0.4988 
     44 O         -49.0838  -23.5891   17.7284 O.2       9 UNK        -0.5108 
     45 CA        -49.3186  -22.0528   15.9199 C.3       8 UNK         0.0248 
     46 CB        -48.0284  -21.2774   15.5999 C.3       8 UNK        -0.2001 
     47 N         -50.1518  -22.1295   14.7175 N.am      8 UNK        -0.4140 
     48 C         -51.2372  -21.3695   14.5003 C.2       8 UNK         0.5028 
     49 O         -51.6788  -20.5593   15.3169 O.2       8 UNK        -0.5428 
     50 CA        -51.9536  -21.4986   13.1406 C.3       7 UNK         0.0264 
     51 CB        -51.6000  -20.3089   12.2329 C.3       7 UNK        -0.1988 
     52 N         -51.6461  -22.7407   12.4330 N.am      7 UNK        -0.4454 
     53 C         -52.0836  -23.9504   12.8027 C.2       7 UNK         0.5027 
     54 O         -52.8917  -24.1303   13.7148 O.2       7 UNK        -0.5083 
     55 CA        -51.5078  -25.1754   12.0649 C.3       6 UNK         0.0844 
     56 C56       -52.5799  -25.9201   11.2408 C.3       14 UNK        -0.0967 
     57 S57       -53.1427  -25.0259    9.7521 S.3       14 UNK        -0.2604 
     58 C58       -54.4765  -26.1250    9.1793 C.3       14 UNK         0.0134 
     59 N         -50.2921  -24.9453   11.2807 N.am      6 UNK        -0.4116 
     60 C         -49.1101  -24.5393   11.7601 C.2       5 UNK         0.5034 
     61 O         -48.9426  -24.1029   12.9020 O.2       5 UNK        -0.5045 
     62 CA        -47.9197  -24.7126   10.8005 C.3       5 UNK         0.0224 
     63 CB        -46.5653  -24.3609   11.4488 C.3       5 UNK        -0.1978 
     64 N         -47.8744  -26.0613   10.2151 N.am      5 UNK        -0.4737 
     65 C         -47.8763  -27.2382   10.8671 C.2       4 UNK         0.5027 
     66 O         -47.9539  -27.3589   12.0894 O.2       4 UNK        -0.5211 
     67 CA        -47.7799  -28.5020   10.0006 C.3       4 UNK         0.0297 
     68 CB        -49.1776  -28.9370    9.5288 C.3       4 UNK        -0.1993 
     69 N         -46.8991  -28.2880    8.8492 N.am      4 UNK        -0.4486 
     70 C         -45.5599  -28.3588    8.9076 C.2       3 UNK         0.4961 
     71 O         -44.9374  -28.7165    9.9082 O.2       3 UNK        -0.5105 
     72 CA        -44.7710  -27.9642    7.6459 C.3       3 UNK         0.0299 
     73 CB        -44.4520  -29.2084    6.8018 C.3       3 UNK        -0.1972 
     74 N         -45.4753  -26.9755    6.8252 N.am      3 UNK        -0.4305 
     75 C         -45.5687  -25.6721    7.1388 C.2       2 UNK         0.5006 
     76 O         -44.9897  -25.1622    8.0979 O.2       2 UNK        -0.5106 
     77 CA        -46.4696  -24.7767    6.2624 C.3       2 UNK         0.0296 
     78 CB        -45.6228  -24.0029    5.2390 C.3       2 UNK        -0.2002 
     79 N         -47.5334  -25.4983    5.5583 N.am      2 UNK        -0.4032 
     80 C         -48.5003  -26.2190    6.1458 C.2       1 UNK         0.5000 
     81 O         -48.6454  -26.2628    7.3706 O.2       1 UNK        -0.5238 
     82 H82       -47.1171  -29.5509    2.2492 H         1 UNK         0.0889 
     83 H83       -46.2170  -28.0351    2.1507 H         1 UNK         0.0889 
     84 H84       -47.9023  -28.0979    1.6277 H         1 UNK         0.0889 
     85 H85       -49.2798  -27.1790    3.1184 H         1 UNK         0.3028 
     86 H86       -50.2450  -26.4406    4.9633 H         1 UNK         0.0864 
     87 H87       -49.1483  -28.9205    6.3704 H         1 UNK         0.0720 
     88 H88       -50.5371  -27.9894    6.8485 H         1 UNK         0.0720 
     89 H89       -53.4105  -29.4433    4.7615 H         1 UNK         0.0814 
     90 H90       -52.7899  -27.8121    4.7940 H         1 UNK         0.0814 
     91 H91       -53.7424  -26.6712    6.6163 H         1 UNK         0.1469 
     92 H92       -53.9649  -28.4310   10.4993 H         1 UNK         0.1381 
     93 H93       -52.4543  -30.7203    7.2009 H         1 UNK         0.1206 
     94 H94       -52.0461  -30.5907   10.5630 H         1 UNK         0.0813 
     95 H95       -52.4785  -31.7240    9.3169 H         1 UNK         0.0813 
     96 H96       -53.4267  -29.6813   12.2185 H         1 UNK         0.0638 
     97 H97       -53.9483  -30.9971   13.1988 H         1 UNK         0.0638 
     98 H98       -56.1519  -29.6730   11.6352 H         1 UNK         0.0568 
     99 H99       -57.3005  -30.4402   15.4423 H         1 UNK         0.3450 
    100 H100      -56.3131  -29.0411   15.0848 H         1 UNK         0.3450 
    101 H101      -54.5127  -27.9930   13.3261 H         1 UNK         0.2987 
    102 H102      -55.7815  -25.3046   12.5819 H         1 UNK         0.0766 
    103 H103      -57.1561  -24.2746   14.4077 H         1 UNK         0.0798 
    104 H104      -57.7629  -25.8699   14.8499 H         1 UNK         0.0798 
    105 H105      -58.1508  -25.1779   13.2808 H         1 UNK         0.0798 
    106 H106      -54.2438  -25.2122   14.1601 H         1 UNK         0.3198 
    107 H107      -53.2803  -25.2369   16.1222 H         1 UNK         0.0843 
    108 H108      -54.0252  -27.3941   18.1516 H         1 UNK         0.0831 
    109 H109      -54.6755  -25.7606   18.1410 H         1 UNK         0.0831 
    110 H110      -52.9597  -26.0137   18.4160 H         1 UNK         0.0831 
    111 H111      -51.6715  -27.1121   16.7065 H         1 UNK         0.3133 
    112 H112      -50.5767  -29.0297   15.6274 H         1 UNK         0.0566 
    113 H113      -50.4755  -28.4582   12.6199 H         1 UNK         0.0814 
    114 H114      -49.4131  -29.5651   13.4864 H         1 UNK         0.0814 
    115 H115      -51.1328  -29.9036   13.3745 H         1 UNK         0.0814 
    116 H116      -49.0562  -27.0918   14.1203 H         1 UNK         0.3091 
    117 H117      -47.7046  -25.6513   17.0967 H         1 UNK         0.0702 
    118 H118      -46.0622  -25.5123   15.3326 H         1 UNK         0.0785 
    119 H119      -47.1978  -26.0779   14.1214 H         1 UNK         0.0785 
    120 H120      -46.6366  -27.1712   15.3811 H         1 UNK         0.0785 
    121 H121      -48.5682  -24.2007   14.6652 H         1 UNK         0.2998 
    122 H122      -49.8473  -21.5061   16.7037 H         1 UNK         0.0697 
    123 H123      -47.4585  -21.7528   14.8004 H         1 UNK         0.0825 
    124 H124      -47.3793  -21.2178   16.4747 H         1 UNK         0.0825 
    125 H125      -48.2489  -20.2556   15.2908 H         1 UNK         0.0825 
    126 H126      -49.8572  -22.7831   13.9982 H         1 UNK         0.3029 
    127 H127      -53.0281  -21.4732   13.3359 H         1 UNK         0.0897 
    128 H128      -51.8500  -19.3626   12.7149 H         1 UNK         0.0792 
    129 H129      -52.1528  -20.3471   11.2940 H         1 UNK         0.0792 
    130 H130      -50.5353  -20.2825   11.9971 H         1 UNK         0.0792 
    131 H131      -50.9965  -22.6825   11.6626 H         1 UNK         0.3086 
    132 H132      -51.1951  -25.8511   12.8603 H         1 UNK         0.0583 
    133 H133      -52.1671  -26.8816   10.9348 H         1 UNK         0.1020 
    134 H134      -53.4458  -26.1557   11.8598 H         1 UNK         0.1020 
    135 H135      -55.1682  -26.3261    9.9988 H         1 UNK         0.0694 
    136 H136      -55.0555  -25.6061    8.4139 H         1 UNK         0.0694 
    137 H137      -50.3303  -25.2620   10.3223 H         1 UNK         0.2989 
    138 H138      -48.0831  -24.0151    9.9773 H         1 UNK         0.1055 
    139 H139      -46.5741  -23.3495   11.8572 H         1 UNK         0.0806 
    140 H140      -45.7576  -24.4074   10.7184 H         1 UNK         0.0806 
    141 H141      -46.3138  -25.0401   12.2621 H         1 UNK         0.0806 
    142 H142      -47.9018  -26.0979    9.1998 H         1 UNK         0.3061 
    143 H143      -47.3690  -29.3049   10.6167 H         1 UNK         0.0734 
    144 H144      -49.1275  -29.7940    8.8572 H         1 UNK         0.0832 
    145 H145      -49.7969  -29.2289   10.3771 H         1 UNK         0.0832 
    146 H146      -49.7030  -28.1329    9.0143 H         1 UNK         0.0832 
    147 H147      -47.3316  -27.9375    8.0049 H         1 UNK         0.3156 
    148 H148      -43.8230  -27.5288    7.9692 H         1 UNK         0.0589 
    149 H149      -45.3578  -29.7305    6.4913 H         1 UNK         0.0808 
    150 H150      -43.8899  -28.9485    5.9048 H         1 UNK         0.0808 
    151 H151      -43.8484  -29.9179    7.3694 H         1 UNK         0.0808 
    152 H152      -45.9772  -27.3377    6.0176 H         1 UNK         0.3098 
    153 H153      -46.9492  -24.0547    6.9267 H         1 UNK         0.0720 
    154 H154      -46.2296  -23.2947    4.6745 H         1 UNK         0.0791 
    155 H155      -45.1368  -24.6728    4.5283 H         1 UNK         0.0791 
    156 H156      -44.8382  -23.4298    5.7353 H         1 UNK         0.0791 
    157 H157      -47.4749  -25.5231    4.5506 H         1 UNK         0.3028 
@<TRIPOS>BOND
     1    1    2 1    
     2    1   82 1    
     3    1   83 1    
     4    1   84 1    
     5    2    3 2    
     6    2    4 am   BACKBONE|DICT|INTERRES
     7    4    5 1    
     8    4   85 1    
     9    5    6 1    
    10    5   80 1    
    11    5   86 1    
    12    6    7 1    
    13    6   87 1    
    14    6   88 1    
    15    7    8 1    
    16    8    9 1    
    17    8   89 1    
    18    8   90 1    
    19    9   10 ar   
    20    9   14 ar   
    21   10   11 ar   
    22   10   91 1    
    23   11   12 ar   
    24   11   58 1    
    25   12   13 ar   
    26   12   92 1    
    27   13   14 ar   
    28   13   15 1    
    29   14   93 1    
    30   15   16 1    
    31   15   94 1    
    32   15   95 1    
    33   16   17 1    
    34   17   18 1    
    35   17   96 1    
    36   17   97 1    
    37   18   19 1    
    38   18   22 1    
    39   18   98 1    
    40   19   20 am   BACKBONE|DICT|INTERRES
    41   19   21 2    
    42   20   99 1    
    43   20  100 1    
    44   22   23 am   BACKBONE|DICT|INTERRES
    45   22  101 1    
    46   23   24 2    
    47   23   25 1    
    48   25   26 1    
    49   25   27 1    
    50   25  102 1    
    51   26  103 1    
    52   26  104 1    
    53   26  105 1    
    54   27   28 am   BACKBONE|DICT|INTERRES
    55   27  106 1    
    56   28   29 2    
    57   28   30 1    
    58   30   31 1    
    59   30   32 1    
    60   30  107 1    
    61   31  108 1    
    62   31  109 1    
    63   31  110 1    
    64   32   33 am   BACKBONE|DICT|INTERRES
    65   32  111 1    
    66   33   34 2    
    67   33   35 1    
    68   35   36 1    
    69   35   37 1    
    70   35  112 1    
    71   36  113 1    
    72   36  114 1    
    73   36  115 1    
    74   37   38 am   BACKBONE|DICT|INTERRES
    75   37  116 1    
    76   38   39 2    
    77   38   40 1    
    78   40   41 1    
    79   40   42 1    
    80   40  117 1    
    81   41  118 1    
    82   41  119 1    
    83   41  120 1    
    84   42   43 am   BACKBONE|DICT|INTERRES
    85   42  121 1    
    86   43   44 2    
    87   43   45 1    
    88   45   46 1    
    89   45   47 1    
    90   45  122 1    
    91   46  123 1    
    92   46  124 1    
    93   46  125 1    
    94   47   48 am   BACKBONE|DICT|INTERRES
    95   47  126 1    
    96   48   49 2    
    97   48   50 1    
    98   50   51 1    
    99   50   52 1    
   100   50  127 1    
   101   51  128 1    
   102   51  129 1    
   103   51  130 1    
   104   52   53 am   BACKBONE|DICT|INTERRES
   105   52  131 1    
   106   53   54 2    
   107   53   55 1    
   108   55   56 1    
   109   55   59 1    
   110   55  132 1    
   111   56   57 1    
   112   56  133 1    
   113   56  134 1    
   114   57   58 1    
   115   58  135 1    
   116   58  136 1    
   117   59   60 am   BACKBONE|DICT|INTERRES
   118   59  137 1    
   119   60   61 2    
   120   60   62 1    
   121   62   63 1    
   122   62   64 1    
   123   62  138 1    
   124   63  139 1    
   125   63  140 1    
   126   63  141 1    
   127   64   65 am   BACKBONE|DICT|INTERRES
   128   64  142 1    
   129   65   66 2    
   130   65   67 1    
   131   67   68 1    
   132   67   69 1    
   133   67  143 1    
   134   68  144 1    
   135   68  145 1    
   136   68  146 1    
   137   69   70 am   BACKBONE|DICT|INTERRES
   138   69  147 1    
   139   70   71 2    
   140   70   72 1    
   141   72   73 1    
   142   72   74 1    
   143   72  148 1    
   144   73  149 1    
   145   73  150 1    
   146   73  151 1    
   147   74   75 am   BACKBONE|DICT|INTERRES
   148   74  152 1    
   149   75   76 2    
   150   75   77 1    
   151   77   78 1    
   152   77   79 1    
   153   77  153 1    
   154   78  154 1    
   155   78  155 1    
   156   78  156 1    
   157   79   80 am   BACKBONE|DICT|INTERRES
   158   79  157 1    
   159   80   81 2    
@<TRIPOS>SUBSTRUCTURE
     1 UNK         1 GROUP             0       ****    0 ROOT    
