@<TRIPOS>MOLECULE
3R207
157   159    1
SMALL
USER_CHARGES


@<TRIPOS>ATOM
      1 CA        -46.0810  -30.9515    2.4662 C.3       0 UNK        -0.1975 
      2 C         -46.8971  -29.8795    3.1732 C.2       0 UNK         0.4852 
      3 O         -47.5356  -29.0613    2.5106 O.2       0 UNK        -0.5216 
      4 N         -46.8805  -29.8772    4.5142 N.am      1 UNK        -0.4461 
      5 CA        -47.5989  -28.9164    5.3635 C.3       1 UNK         0.0864 
      6 C6        -47.7001  -29.4463    6.8215 C.3       14 UNK        -0.0898 
      7 S7        -49.0137  -28.7778    7.9106 S.3       14 UNK        -0.2598 
      8 C8        -50.3761  -28.2901    6.8061 C.3       14 UNK         0.0286 
      9 C9        -51.6059  -27.8505    7.5892 C.ar      14 UNK        -0.0844 
     10 C10       -51.9797  -26.5020    7.6380 C.ar      14 UNK        -0.0881 
     11 C11       -53.1576  -26.1133    8.2867 C.ar      14 UNK        -0.0643 
     12 C12       -53.9552  -27.0848    8.8985 C.ar      14 UNK        -0.0930 
     13 C13       -53.5868  -28.4320    8.8658 C.ar      14 UNK        -0.0827 
     14 C14       -52.4094  -28.8084    8.2144 C.ar      14 UNK        -0.1249 
     15 C15       -54.4951  -29.4834    9.4817 C.3       14 UNK         0.0141 
     16 S16       -54.3539  -29.5235   11.2927 S.3       14 UNK        -0.2313 
     17 C17       -55.6318  -30.7666   11.6776 C.3       14 UNK        -0.0915 
     18 CA        -56.9898  -30.1215   12.0571 C.3       13 UNK         0.0968 
     19 C         -58.1010  -31.2023   12.1550 C.2       13 UNK         0.5732 
     20 N         -58.7848  -31.4908   11.0562 N.am      13 UNK        -0.7310 
     21 O         -58.3186  -31.8081   13.2033 O.2       13 UNK        -0.5035 
     22 N         -56.8730  -29.3302   13.2882 N.am      13 UNK        -0.4233 
     23 C         -57.8009  -28.4900   13.7638 C.2       13 UNK         0.4989 
     24 O         -58.8415  -28.2104   13.1667 O.2       13 UNK        -0.4996 
     25 CA        -57.5384  -27.8566   15.1445 C.3       12 UNK         0.0216 
     26 CB        -58.4687  -28.4749   16.2022 C.3       12 UNK        -0.1964 
     27 N         -56.1482  -27.9967   15.5924 N.am      12 UNK        -0.4276 
     28 C         -55.1350  -27.2363   15.1600 C.2       12 UNK         0.5020 
     29 O         -55.2670  -26.3010   14.3680 O.2       12 UNK        -0.5489 
     30 CA        -53.7365  -27.6346   15.6571 C.3       11 UNK         0.0294 
     31 CB        -53.0768  -28.6137   14.6729 C.3       11 UNK        -0.2019 
     32 N         -52.8589  -26.4790   15.8314 N.am      11 UNK        -0.4493 
     33 C         -52.9673  -25.5778   16.8179 C.2       11 UNK         0.4932 
     34 O         -53.8580  -25.6021   17.6698 O.2       11 UNK        -0.5029 
     35 CA        -51.8672  -24.4965   16.8802 C.3       10 UNK         0.0280 
     36 CB        -51.8071  -23.7665   18.2387 C.3       10 UNK        -0.1976 
     37 N         -50.5485  -25.0219   16.5051 N.am      10 UNK        -0.4242 
     38 C         -49.8682  -26.0210   17.0921 C.2       10 UNK         0.5072 
     39 O         -50.2096  -26.5629   18.1442 O.2       10 UNK        -0.5224 
     40 CA        -48.6065  -26.5312   16.3738 C.3       9 UNK         0.0343 
     41 CB        -48.8185  -27.9694   15.8669 C.3       9 UNK        -0.2003 
     42 N         -48.2345  -25.6828   15.2374 N.am      9 UNK        -0.4272 
     43 C         -47.1803  -24.8567   15.2210 C.2       9 UNK         0.4988 
     44 O         -46.3816  -24.7373   16.1509 O.2       9 UNK        -0.5108 
     45 CA        -46.9795  -24.0149   13.9521 C.3       8 UNK         0.0248 
     46 CB        -46.2585  -24.8330   12.8667 C.3       8 UNK        -0.2001 
     47 N         -48.2248  -23.4697   13.4069 N.am      8 UNK        -0.4140 
     48 C         -48.9696  -22.5170   13.9863 C.2       8 UNK         0.5028 
     49 O         -48.7355  -22.0476   15.0997 O.2       8 UNK        -0.5428 
     50 CA        -50.1756  -21.9939   13.1935 C.3       7 UNK         0.0264 
     51 CB        -49.7153  -21.0343   12.0832 C.3       7 UNK        -0.1988 
     52 N         -50.9340  -23.0911   12.5938 N.am      7 UNK        -0.4454 
     53 C         -52.1879  -23.4310   12.9244 C.2       7 UNK         0.5027 
     54 O         -52.8581  -22.8266   13.7625 O.2       7 UNK        -0.5083 
     55 CA        -52.8162  -24.6520   12.2114 C.3       6 UNK         0.0844 
     56 C56       -53.7611  -24.2064   11.0674 C.3       14 UNK        -0.0967 
     57 S57       -52.8713  -23.6431    9.5686 S.3       14 UNK        -0.2604 
     58 C58       -53.6142  -24.6596    8.2536 C.3       14 UNK         0.0134 
     59 N         -51.8444  -25.6414   11.7437 N.am      6 UNK        -0.4116 
     60 C         -50.9419  -26.2825   12.4925 C.2       5 UNK         0.5034 
     61 O         -50.8532  -26.1736   13.7159 O.2       5 UNK        -0.5045 
     62 CA        -49.9147  -27.1360   11.7355 C.3       5 UNK         0.0224 
     63 CB        -50.4288  -28.5754   11.5861 C.3       5 UNK        -0.1978 
     64 N         -49.5382  -26.6132   10.4146 N.am      5 UNK        -0.4737 
     65 C         -49.0675  -25.3852   10.1548 C.2       4 UNK         0.5027 
     66 O         -49.0059  -24.4801   10.9874 O.2       4 UNK        -0.5211 
     67 CA        -48.5639  -25.1211    8.7286 C.3       4 UNK         0.0297 
     68 CB        -49.1670  -23.8243    8.1639 C.3       4 UNK        -0.1993 
     69 N         -47.1035  -25.0360    8.6474 N.am      4 UNK        -0.4486 
     70 C         -46.2139  -25.9287    9.1046 C.2       3 UNK         0.4961 
     71 O         -46.4971  -26.9546    9.7234 O.2       3 UNK        -0.5105 
     72 CA        -44.7541  -25.6669    8.7077 C.3       3 UNK         0.0299 
     73 CB        -43.7513  -26.3966    9.6207 C.3       3 UNK        -0.1972 
     74 N         -44.5859  -26.1329    7.3336 N.am      3 UNK        -0.4305 
     75 C         -44.8317  -25.3943    6.2435 C.2       2 UNK         0.5006 
     76 O         -45.0414  -24.1807    6.2675 O.2       2 UNK        -0.5106 
     77 CA        -44.9156  -26.1553    4.9101 C.3       2 UNK         0.0296 
     78 CB        -43.5127  -26.4392    4.3489 C.3       2 UNK        -0.2002 
     79 N         -45.6692  -27.4100    5.0216 N.am      2 UNK        -0.4032 
     80 C         -46.9809  -27.4986    5.3040 C.2       1 UNK         0.5000 
     81 O         -47.7025  -26.5174    5.4865 O.2       1 UNK        -0.5238 
     82 H82       -45.5712  -31.6084    3.1707 H         1 UNK         0.0889 
     83 H83       -45.3285  -30.4898    1.8275 H         1 UNK         0.0889 
     84 H84       -46.7295  -31.5642    1.8405 H         1 UNK         0.0889 
     85 H85       -46.3484  -30.5854    5.0010 H         1 UNK         0.3028 
     86 H86       -48.6005  -28.8448    4.9399 H         1 UNK         0.0864 
     87 H87       -47.8772  -30.5228    6.7959 H         1 UNK         0.0720 
     88 H88       -46.7456  -29.3279    7.3383 H         1 UNK         0.0720 
     89 H89       -50.6430  -29.1322    6.1657 H         1 UNK         0.0814 
     90 H90       -50.0508  -27.4840    6.1486 H         1 UNK         0.0814 
     91 H91       -51.3758  -25.7578    7.1375 H         1 UNK         0.1469 
     92 H92       -54.8812  -26.8012    9.3790 H         1 UNK         0.1381 
     93 H93       -52.1276  -29.8518    8.1707 H         1 UNK         0.1206 
     94 H94       -55.5295  -29.2758    9.2035 H         1 UNK         0.0813 
     95 H95       -54.2605  -30.4709    9.0810 H         1 UNK         0.0813 
     96 H96       -55.2648  -31.3922   12.4934 H         1 UNK         0.0638 
     97 H97       -55.7438  -31.4318   10.8191 H         1 UNK         0.0638 
     98 H98       -57.2727  -29.4319   11.2592 H         1 UNK         0.0568 
     99 H99       -59.4993  -32.2006   11.0977 H         1 UNK         0.3450 
    100 H100      -58.6083  -31.0091   10.1884 H         1 UNK         0.3450 
    101 H101      -56.0536  -29.5058   13.8464 H         1 UNK         0.2987 
    102 H102      -57.7745  -26.7932   15.0642 H         1 UNK         0.0766 
    103 H103      -58.3387  -27.9977   17.1738 H         1 UNK         0.0798 
    104 H104      -58.2895  -29.5440   16.3241 H         1 UNK         0.0798 
    105 H105      -59.5157  -28.3513   15.9214 H         1 UNK         0.0798 
    106 H106      -55.9570  -28.7411   16.2488 H         1 UNK         0.3198 
    107 H107      -53.8325  -28.1292   16.6264 H         1 UNK         0.0843 
    108 H108      -53.6638  -29.5268   14.5696 H         1 UNK         0.0831 
    109 H109      -52.0816  -28.9064   15.0075 H         1 UNK         0.0831 
    110 H110      -52.9809  -28.1759   13.6788 H         1 UNK         0.0831 
    111 H111      -52.1173  -26.3638   15.1460 H         1 UNK         0.3133 
    112 H112      -52.1254  -23.7553   16.1245 H         1 UNK         0.0566 
    113 H113      -51.0264  -23.0060   18.2453 H         1 UNK         0.0814 
    114 H114      -52.7506  -23.2631   18.4527 H         1 UNK         0.0814 
    115 H115      -51.6131  -24.4549   19.0617 H         1 UNK         0.0814 
    116 H116      -50.1741  -24.6646   15.6388 H         1 UNK         0.3091 
    117 H117      -47.8056  -26.5522   17.1155 H         1 UNK         0.0702 
    118 H118      -47.9207  -28.3547   15.3836 H         1 UNK         0.0785 
    119 H119      -49.6378  -28.0336   15.1509 H         1 UNK         0.0785 
    120 H120      -49.0556  -28.6432   16.6913 H         1 UNK         0.0785 
    121 H121      -48.8481  -25.7201   14.4332 H         1 UNK         0.2998 
    122 H122      -46.3394  -23.1704   14.2166 H         1 UNK         0.0697 
    123 H123      -45.3082  -25.2213   13.2353 H         1 UNK         0.0825 
    124 H124      -46.0405  -24.2229   11.9899 H         1 UNK         0.0825 
    125 H125      -46.8530  -25.6859   12.5368 H         1 UNK         0.0825 
    126 H126      -48.4896  -23.8002   12.4781 H         1 UNK         0.3029 
    127 H127      -50.8012  -21.4287   13.8880 H         1 UNK         0.0897 
    128 H128      -50.5678  -20.6016   11.5596 H         1 UNK         0.0792 
    129 H129      -49.1341  -20.2083   12.4955 H         1 UNK         0.0792 
    130 H130      -49.0915  -21.5379   11.3432 H         1 UNK         0.0792 
    131 H131      -50.4442  -23.6476   11.8977 H         1 UNK         0.3086 
    132 H132      -53.4235  -25.1558   12.9636 H         1 UNK         0.0583 
    133 H133      -54.4273  -23.4080   11.4009 H         1 UNK         0.1020 
    134 H134      -54.4228  -25.0333   10.8131 H         1 UNK         0.1020 
    135 H135      -54.7017  -24.5974    8.3193 H         1 UNK         0.0694 
    136 H136      -53.3493  -24.2217    7.2901 H         1 UNK         0.0694 
    137 H137      -51.8149  -25.7834   10.7438 H         1 UNK         0.2989 
    138 H138      -49.0061  -27.1592   12.3401 H         1 UNK         0.1055 
    139 H139      -50.6860  -29.0038   12.5559 H         1 UNK         0.0806 
    140 H140      -49.6748  -29.2223   11.1372 H         1 UNK         0.0806 
    141 H141      -51.3222  -28.6206   10.9623 H         1 UNK         0.0806 
    142 H142      -49.5159  -27.2919    9.6626 H         1 UNK         0.3061 
    143 H143      -48.8788  -25.9400    8.0830 H         1 UNK         0.0734 
    144 H144      -50.2554  -23.8473    8.2064 H         1 UNK         0.0832 
    145 H145      -48.8402  -22.9477    8.7250 H         1 UNK         0.0832 
    146 H146      -48.8891  -23.6799    7.1196 H         1 UNK         0.0832 
    147 H147      -46.7397  -24.2590    8.1128 H         1 UNK         0.3156 
    148 H148      -44.5563  -24.5949    8.7772 H         1 UNK         0.0589 
    149 H149      -43.8753  -27.4797    9.5829 H         1 UNK         0.0808 
    150 H150      -42.7231  -26.1685    9.3394 H         1 UNK         0.0808 
    151 H151      -43.8795  -26.0901   10.6597 H         1 UNK         0.0808 
    152 H152      -44.4568  -27.1270    7.2144 H         1 UNK         0.3098 
    153 H153      -45.4423  -25.5153    4.1988 H         1 UNK         0.0720 
    154 H154      -43.5664  -26.8985    3.3616 H         1 UNK         0.0791 
    155 H155      -42.9403  -27.1033    4.9978 H         1 UNK         0.0791 
    156 H156      -42.9418  -25.5155    4.2433 H         1 UNK         0.0791 
    157 H157      -45.1599  -28.2658    4.8567 H         1 UNK         0.3028 
@<TRIPOS>BOND
     1    1    2 1    
     2    1   82 1    
     3    1   83 1    
     4    1   84 1    
     5    2    3 2    
     6    2    4 am   BACKBONE|DICT|INTERRES
     7    4    5 1    
     8    4   85 1    
     9    5    6 1    
    10    5   80 1    
    11    5   86 1    
    12    6    7 1    
    13    6   87 1    
    14    6   88 1    
    15    7    8 1    
    16    8    9 1    
    17    8   89 1    
    18    8   90 1    
    19    9   10 ar   
    20    9   14 ar   
    21   10   11 ar   
    22   10   91 1    
    23   11   12 ar   
    24   11   58 1    
    25   12   13 ar   
    26   12   92 1    
    27   13   14 ar   
    28   13   15 1    
    29   14   93 1    
    30   15   16 1    
    31   15   94 1    
    32   15   95 1    
    33   16   17 1    
    34   17   18 1    
    35   17   96 1    
    36   17   97 1    
    37   18   19 1    
    38   18   22 1    
    39   18   98 1    
    40   19   20 am   BACKBONE|DICT|INTERRES
    41   19   21 2    
    42   20   99 1    
    43   20  100 1    
    44   22   23 am   BACKBONE|DICT|INTERRES
    45   22  101 1    
    46   23   24 2    
    47   23   25 1    
    48   25   26 1    
    49   25   27 1    
    50   25  102 1    
    51   26  103 1    
    52   26  104 1    
    53   26  105 1    
    54   27   28 am   BACKBONE|DICT|INTERRES
    55   27  106 1    
    56   28   29 2    
    57   28   30 1    
    58   30   31 1    
    59   30   32 1    
    60   30  107 1    
    61   31  108 1    
    62   31  109 1    
    63   31  110 1    
    64   32   33 am   BACKBONE|DICT|INTERRES
    65   32  111 1    
    66   33   34 2    
    67   33   35 1    
    68   35   36 1    
    69   35   37 1    
    70   35  112 1    
    71   36  113 1    
    72   36  114 1    
    73   36  115 1    
    74   37   38 am   BACKBONE|DICT|INTERRES
    75   37  116 1    
    76   38   39 2    
    77   38   40 1    
    78   40   41 1    
    79   40   42 1    
    80   40  117 1    
    81   41  118 1    
    82   41  119 1    
    83   41  120 1    
    84   42   43 am   BACKBONE|DICT|INTERRES
    85   42  121 1    
    86   43   44 2    
    87   43   45 1    
    88   45   46 1    
    89   45   47 1    
    90   45  122 1    
    91   46  123 1    
    92   46  124 1    
    93   46  125 1    
    94   47   48 am   BACKBONE|DICT|INTERRES
    95   47  126 1    
    96   48   49 2    
    97   48   50 1    
    98   50   51 1    
    99   50   52 1    
   100   50  127 1    
   101   51  128 1    
   102   51  129 1    
   103   51  130 1    
   104   52   53 am   BACKBONE|DICT|INTERRES
   105   52  131 1    
   106   53   54 2    
   107   53   55 1    
   108   55   56 1    
   109   55   59 1    
   110   55  132 1    
   111   56   57 1    
   112   56  133 1    
   113   56  134 1    
   114   57   58 1    
   115   58  135 1    
   116   58  136 1    
   117   59   60 am   BACKBONE|DICT|INTERRES
   118   59  137 1    
   119   60   61 2    
   120   60   62 1    
   121   62   63 1    
   122   62   64 1    
   123   62  138 1    
   124   63  139 1    
   125   63  140 1    
   126   63  141 1    
   127   64   65 am   BACKBONE|DICT|INTERRES
   128   64  142 1    
   129   65   66 2    
   130   65   67 1    
   131   67   68 1    
   132   67   69 1    
   133   67  143 1    
   134   68  144 1    
   135   68  145 1    
   136   68  146 1    
   137   69   70 am   BACKBONE|DICT|INTERRES
   138   69  147 1    
   139   70   71 2    
   140   70   72 1    
   141   72   73 1    
   142   72   74 1    
   143   72  148 1    
   144   73  149 1    
   145   73  150 1    
   146   73  151 1    
   147   74   75 am   BACKBONE|DICT|INTERRES
   148   74  152 1    
   149   75   76 2    
   150   75   77 1    
   151   77   78 1    
   152   77   79 1    
   153   77  153 1    
   154   78  154 1    
   155   78  155 1    
   156   78  156 1    
   157   79   80 am   BACKBONE|DICT|INTERRES
   158   79  157 1    
   159   80   81 2    
@<TRIPOS>SUBSTRUCTURE
     1 UNK         1 GROUP             0       ****    0 ROOT    
