@<TRIPOS>MOLECULE
3R207
157   159    1
SMALL
USER_CHARGES


@<TRIPOS>ATOM
      1 CA        -50.2552  -30.1240    9.1391 C.3       0 UNK        -0.1975 
      2 C         -49.5730  -29.3037    8.0565 C.2       0 UNK         0.4852 
      3 O         -48.7007  -28.4975    8.3688 O.2       0 UNK        -0.5216 
      4 N         -49.9576  -29.5200    6.7897 N.am      1 UNK        -0.4461 
      5 CA        -49.5256  -28.7960    5.5781 C.3       1 UNK         0.0864 
      6 C6        -49.8506  -27.2748    5.5964 C.3       14 UNK        -0.0898 
      7 S7        -51.5622  -26.8685    6.0871 S.3       14 UNK        -0.2598 
      8 C8        -51.2100  -25.8929    7.5797 C.3       14 UNK         0.0286 
      9 C9        -52.4745  -25.4025    8.2624 C.ar      14 UNK        -0.0844 
     10 C10       -52.9886  -24.1378    7.9692 C.ar      14 UNK        -0.0881 
     11 C11       -54.0744  -23.6290    8.6895 C.ar      14 UNK        -0.0643 
     12 C12       -54.6802  -24.4239    9.6693 C.ar      14 UNK        -0.0930 
     13 C13       -54.1955  -25.7069    9.9506 C.ar      14 UNK        -0.0827 
     14 C14       -53.0870  -26.1843    9.2436 C.ar      14 UNK        -0.1249 
     15 C15       -54.8319  -26.5312   11.0670 C.3       14 UNK         0.0141 
     16 S16       -55.2727  -28.2295   10.5764 S.3       14 UNK        -0.2313 
     17 C17       -53.7489  -29.1609   10.9673 C.3       14 UNK        -0.0915 
     18 CA        -53.9916  -30.2766   12.0193 C.3       13 UNK         0.0968 
     19 C         -52.8291  -31.3128   12.0596 C.2       13 UNK         0.5732 
     20 N         -52.3141  -31.7143   13.2160 N.am      13 UNK        -0.7310 
     21 O         -52.3957  -31.7894   11.0140 O.2       13 UNK        -0.5035 
     22 N         -54.3187  -29.7184   13.3421 N.am      13 UNK        -0.4233 
     23 C         -55.2582  -30.2150   14.1577 C.2       13 UNK         0.4989 
     24 O         -56.0200  -31.1321   13.8437 O.2       13 UNK        -0.4996 
     25 CA        -55.3541  -29.5928   15.5669 C.3       12 UNK         0.0216 
     26 CB        -56.2031  -30.4388   16.5395 C.3       12 UNK        -0.1964 
     27 N         -54.0496  -29.2878   16.1686 N.am      12 UNK        -0.4276 
     28 C         -53.0210  -30.1294   16.3676 C.2       12 UNK         0.5020 
     29 O         -53.0489  -31.3194   16.0521 O.2       12 UNK        -0.5489 
     30 CA        -51.7272  -29.5563   16.9800 C.3       11 UNK         0.0294 
     31 CB        -50.5017  -29.9398   16.1302 C.3       11 UNK        -0.2019 
     32 N         -51.7756  -28.0984   17.0927 N.am      11 UNK        -0.4493 
     33 C         -52.0787  -27.4097   18.2016 C.2       11 UNK         0.4932 
     34 O         -52.2594  -27.9272   19.3035 O.2       11 UNK        -0.5029 
     35 CA        -52.2432  -25.8844   18.0487 C.3       10 UNK         0.0280 
     36 CB        -50.9564  -25.1604   18.4741 C.3       10 UNK        -0.1976 
     37 N         -52.6085  -25.4809   16.6848 N.am      10 UNK        -0.4242 
     38 C         -53.7816  -25.7816   16.1015 C.2       10 UNK         0.5072 
     39 O         -54.6979  -26.3598   16.6852 O.2       10 UNK        -0.5224 
     40 CA        -53.9414  -25.4780   14.6011 C.3       9 UNK         0.0343 
     41 CB        -54.6638  -24.1402   14.3893 C.3       9 UNK        -0.2003 
     42 N         -52.6657  -25.4783   13.8792 N.am      9 UNK        -0.4272 
     43 C         -51.8844  -26.5612   13.7288 C.2       9 UNK         0.4988 
     44 O         -52.2494  -27.6926   14.0522 O.2       9 UNK        -0.5108 
     45 CA        -50.4542  -26.3712   13.1809 C.3       8 UNK         0.0248 
     46 CB        -50.3145  -27.0170   11.7945 C.3       8 UNK        -0.2001 
     47 N         -50.0052  -24.9766   13.1131 N.am      8 UNK        -0.4140 
     48 C         -49.8715  -24.1504   14.1652 C.2       8 UNK         0.5028 
     49 O         -50.0474  -24.5044   15.3314 O.2       8 UNK        -0.5428 
     50 CA        -49.5893  -22.6634   13.8676 C.3       7 UNK         0.0264 
     51 CB        -48.0841  -22.3722   13.9616 C.3       7 UNK        -0.1988 
     52 N         -50.0892  -22.2388   12.5554 N.am      7 UNK        -0.4454 
     53 C         -51.3745  -22.3036   12.1717 C.2       7 UNK         0.5027 
     54 O         -52.2917  -22.5477   12.9550 O.2       7 UNK        -0.5083 
     55 CA        -51.6959  -22.1812   10.6665 C.3       6 UNK         0.0844 
     56 C56       -52.7674  -21.0962   10.3833 C.3       14 UNK        -0.0967 
     57 S57       -53.2191  -20.9679    8.6150 S.3       14 UNK        -0.2604 
     58 C58       -54.5570  -22.2032    8.4460 C.3       14 UNK         0.0134 
     59 N         -50.5163  -22.0791    9.7946 N.am      6 UNK        -0.4116 
     60 C         -49.6382  -23.0696    9.5834 C.2       5 UNK         0.5034 
     61 O         -49.6911  -24.1490   10.1793 O.2       5 UNK        -0.5045 
     62 CA        -48.5340  -22.8183    8.5351 C.3       5 UNK         0.0224 
     63 CB        -48.0452  -21.3525    8.4907 C.3       5 UNK        -0.1978 
     64 N         -47.4095  -23.7472    8.6968 N.am      5 UNK        -0.4737 
     65 C         -46.5756  -23.8550    9.7380 C.2       4 UNK         0.5027 
     66 O         -46.5405  -23.0557   10.6741 O.2       4 UNK        -0.5211 
     67 CA        -45.6270  -25.0703    9.7661 C.3       4 UNK         0.0297 
     68 CB        -46.3303  -26.2715   10.4291 C.3       4 UNK        -0.1993 
     69 N         -45.0158  -25.4645    8.4833 N.am      4 UNK        -0.4486 
     70 C         -45.6020  -25.9282    7.3690 C.2       3 UNK         0.4961 
     71 O         -46.8208  -25.9764    7.2024 O.2       3 UNK        -0.5105 
     72 CA        -44.6912  -26.4077    6.2209 C.3       3 UNK         0.0299 
     73 CB        -43.1763  -26.3800    6.5327 C.3       3 UNK        -0.1972 
     74 N         -45.1246  -27.7290    5.7510 N.am      3 UNK        -0.4305 
     75 C         -45.1164  -28.8791    6.4420 C.2       2 UNK         0.5006 
     76 O         -44.5970  -29.0203    7.5509 O.2       2 UNK        -0.5106 
     77 CA        -45.8640  -30.0586    5.7903 C.3       2 UNK         0.0296 
     78 CB        -45.4850  -31.4164    6.4109 C.3       2 UNK        -0.2002 
     79 N         -47.3089  -29.8646    5.9205 N.am      2 UNK        -0.4032 
     80 C         -48.0455  -29.0245    5.1803 C.2       1 UNK         0.5000 
     81 O         -47.5874  -28.4307    4.2002 O.2       1 UNK        -0.5238 
     82 H82       -50.9478  -30.8564    8.7244 H         1 UNK         0.0889 
     83 H83       -50.8162  -29.4687    9.8037 H         1 UNK         0.0889 
     84 H84       -49.5146  -30.6577    9.7341 H         1 UNK         0.0889 
     85 H85       -50.6684  -30.2185    6.6201 H         1 UNK         0.3028 
     86 H86       -50.1068  -29.2351    4.7660 H         1 UNK         0.0864 
     87 H87       -49.1536  -26.7546    6.2550 H         1 UNK         0.0720 
     88 H88       -49.6925  -26.8445    4.6058 H         1 UNK         0.0720 
     89 H89       -50.5816  -25.0436    7.3094 H         1 UNK         0.0814 
     90 H90       -50.6225  -26.4882    8.2804 H         1 UNK         0.0814 
     91 H91       -52.5085  -23.5231    7.2203 H         1 UNK         0.1469 
     92 H92       -55.5155  -24.0313   10.2329 H         1 UNK         0.1381 
     93 H93       -52.6795  -27.1589    9.4646 H         1 UNK         0.1206 
     94 H94       -55.7376  -26.0428   11.4295 H         1 UNK         0.0813 
     95 H95       -54.1501  -26.5678   11.9111 H         1 UNK         0.0813 
     96 H96       -53.3957  -29.5820   10.0245 H         1 UNK         0.0638 
     97 H97       -52.9648  -28.4875   11.3132 H         1 UNK         0.0638 
     98 H98       -54.8451  -30.8543   11.6605 H         1 UNK         0.0568 
     99 H99       -52.6922  -31.4073   14.1054 H         1 UNK         0.3450 
    100 H100      -51.5712  -32.3937   13.2022 H         1 UNK         0.3450 
    101 H101      -53.6891  -28.9986   13.6844 H         1 UNK         0.2987 
    102 H102      -55.8604  -28.6354   15.4360 H         1 UNK         0.0766 
    103 H103      -55.7759  -31.4310   16.6890 H         1 UNK         0.0798 
    104 H104      -56.2845  -29.9584   17.5146 H         1 UNK         0.0798 
    105 H105      -57.2174  -30.5734   16.1617 H         1 UNK         0.0798 
    106 H106      -53.9362  -28.3248   16.4628 H         1 UNK         0.3198 
    107 H107      -51.6116  -30.0054   17.9686 H         1 UNK         0.0843 
    108 H108      -50.3822  -31.0229   16.0804 H         1 UNK         0.0831 
    109 H109      -49.5824  -29.5350   16.5535 H         1 UNK         0.0831 
    110 H110      -50.5887  -29.5763   15.1055 H         1 UNK         0.0831 
    111 H111      -51.6706  -27.5928   16.2225 H         1 UNK         0.3133 
    112 H112      -53.0470  -25.5697   18.7177 H         1 UNK         0.0566 
    113 H113      -51.0635  -24.0783   18.3966 H         1 UNK         0.0814 
    114 H114      -50.7060  -25.3883   19.5111 H         1 UNK         0.0814 
    115 H115      -50.1043  -25.4577   17.8615 H         1 UNK         0.0814 
    116 H116      -51.8810  -25.0291   16.1378 H         1 UNK         0.3091 
    117 H117      -54.5664  -26.2686   14.1817 H         1 UNK         0.0702 
    118 H118      -54.8147  -23.9336   13.3294 H         1 UNK         0.0785 
    119 H119      -54.1039  -23.3076   14.8170 H         1 UNK         0.0785 
    120 H120      -55.6468  -24.1488   14.8620 H         1 UNK         0.0785 
    121 H121      -52.3240  -24.5733   13.5750 H         1 UNK         0.2998 
    122 H122      -49.7849  -26.8948   13.8662 H         1 UNK         0.0697 
    123 H123      -50.9468  -26.5225   11.0578 H         1 UNK         0.0825 
    124 H124      -50.5954  -28.0702   11.8229 H         1 UNK         0.0825 
    125 H125      -49.2873  -26.9681   11.4326 H         1 UNK         0.0825 
    126 H126      -49.8492  -24.6055   12.1801 H         1 UNK         0.3029 
    127 H127      -50.1052  -22.0733   14.6282 H         1 UNK         0.0897 
    128 H128      -47.8726  -21.3135   13.8107 H         1 UNK         0.0792 
    129 H129      -47.6963  -22.6427   14.9448 H         1 UNK         0.0792 
    130 H130      -47.5168  -22.9377   13.2213 H         1 UNK         0.0792 
    131 H131      -49.3930  -22.0513   11.8481 H         1 UNK         0.3086 
    132 H132      -52.1517  -23.1430   10.4357 H         1 UNK         0.0583 
    133 H133      -53.6734  -21.2918   10.9607 H         1 UNK         0.1020 
    134 H134      -52.4083  -20.1188   10.7104 H         1 UNK         0.1020 
    135 H135      -55.3688  -21.9419    9.1266 H         1 UNK         0.0694 
    136 H136      -54.9677  -22.1403    7.4375 H         1 UNK         0.0694 
    137 H137      -50.4255  -21.2205    9.2717 H         1 UNK         0.2989 
    138 H138      -48.9770  -23.0526    7.5661 H         1 UNK         0.1055 
    139 H139      -47.2015  -21.2407    7.8094 H         1 UNK         0.0806 
    140 H140      -47.7269  -20.9967    9.4713 H         1 UNK         0.0806 
    141 H141      -48.8266  -20.6807    8.1343 H         1 UNK         0.0806 
    142 H142      -47.3676  -24.5155    8.0268 H         1 UNK         0.3061 
    143 H143      -44.7915  -24.7893   10.4094 H         1 UNK         0.0734 
    144 H144      -46.7056  -26.0073   11.4188 H         1 UNK         0.0832 
    145 H145      -47.1844  -26.6140    9.8428 H         1 UNK         0.0832 
    146 H146      -45.6502  -27.1142   10.5514 H         1 UNK         0.0832 
    147 H147      -44.0058  -25.4313    8.4755 H         1 UNK         0.3156 
    148 H148      -44.8659  -25.7209    5.3916 H         1 UNK         0.0589 
    149 H149      -42.9157  -26.9966    7.3936 H         1 UNK         0.0808 
    150 H150      -42.5982  -26.7443    5.6834 H         1 UNK         0.0808 
    151 H151      -42.8332  -25.3645    6.7341 H         1 UNK         0.0808 
    152 H152      -45.6748  -27.7236    4.8988 H         1 UNK         0.3098 
    153 H153      -45.5957  -30.0882    4.7319 H         1 UNK         0.0720 
    154 H154      -45.9819  -32.2392    5.8965 H         1 UNK         0.0791 
    155 H155      -45.7538  -31.4706    7.4668 H         1 UNK         0.0791 
    156 H156      -44.4107  -31.5909    6.3381 H         1 UNK         0.0791 
    157 H157      -47.7450  -30.2622    6.7395 H         1 UNK         0.3028 
@<TRIPOS>BOND
     1    1    2 1    
     2    1   82 1    
     3    1   83 1    
     4    1   84 1    
     5    2    3 2    
     6    2    4 am   BACKBONE|DICT|INTERRES
     7    4    5 1    
     8    4   85 1    
     9    5    6 1    
    10    5   80 1    
    11    5   86 1    
    12    6    7 1    
    13    6   87 1    
    14    6   88 1    
    15    7    8 1    
    16    8    9 1    
    17    8   89 1    
    18    8   90 1    
    19    9   10 ar   
    20    9   14 ar   
    21   10   11 ar   
    22   10   91 1    
    23   11   12 ar   
    24   11   58 1    
    25   12   13 ar   
    26   12   92 1    
    27   13   14 ar   
    28   13   15 1    
    29   14   93 1    
    30   15   16 1    
    31   15   94 1    
    32   15   95 1    
    33   16   17 1    
    34   17   18 1    
    35   17   96 1    
    36   17   97 1    
    37   18   19 1    
    38   18   22 1    
    39   18   98 1    
    40   19   20 am   BACKBONE|DICT|INTERRES
    41   19   21 2    
    42   20   99 1    
    43   20  100 1    
    44   22   23 am   BACKBONE|DICT|INTERRES
    45   22  101 1    
    46   23   24 2    
    47   23   25 1    
    48   25   26 1    
    49   25   27 1    
    50   25  102 1    
    51   26  103 1    
    52   26  104 1    
    53   26  105 1    
    54   27   28 am   BACKBONE|DICT|INTERRES
    55   27  106 1    
    56   28   29 2    
    57   28   30 1    
    58   30   31 1    
    59   30   32 1    
    60   30  107 1    
    61   31  108 1    
    62   31  109 1    
    63   31  110 1    
    64   32   33 am   BACKBONE|DICT|INTERRES
    65   32  111 1    
    66   33   34 2    
    67   33   35 1    
    68   35   36 1    
    69   35   37 1    
    70   35  112 1    
    71   36  113 1    
    72   36  114 1    
    73   36  115 1    
    74   37   38 am   BACKBONE|DICT|INTERRES
    75   37  116 1    
    76   38   39 2    
    77   38   40 1    
    78   40   41 1    
    79   40   42 1    
    80   40  117 1    
    81   41  118 1    
    82   41  119 1    
    83   41  120 1    
    84   42   43 am   BACKBONE|DICT|INTERRES
    85   42  121 1    
    86   43   44 2    
    87   43   45 1    
    88   45   46 1    
    89   45   47 1    
    90   45  122 1    
    91   46  123 1    
    92   46  124 1    
    93   46  125 1    
    94   47   48 am   BACKBONE|DICT|INTERRES
    95   47  126 1    
    96   48   49 2    
    97   48   50 1    
    98   50   51 1    
    99   50   52 1    
   100   50  127 1    
   101   51  128 1    
   102   51  129 1    
   103   51  130 1    
   104   52   53 am   BACKBONE|DICT|INTERRES
   105   52  131 1    
   106   53   54 2    
   107   53   55 1    
   108   55   56 1    
   109   55   59 1    
   110   55  132 1    
   111   56   57 1    
   112   56  133 1    
   113   56  134 1    
   114   57   58 1    
   115   58  135 1    
   116   58  136 1    
   117   59   60 am   BACKBONE|DICT|INTERRES
   118   59  137 1    
   119   60   61 2    
   120   60   62 1    
   121   62   63 1    
   122   62   64 1    
   123   62  138 1    
   124   63  139 1    
   125   63  140 1    
   126   63  141 1    
   127   64   65 am   BACKBONE|DICT|INTERRES
   128   64  142 1    
   129   65   66 2    
   130   65   67 1    
   131   67   68 1    
   132   67   69 1    
   133   67  143 1    
   134   68  144 1    
   135   68  145 1    
   136   68  146 1    
   137   69   70 am   BACKBONE|DICT|INTERRES
   138   69  147 1    
   139   70   71 2    
   140   70   72 1    
   141   72   73 1    
   142   72   74 1    
   143   72  148 1    
   144   73  149 1    
   145   73  150 1    
   146   73  151 1    
   147   74   75 am   BACKBONE|DICT|INTERRES
   148   74  152 1    
   149   75   76 2    
   150   75   77 1    
   151   77   78 1    
   152   77   79 1    
   153   77  153 1    
   154   78  154 1    
   155   78  155 1    
   156   78  156 1    
   157   79   80 am   BACKBONE|DICT|INTERRES
   158   79  157 1    
   159   80   81 2    
@<TRIPOS>SUBSTRUCTURE
     1 UNK         1 GROUP             0       ****    0 ROOT    
