@<TRIPOS>MOLECULE
3R207
157   159    1
SMALL
USER_CHARGES


@<TRIPOS>ATOM
      1 CA        -51.8675  -30.8131    9.8829 C.3       0 UNK        -0.1975 
      2 C         -50.6757  -31.0775    8.9796 C.2       0 UNK         0.4852 
      3 O         -49.7817  -31.8366    9.3542 O.2       0 UNK        -0.5216 
      4 N         -50.6450  -30.4458    7.7967 N.am      1 UNK        -0.4461 
      5 CA        -49.5512  -30.5761    6.8228 C.3       1 UNK         0.0864 
      6 C6        -50.0362  -30.3491    5.3652 C.3       14 UNK        -0.0898 
      7 S7        -50.3365  -28.6120    4.8799 S.3       14 UNK        -0.2598 
      8 C8        -52.1547  -28.5316    4.8069 C.3       14 UNK         0.0286 
      9 C9        -52.7683  -28.3796    6.1899 C.ar      14 UNK        -0.0844 
     10 C10       -52.4290  -27.2776    6.9795 C.ar      14 UNK        -0.0881 
     11 C11       -52.9742  -27.1229    8.2541 C.ar      14 UNK        -0.0643 
     12 C12       -53.8939  -28.0598    8.7283 C.ar      14 UNK        -0.0930 
     13 C13       -54.2560  -29.1568    7.9418 C.ar      14 UNK        -0.0827 
     14 C14       -53.6841  -29.3190    6.6754 C.ar      14 UNK        -0.1249 
     15 C15       -55.2602  -30.1632    8.4757 C.3       14 UNK         0.0141 
     16 S16       -56.9583  -29.6657    8.0606 S.3       14 UNK        -0.2313 
     17 C17       -57.9061  -30.5711    9.3298 C.3       14 UNK        -0.0915 
     18 CA        -58.6627  -29.6228   10.3078 C.3       13 UNK         0.0968 
     19 C         -59.5943  -30.3982   11.2906 C.2       13 UNK         0.5732 
     20 N         -59.8068  -29.9258   12.5133 N.am      13 UNK        -0.7310 
     21 O         -60.1643  -31.4268   10.9330 O.2       13 UNK        -0.5035 
     22 N         -57.7969  -28.6092   10.9447 N.am      13 UNK        -0.4233 
     23 C         -56.7844  -28.8457   11.7880 C.2       13 UNK         0.4989 
     24 O         -56.4113  -29.9706   12.1327 O.2       13 UNK        -0.4996 
     25 CA        -56.0829  -27.6074   12.3630 C.3       12 UNK         0.0216 
     26 CB        -56.9984  -26.8671   13.3604 C.3       12 UNK        -0.1964 
     27 N         -54.8557  -28.0379   13.0279 N.am      12 UNK        -0.4276 
     28 C         -53.8381  -27.2548   13.3981 C.2       12 UNK         0.5020 
     29 O         -53.7952  -26.0381   13.2000 O.2       12 UNK        -0.5489 
     30 CA        -52.6583  -27.9633   14.0778 C.3       11 UNK         0.0294 
     31 CB        -51.6368  -28.4367   13.0326 C.3       11 UNK        -0.2019 
     32 N         -51.9881  -27.0615   15.0124 N.am      11 UNK        -0.4493 
     33 C         -52.1756  -27.0462   16.3376 C.2       11 UNK         0.4932 
     34 O         -52.9575  -27.7912   16.9315 O.2       11 UNK        -0.5029 
     35 CA        -51.3101  -26.0397   17.1213 C.3       10 UNK         0.0280 
     36 CB        -51.4092  -26.1988   18.6535 C.3       10 UNK        -0.1976 
     37 N         -49.9155  -26.0679   16.6638 N.am      10 UNK        -0.4242 
     38 C         -49.0486  -27.0908   16.7310 C.2       10 UNK         0.5072 
     39 O         -49.2633  -28.1446   17.3315 O.2       10 UNK        -0.5224 
     40 CA        -47.7192  -26.9316   15.9688 C.3       9 UNK         0.0343 
     41 CB        -47.7914  -27.6705   14.6217 C.3       9 UNK        -0.2003 
     42 N         -47.3372  -25.5388   15.7225 N.am      9 UNK        -0.4272 
     43 C         -46.9227  -24.6776   16.6629 C.2       9 UNK         0.4988 
     44 O         -46.7966  -24.9662   17.8532 O.2       9 UNK        -0.5108 
     45 CA        -46.6080  -23.2490   16.1943 C.3       8 UNK         0.0248 
     46 CB        -45.2051  -23.1751   15.5682 C.3       8 UNK        -0.2001 
     47 N         -47.6034  -22.7704   15.2334 N.am      8 UNK        -0.4140 
     48 C         -48.7972  -22.2613   15.5696 C.2       8 UNK         0.5028 
     49 O         -49.1626  -22.0805   16.7314 O.2       8 UNK        -0.5428 
     50 CA        -49.7550  -21.9001   14.4188 C.3       7 UNK         0.0264 
     51 CB        -49.5448  -20.4417   13.9808 C.3       7 UNK        -0.1988 
     52 N         -49.6245  -22.7782   13.2530 N.am      7 UNK        -0.4454 
     53 C         -49.9469  -24.0805   13.2453 C.2       7 UNK         0.5027 
     54 O         -50.4232  -24.6722   14.2134 O.2       7 UNK        -0.5083 
     55 CA        -49.6566  -24.8782   11.9578 C.3       6 UNK         0.0844 
     56 C56       -50.9110  -24.8685   11.0534 C.3       14 UNK        -0.0967 
     57 S57       -50.9420  -26.2577    9.8824 S.3       14 UNK        -0.2604 
     58 C58       -52.5599  -25.9488    9.1194 C.3       14 UNK         0.0134 
     59 N         -48.4368  -24.4321   11.2633 N.am      6 UNK        -0.4116 
     60 C         -47.2172  -24.3791   11.8300 C.2       5 UNK         0.5034 
     61 O         -47.0004  -24.7464   12.9855 O.2       5 UNK        -0.5045 
     62 CA        -46.0451  -23.7809   11.0316 C.3       5 UNK         0.0224 
     63 CB        -44.8560  -24.7528   10.9433 C.3       5 UNK        -0.1978 
     64 N         -46.4162  -23.3322    9.6890 N.am      5 UNK        -0.4737 
     65 C         -46.9335  -22.1261    9.4143 C.2       4 UNK         0.5027 
     66 O         -47.1437  -21.2676   10.2712 O.2       4 UNK        -0.5211 
     67 CA        -47.2994  -21.8270    7.9478 C.3       4 UNK         0.0297 
     68 CB        -46.1680  -21.0439    7.2631 C.3       4 UNK        -0.1993 
     69 N         -47.6055  -23.0236    7.1579 N.am      4 UNK        -0.4486 
     70 C         -48.6270  -23.8555    7.3998 C.2       3 UNK         0.4961 
     71 O         -49.4411  -23.6782    8.3053 O.2       3 UNK        -0.5105 
     72 CA        -48.7474  -25.1126    6.5173 C.3       3 UNK         0.0299 
     73 CB        -47.8748  -25.0811    5.2422 C.3       3 UNK        -0.1972 
     74 N         -48.4865  -26.3373    7.2814 N.am      3 UNK        -0.4305 
     75 C         -47.3876  -26.6359    7.9945 C.2       2 UNK         0.5006 
     76 O         -46.4201  -25.8815    8.1053 O.2       2 UNK        -0.5106 
     77 CA        -47.3461  -28.0046    8.7016 C.3       2 UNK         0.0296 
     78 CB        -47.4567  -27.8537   10.2287 C.3       2 UNK        -0.2002 
     79 N         -48.4004  -28.9101    8.2410 N.am      2 UNK        -0.4032 
     80 C         -48.3024  -29.7364    7.1885 C.2       1 UNK         0.5000 
     81 O         -47.2794  -29.8527    6.5105 O.2       1 UNK        -0.5238 
     82 H82       -52.7507  -31.3244    9.5030 H         1 UNK         0.0889 
     83 H83       -52.0734  -29.7459    9.9450 H         1 UNK         0.0889 
     84 H84       -51.6733  -31.1768   10.8917 H         1 UNK         0.0889 
     85 H85       -51.4077  -29.8362    7.5264 H         1 UNK         0.3028 
     86 H86       -49.2132  -31.6142    6.8629 H         1 UNK         0.0864 
     87 H87       -49.2870  -30.7423    4.6757 H         1 UNK         0.0720 
     88 H88       -50.9318  -30.9430    5.1768 H         1 UNK         0.0720 
     89 H89       -52.5455  -29.4093    4.2898 H         1 UNK         0.0814 
     90 H90       -52.4416  -27.6698    4.2028 H         1 UNK         0.0814 
     91 H91       -51.7264  -26.5453    6.6076 H         1 UNK         0.1469 
     92 H92       -54.3234  -27.9393    9.7131 H         1 UNK         0.1381 
     93 H93       -53.9625  -30.1687    6.0665 H         1 UNK         0.1206 
     94 H94       -55.1494  -30.2463    9.5578 H         1 UNK         0.0813 
     95 H95       -55.0640  -31.1560    8.0683 H         1 UNK         0.0813 
     96 H96       -57.2520  -31.2491    9.8798 H         1 UNK         0.0638 
     97 H97       -58.6142  -31.2089    8.7981 H         1 UNK         0.0638 
     98 H98       -59.3576  -29.0442    9.6984 H         1 UNK         0.0568 
     99 H99       -60.4198  -30.4291   13.1350 H         1 UNK         0.3450 
    100 H100      -59.3616  -29.0769   12.8205 H         1 UNK         0.3450 
    101 H101      -58.0338  -27.6515   10.7301 H         1 UNK         0.2987 
    102 H102      -55.8224  -26.9430   11.5364 H         1 UNK         0.0766 
    103 H103      -56.5153  -25.9755   13.7604 H         1 UNK         0.0798 
    104 H104      -57.2705  -27.5033   14.2036 H         1 UNK         0.0798 
    105 H105      -57.9233  -26.5382   12.8855 H         1 UNK         0.0798 
    106 H106      -54.8097  -29.0408   13.1715 H         1 UNK         0.3198 
    107 H107      -53.0344  -28.8389   14.6120 H         1 UNK         0.0843 
    108 H108      -52.0989  -29.1158   12.3169 H         1 UNK         0.0831 
    109 H109      -50.8087  -28.9702   13.4996 H         1 UNK         0.0831 
    110 H110      -51.2217  -27.6020   12.4702 H         1 UNK         0.0831 
    111 H111      -51.4142  -26.3280   14.6060 H         1 UNK         0.3133 
    112 H112      -51.6903  -25.0485   16.8693 H         1 UNK         0.0566 
    113 H113      -50.7828  -25.4705   19.1684 H         1 UNK         0.0814 
    114 H114      -52.4337  -26.0442   18.9939 H         1 UNK         0.0814 
    115 H115      -51.1072  -27.1936   18.9817 H         1 UNK         0.0814 
    116 H116      -49.6561  -25.2910   16.0672 H         1 UNK         0.3091 
    117 H117      -46.9358  -27.3944   16.5727 H         1 UNK         0.0702 
    118 H118      -46.8484  -27.6035   14.0784 H         1 UNK         0.0785 
    119 H119      -48.5752  -27.2642   13.9827 H         1 UNK         0.0785 
    120 H120      -48.0080  -28.7296   14.7678 H         1 UNK         0.0785 
    121 H121      -47.3421  -25.2314   14.7525 H         1 UNK         0.2998 
    122 H122      -46.6190  -22.5970   17.0707 H         1 UNK         0.0697 
    123 H123      -45.1155  -23.8099   14.6860 H         1 UNK         0.0825 
    124 H124      -44.4452  -23.5004   16.2800 H         1 UNK         0.0825 
    125 H125      -44.9561  -22.1555   15.2737 H         1 UNK         0.0825 
    126 H126      -47.4044  -22.9357   14.2565 H         1 UNK         0.3029 
    127 H127      -50.7739  -21.9995   14.8002 H         1 UNK         0.0897 
    128 H128      -50.2782  -20.1425   13.2317 H         1 UNK         0.0792 
    129 H129      -49.6528  -19.7610   14.8267 H         1 UNK         0.0792 
    130 H130      -48.5508  -20.2840   13.5600 H         1 UNK         0.0792 
    131 H131      -49.2438  -22.3684   12.4114 H         1 UNK         0.3086 
    132 H132      -49.4745  -25.9058   12.2752 H         1 UNK         0.0583 
    133 H133      -51.8223  -24.9481   11.6514 H         1 UNK         0.1020 
    134 H134      -50.9909  -23.9274   10.5061 H         1 UNK         0.1020 
    135 H135      -53.3052  -25.7715    9.8968 H         1 UNK         0.0694 
    136 H136      -52.5095  -25.0388    8.5192 H         1 UNK         0.0694 
    137 H137      -48.5525  -24.1253   10.3046 H         1 UNK         0.2989 
    138 H138      -45.7048  -22.9172   11.6077 H         1 UNK         0.1055 
    139 H139      -44.5621  -25.1104   11.9313 H         1 UNK         0.0806 
    140 H140      -43.9840  -24.2646   10.5081 H         1 UNK         0.0806 
    141 H141      -45.0807  -25.6260   10.3343 H         1 UNK         0.0806 
    142 H142      -46.3186  -24.0138    8.9413 H         1 UNK         0.3061 
    143 H143      -48.1931  -21.1994    7.9581 H         1 UNK         0.0734 
    144 H144      -45.9369  -20.1312    7.8145 H         1 UNK         0.0832 
    145 H145      -45.2495  -21.6293    7.2041 H         1 UNK         0.0832 
    146 H146      -46.4447  -20.7465    6.2514 H         1 UNK         0.0832 
    147 H147      -46.9642  -23.2588    6.4142 H         1 UNK         0.3156 
    148 H148      -49.7896  -25.1601    6.1997 H         1 UNK         0.0589 
    149 H149      -46.8077  -25.0915    5.4668 H         1 UNK         0.0808 
    150 H150      -48.0820  -25.9468    4.6126 H         1 UNK         0.0808 
    151 H151      -48.0838  -24.1953    4.6408 H         1 UNK         0.0808 
    152 H152      -49.2358  -27.0129    7.2824 H         1 UNK         0.3098 
    153 H153      -46.3730  -28.4488    8.4819 H         1 UNK         0.0720 
    154 H154      -46.6451  -27.2464   10.6258 H         1 UNK         0.0791 
    155 H155      -47.4007  -28.8219   10.7266 H         1 UNK         0.0791 
    156 H156      -48.3904  -27.3812   10.5273 H         1 UNK         0.0791 
    157 H157      -49.2719  -28.8925    8.7505 H         1 UNK         0.3028 
@<TRIPOS>BOND
     1    1    2 1    
     2    1   82 1    
     3    1   83 1    
     4    1   84 1    
     5    2    3 2    
     6    2    4 am   BACKBONE|DICT|INTERRES
     7    4    5 1    
     8    4   85 1    
     9    5    6 1    
    10    5   80 1    
    11    5   86 1    
    12    6    7 1    
    13    6   87 1    
    14    6   88 1    
    15    7    8 1    
    16    8    9 1    
    17    8   89 1    
    18    8   90 1    
    19    9   10 ar   
    20    9   14 ar   
    21   10   11 ar   
    22   10   91 1    
    23   11   12 ar   
    24   11   58 1    
    25   12   13 ar   
    26   12   92 1    
    27   13   14 ar   
    28   13   15 1    
    29   14   93 1    
    30   15   16 1    
    31   15   94 1    
    32   15   95 1    
    33   16   17 1    
    34   17   18 1    
    35   17   96 1    
    36   17   97 1    
    37   18   19 1    
    38   18   22 1    
    39   18   98 1    
    40   19   20 am   BACKBONE|DICT|INTERRES
    41   19   21 2    
    42   20   99 1    
    43   20  100 1    
    44   22   23 am   BACKBONE|DICT|INTERRES
    45   22  101 1    
    46   23   24 2    
    47   23   25 1    
    48   25   26 1    
    49   25   27 1    
    50   25  102 1    
    51   26  103 1    
    52   26  104 1    
    53   26  105 1    
    54   27   28 am   BACKBONE|DICT|INTERRES
    55   27  106 1    
    56   28   29 2    
    57   28   30 1    
    58   30   31 1    
    59   30   32 1    
    60   30  107 1    
    61   31  108 1    
    62   31  109 1    
    63   31  110 1    
    64   32   33 am   BACKBONE|DICT|INTERRES
    65   32  111 1    
    66   33   34 2    
    67   33   35 1    
    68   35   36 1    
    69   35   37 1    
    70   35  112 1    
    71   36  113 1    
    72   36  114 1    
    73   36  115 1    
    74   37   38 am   BACKBONE|DICT|INTERRES
    75   37  116 1    
    76   38   39 2    
    77   38   40 1    
    78   40   41 1    
    79   40   42 1    
    80   40  117 1    
    81   41  118 1    
    82   41  119 1    
    83   41  120 1    
    84   42   43 am   BACKBONE|DICT|INTERRES
    85   42  121 1    
    86   43   44 2    
    87   43   45 1    
    88   45   46 1    
    89   45   47 1    
    90   45  122 1    
    91   46  123 1    
    92   46  124 1    
    93   46  125 1    
    94   47   48 am   BACKBONE|DICT|INTERRES
    95   47  126 1    
    96   48   49 2    
    97   48   50 1    
    98   50   51 1    
    99   50   52 1    
   100   50  127 1    
   101   51  128 1    
   102   51  129 1    
   103   51  130 1    
   104   52   53 am   BACKBONE|DICT|INTERRES
   105   52  131 1    
   106   53   54 2    
   107   53   55 1    
   108   55   56 1    
   109   55   59 1    
   110   55  132 1    
   111   56   57 1    
   112   56  133 1    
   113   56  134 1    
   114   57   58 1    
   115   58  135 1    
   116   58  136 1    
   117   59   60 am   BACKBONE|DICT|INTERRES
   118   59  137 1    
   119   60   61 2    
   120   60   62 1    
   121   62   63 1    
   122   62   64 1    
   123   62  138 1    
   124   63  139 1    
   125   63  140 1    
   126   63  141 1    
   127   64   65 am   BACKBONE|DICT|INTERRES
   128   64  142 1    
   129   65   66 2    
   130   65   67 1    
   131   67   68 1    
   132   67   69 1    
   133   67  143 1    
   134   68  144 1    
   135   68  145 1    
   136   68  146 1    
   137   69   70 am   BACKBONE|DICT|INTERRES
   138   69  147 1    
   139   70   71 2    
   140   70   72 1    
   141   72   73 1    
   142   72   74 1    
   143   72  148 1    
   144   73  149 1    
   145   73  150 1    
   146   73  151 1    
   147   74   75 am   BACKBONE|DICT|INTERRES
   148   74  152 1    
   149   75   76 2    
   150   75   77 1    
   151   77   78 1    
   152   77   79 1    
   153   77  153 1    
   154   78  154 1    
   155   78  155 1    
   156   78  156 1    
   157   79   80 am   BACKBONE|DICT|INTERRES
   158   79  157 1    
   159   80   81 2    
@<TRIPOS>SUBSTRUCTURE
     1 UNK         1 GROUP             0       ****    0 ROOT    
