@<TRIPOS>MOLECULE
3R207
157   159    1
SMALL
USER_CHARGES


@<TRIPOS>ATOM
      1 CA        -44.4271  -30.2553    7.5069 C.3       0 UNK        -0.1975 
      2 C         -45.1201  -29.9639    6.1841 C.2       0 UNK         0.4852 
      3 O         -44.4459  -29.7661    5.1729 O.2       0 UNK        -0.5216 
      4 N         -46.4601  -29.9463    6.1839 N.am      1 UNK        -0.4461 
      5 CA        -47.3053  -29.6766    5.0134 C.3       1 UNK         0.0864 
      6 C6        -48.7846  -30.0584    5.2724 C.3       14 UNK        -0.0898 
      7 S7        -49.5055  -29.2518    6.7441 S.3       14 UNK        -0.2598 
      8 C8        -51.2766  -29.4003    6.3751 C.3       14 UNK         0.0286 
      9 C9        -52.1020  -28.6329    7.3934 C.ar      14 UNK        -0.0844 
     10 C10       -52.4260  -27.2931    7.1624 C.ar      14 UNK        -0.0881 
     11 C11       -53.1882  -26.5779    8.0904 C.ar      14 UNK        -0.0643 
     12 C12       -53.6293  -27.2142    9.2540 C.ar      14 UNK        -0.0930 
     13 C13       -53.2958  -28.5479    9.5028 C.ar      14 UNK        -0.0827 
     14 C14       -52.5363  -29.2560    8.5671 C.ar      14 UNK        -0.1249 
     15 C15       -53.7383  -29.2096   10.7952 C.3       14 UNK         0.0141 
     16 S16       -55.4110  -29.9023   10.6472 S.3       14 UNK        -0.2313 
     17 C17       -55.6982  -30.3708   12.3834 C.3       14 UNK        -0.0915 
     18 CA        -56.3757  -29.2299   13.2035 C.3       13 UNK         0.0968 
     19 C         -57.9354  -29.2905   13.1982 C.2       13 UNK         0.5732 
     20 N         -58.6210  -28.9545   14.2866 N.am      13 UNK        -0.7310 
     21 O         -58.5439  -29.6194   12.1828 O.2       13 UNK        -0.5035 
     22 N         -55.7816  -29.0633   14.5367 N.am      13 UNK        -0.4233 
     23 C         -55.7511  -29.9902   15.5061 C.2       13 UNK         0.4989 
     24 O         -56.1104  -31.1583   15.3560 O.2       13 UNK        -0.4996 
     25 CA        -55.2622  -29.5361   16.8942 C.3       12 UNK         0.0216 
     26 CB        -53.8135  -29.9943   17.1281 C.3       12 UNK        -0.1964 
     27 N         -55.3744  -28.0864   17.1049 N.am      12 UNK        -0.4276 
     28 C         -56.5446  -27.4277   17.1608 C.2       12 UNK         0.5020 
     29 O         -57.6392  -27.9886   17.0848 O.2       12 UNK        -0.5489 
     30 CA        -56.5112  -25.8920   17.2704 C.3       11 UNK         0.0294 
     31 CB        -56.7214  -25.4559   18.7292 C.3       11 UNK        -0.2019 
     32 N         -55.2909  -25.2681   16.7529 N.am      11 UNK        -0.4493 
     33 C         -54.8372  -25.3504   15.4942 C.2       11 UNK         0.4932 
     34 O         -55.4018  -25.9876   14.6026 O.2       11 UNK        -0.5029 
     35 CA        -53.4975  -24.6499   15.1880 C.3       10 UNK         0.0280 
     36 CB        -52.9902  -23.7253   16.3177 C.3       10 UNK        -0.1976 
     37 N         -52.4534  -25.6118   14.8226 N.am      10 UNK        -0.4242 
     38 C         -52.0959  -26.7124   15.5028 C.2       10 UNK         0.5072 
     39 O         -52.5952  -27.0555   16.5765 O.2       10 UNK        -0.5224 
     40 CA        -50.9946  -27.5791   14.8739 C.3       9 UNK         0.0343 
     41 CB        -51.5027  -28.2784   13.6019 C.3       9 UNK        -0.2003 
     42 N         -49.7895  -26.8061   14.5705 N.am      9 UNK        -0.4272 
     43 C         -48.9609  -26.3034   15.4979 C.2       9 UNK         0.4988 
     44 O         -49.0879  -26.4917   16.7085 O.2       9 UNK        -0.5108 
     45 CA        -47.7873  -25.4451   14.9965 C.3       8 UNK         0.0248 
     46 CB        -46.6274  -26.3351   14.5224 C.3       8 UNK        -0.2001 
     47 N         -48.1761  -24.5156   13.9328 N.am      8 UNK        -0.4140 
     48 C         -49.0048  -23.4752   14.1074 C.2       8 UNK         0.5028 
     49 O         -49.4705  -23.1467   15.1988 O.2       8 UNK        -0.5428 
     50 CA        -49.3898  -22.6606   12.8606 C.3       7 UNK         0.0264 
     51 CB        -48.3387  -21.5755   12.5778 C.3       7 UNK        -0.1988 
     52 N         -49.5838  -23.4769   11.6603 N.am      7 UNK        -0.4454 
     53 C         -50.5307  -24.4166   11.5138 C.2       7 UNK         0.5027 
     54 O         -51.3546  -24.7029   12.3839 O.2       7 UNK        -0.5083 
     55 CA        -50.5155  -25.2119   10.1899 C.3       6 UNK         0.0844 
     56 C56       -51.0451  -24.3711    8.9992 C.3       14 UNK        -0.0967 
     57 S57       -52.8331  -24.0166    9.1143 S.3       14 UNK        -0.2604 
     58 C58       -53.5273  -25.1159    7.8388 C.3       14 UNK         0.0134 
     59 N         -49.1859  -25.7668    9.9177 N.am      6 UNK        -0.4116 
     60 C         -48.5063  -26.5831   10.7380 C.2       5 UNK         0.5034 
     61 O         -48.9578  -27.0468   11.7848 O.2       5 UNK        -0.5045 
     62 CA        -47.0452  -26.8736   10.3644 C.3       5 UNK         0.0224 
     63 CB        -46.9456  -28.0422    9.3735 C.3       5 UNK        -0.1978 
     64 N         -46.3793  -25.6893    9.8155 N.am      5 UNK        -0.4737 
     65 C         -46.0316  -24.6197   10.5454 C.2       4 UNK         0.5027 
     66 O         -46.1950  -24.5433   11.7619 O.2       4 UNK        -0.5211 
     67 CA        -45.4438  -23.4184    9.7853 C.3       4 UNK         0.0297 
     68 CB        -43.9425  -23.6229    9.5289 C.3       4 UNK        -0.1993 
     69 N         -46.1304  -23.1608    8.5169 N.am      4 UNK        -0.4486 
     70 C         -47.4128  -22.7835    8.4149 C.2       3 UNK         0.4961 
     71 O         -48.1333  -22.5486    9.3838 O.2       3 UNK        -0.5105 
     72 CA        -48.0117  -22.7018    6.9984 C.3       3 UNK         0.0299 
     73 CB        -47.8393  -21.2863    6.4263 C.3       3 UNK        -0.1972 
     74 N         -47.4647  -23.6840    6.0539 N.am      3 UNK        -0.4305 
     75 C         -47.4802  -25.0135    6.2243 C.2       2 UNK         0.5006 
     76 O         -47.9473  -25.5710    7.2218 O.2       2 UNK        -0.5106 
     77 CA        -46.8211  -25.8467    5.1181 C.3       2 UNK         0.0296 
     78 CB        -45.3075  -25.5691    5.0329 C.3       2 UNK        -0.2002 
     79 N         -47.0293  -27.2645    5.3932 N.am      2 UNK        -0.4032 
     80 C         -47.1595  -28.2334    4.4794 C.2       1 UNK         0.5000 
     81 O         -47.1428  -28.0355    3.2625 O.2       1 UNK        -0.5238 
     82 H82       -43.8776  -29.3769    7.8440 H         1 UNK         0.0889 
     83 H83       -43.7186  -31.0745    7.3862 H         1 UNK         0.0889 
     84 H84       -45.1356  -30.5365    8.2858 H         1 UNK         0.0889 
     85 H85       -46.9636  -30.1264    7.0411 H         1 UNK         0.3028 
     86 H86       -46.9455  -30.3287    4.2142 H         1 UNK         0.0864 
     87 H87       -49.3929  -29.8312    4.3946 H         1 UNK         0.0720 
     88 H88       -48.8627  -31.1376    5.4131 H         1 UNK         0.0720 
     89 H89       -51.5610  -30.4537    6.3719 H         1 UNK         0.0814 
     90 H90       -51.4773  -29.0213    5.3718 H         1 UNK         0.0814 
     91 H91       -52.0780  -26.8071    6.2611 H         1 UNK         0.1469 
     92 H92       -54.2154  -26.6618    9.9761 H         1 UNK         0.1381 
     93 H93       -52.2766  -30.2890    8.7549 H         1 UNK         0.1206 
     94 H94       -53.0385  -29.9975   11.0783 H         1 UNK         0.0813 
     95 H95       -53.7243  -28.4771   11.6034 H         1 UNK         0.0813 
     96 H96       -56.2918  -31.2863   12.4112 H         1 UNK         0.0638 
     97 H97       -54.7343  -30.6433   12.8166 H         1 UNK         0.0638 
     98 H98       -56.1486  -28.2822   12.7140 H         1 UNK         0.0568 
     99 H99       -59.6274  -28.9906   14.2582 H         1 UNK         0.3450 
    100 H100      -58.1539  -28.6757   15.1407 H         1 UNK         0.3450 
    101 H101      -55.5020  -28.1154   14.7615 H         1 UNK         0.2987 
    102 H102      -55.8948  -30.0251   17.6381 H         1 UNK         0.0766 
    103 H103      -53.4365  -29.6558   18.0933 H         1 UNK         0.0798 
    104 H104      -53.1412  -29.6241   16.3542 H         1 UNK         0.0798 
    105 H105      -53.7460  -31.0830   17.1172 H         1 UNK         0.0798 
    106 H106      -54.5051  -27.5595   17.1260 H         1 UNK         0.3198 
    107 H107      -57.3454  -25.5122   16.6765 H         1 UNK         0.0843 
    108 H108      -55.9013  -25.7815   19.3705 H         1 UNK         0.0831 
    109 H109      -57.6403  -25.8819   19.1351 H         1 UNK         0.0831 
    110 H110      -56.8062  -24.3723   18.8132 H         1 UNK         0.0831 
    111 H111      -54.7327  -24.7522   17.4177 H         1 UNK         0.3133 
    112 H112      -53.6695  -24.0325   14.3053 H         1 UNK         0.0566 
    113 H113      -52.0963  -23.1873   16.0019 H         1 UNK         0.0814 
    114 H114      -53.7337  -22.9718   16.5812 H         1 UNK         0.0814 
    115 H115      -52.7313  -24.2784   17.2214 H         1 UNK         0.0814 
    116 H116      -51.9874  -25.4175   13.9368 H         1 UNK         0.3091 
    117 H117      -50.7279  -28.3527   15.5973 H         1 UNK         0.0702 
    118 H118      -50.7620  -28.9782   13.2144 H         1 UNK         0.0785 
    119 H119      -52.4126  -28.8457   13.8034 H         1 UNK         0.0785 
    120 H120      -51.7265  -27.5636   12.8088 H         1 UNK         0.0785 
    121 H121      -49.5777  -26.6549   13.5878 H         1 UNK         0.2998 
    122 H122      -47.4293  -24.8502   15.8394 H         1 UNK         0.0697 
    123 H123      -46.9137  -26.9527   13.6713 H         1 UNK         0.0825 
    124 H124      -46.3022  -27.0073   15.3175 H         1 UNK         0.0825 
    125 H125      -45.7632  -25.7388   14.2292 H         1 UNK         0.0825 
    126 H126      -47.7577  -24.6614   13.0191 H         1 UNK         0.3029 
    127 H127      -50.3400  -22.1671   13.0758 H         1 UNK         0.0897 
    128 H128      -47.3715  -22.0090   12.3207 H         1 UNK         0.0792 
    129 H129      -48.1906  -20.9371   13.4499 H         1 UNK         0.0792 
    130 H130      -48.6454  -20.9321   11.7528 H         1 UNK         0.0792 
    131 H131      -48.9681  -23.2760   10.8740 H         1 UNK         0.3086 
    132 H132      -51.1774  -26.0705   10.3191 H         1 UNK         0.0583 
    133 H133      -50.5216  -23.4182    8.9281 H         1 UNK         0.1020 
    134 H134      -50.8440  -24.8869    8.0588 H         1 UNK         0.1020 
    135 H135      -54.6117  -24.9993    7.8236 H         1 UNK         0.0694 
    136 H136      -53.1690  -24.7928    6.8601 H         1 UNK         0.0694 
    137 H137      -48.7374  -25.4855    9.0518 H         1 UNK         0.2989 
    138 H138      -46.5215  -27.1635   11.2778 H         1 UNK         0.1055 
    139 H139      -47.3797  -28.9485    9.7980 H         1 UNK         0.0806 
    140 H140      -45.9070  -28.2610    9.1287 H         1 UNK         0.0806 
    141 H141      -47.4768  -27.8338    8.4465 H         1 UNK         0.0806 
    142 H142      -46.2891  -25.6411    8.8103 H         1 UNK         0.3061 
    143 H143      -45.5652  -22.5360   10.4176 H         1 UNK         0.0734 
    144 H144      -43.4952  -22.7433    9.0657 H         1 UNK         0.0832 
    145 H145      -43.4095  -23.8000   10.4643 H         1 UNK         0.0832 
    146 H146      -43.7531  -24.4788    8.8798 H         1 UNK         0.0832 
    147 H147      -45.6087  -23.3211    7.6679 H         1 UNK         0.3156 
    148 H148      -49.0809  -22.9019    7.0841 H         1 UNK         0.0589 
    149 H149      -46.7885  -21.0345    6.2769 H         1 UNK         0.0808 
    150 H150      -48.3510  -21.1784    5.4698 H         1 UNK         0.0808 
    151 H151      -48.2601  -20.5393    7.1013 H         1 UNK         0.0808 
    152 H152      -47.0592  -23.3125    5.2065 H         1 UNK         0.3098 
    153 H153      -47.2994  -25.5819    4.1728 H         1 UNK         0.0720 
    154 H154      -44.8390  -26.1773    4.2586 H         1 UNK         0.0791 
    155 H155      -44.8041  -25.7900    5.9751 H         1 UNK         0.0791 
    156 H156      -45.1024  -24.5272    4.7857 H         1 UNK         0.0791 
    157 H157      -47.1673  -27.4912    6.3688 H         1 UNK         0.3028 
@<TRIPOS>BOND
     1    1    2 1    
     2    1   82 1    
     3    1   83 1    
     4    1   84 1    
     5    2    3 2    
     6    2    4 am   BACKBONE|DICT|INTERRES
     7    4    5 1    
     8    4   85 1    
     9    5    6 1    
    10    5   80 1    
    11    5   86 1    
    12    6    7 1    
    13    6   87 1    
    14    6   88 1    
    15    7    8 1    
    16    8    9 1    
    17    8   89 1    
    18    8   90 1    
    19    9   10 ar   
    20    9   14 ar   
    21   10   11 ar   
    22   10   91 1    
    23   11   12 ar   
    24   11   58 1    
    25   12   13 ar   
    26   12   92 1    
    27   13   14 ar   
    28   13   15 1    
    29   14   93 1    
    30   15   16 1    
    31   15   94 1    
    32   15   95 1    
    33   16   17 1    
    34   17   18 1    
    35   17   96 1    
    36   17   97 1    
    37   18   19 1    
    38   18   22 1    
    39   18   98 1    
    40   19   20 am   BACKBONE|DICT|INTERRES
    41   19   21 2    
    42   20   99 1    
    43   20  100 1    
    44   22   23 am   BACKBONE|DICT|INTERRES
    45   22  101 1    
    46   23   24 2    
    47   23   25 1    
    48   25   26 1    
    49   25   27 1    
    50   25  102 1    
    51   26  103 1    
    52   26  104 1    
    53   26  105 1    
    54   27   28 am   BACKBONE|DICT|INTERRES
    55   27  106 1    
    56   28   29 2    
    57   28   30 1    
    58   30   31 1    
    59   30   32 1    
    60   30  107 1    
    61   31  108 1    
    62   31  109 1    
    63   31  110 1    
    64   32   33 am   BACKBONE|DICT|INTERRES
    65   32  111 1    
    66   33   34 2    
    67   33   35 1    
    68   35   36 1    
    69   35   37 1    
    70   35  112 1    
    71   36  113 1    
    72   36  114 1    
    73   36  115 1    
    74   37   38 am   BACKBONE|DICT|INTERRES
    75   37  116 1    
    76   38   39 2    
    77   38   40 1    
    78   40   41 1    
    79   40   42 1    
    80   40  117 1    
    81   41  118 1    
    82   41  119 1    
    83   41  120 1    
    84   42   43 am   BACKBONE|DICT|INTERRES
    85   42  121 1    
    86   43   44 2    
    87   43   45 1    
    88   45   46 1    
    89   45   47 1    
    90   45  122 1    
    91   46  123 1    
    92   46  124 1    
    93   46  125 1    
    94   47   48 am   BACKBONE|DICT|INTERRES
    95   47  126 1    
    96   48   49 2    
    97   48   50 1    
    98   50   51 1    
    99   50   52 1    
   100   50  127 1    
   101   51  128 1    
   102   51  129 1    
   103   51  130 1    
   104   52   53 am   BACKBONE|DICT|INTERRES
   105   52  131 1    
   106   53   54 2    
   107   53   55 1    
   108   55   56 1    
   109   55   59 1    
   110   55  132 1    
   111   56   57 1    
   112   56  133 1    
   113   56  134 1    
   114   57   58 1    
   115   58  135 1    
   116   58  136 1    
   117   59   60 am   BACKBONE|DICT|INTERRES
   118   59  137 1    
   119   60   61 2    
   120   60   62 1    
   121   62   63 1    
   122   62   64 1    
   123   62  138 1    
   124   63  139 1    
   125   63  140 1    
   126   63  141 1    
   127   64   65 am   BACKBONE|DICT|INTERRES
   128   64  142 1    
   129   65   66 2    
   130   65   67 1    
   131   67   68 1    
   132   67   69 1    
   133   67  143 1    
   134   68  144 1    
   135   68  145 1    
   136   68  146 1    
   137   69   70 am   BACKBONE|DICT|INTERRES
   138   69  147 1    
   139   70   71 2    
   140   70   72 1    
   141   72   73 1    
   142   72   74 1    
   143   72  148 1    
   144   73  149 1    
   145   73  150 1    
   146   73  151 1    
   147   74   75 am   BACKBONE|DICT|INTERRES
   148   74  152 1    
   149   75   76 2    
   150   75   77 1    
   151   77   78 1    
   152   77   79 1    
   153   77  153 1    
   154   78  154 1    
   155   78  155 1    
   156   78  156 1    
   157   79   80 am   BACKBONE|DICT|INTERRES
   158   79  157 1    
   159   80   81 2    
@<TRIPOS>SUBSTRUCTURE
     1 UNK         1 GROUP             0       ****    0 ROOT    
