@<TRIPOS>MOLECULE
3R207
157   159    1
SMALL
USER_CHARGES


@<TRIPOS>ATOM
      1 CA        -45.9802  -29.0534    8.4569 C.3       0 UNK        -0.1975 
      2 C         -47.0043  -29.3571    7.3747 C.2       0 UNK         0.4852 
      3 O         -46.7827  -29.0214    6.2115 O.2       0 UNK        -0.5216 
      4 N         -48.1259  -29.9880    7.7478 N.am      1 UNK        -0.4461 
      5 CA        -49.1994  -30.4179    6.8344 C.3       1 UNK         0.0864 
      6 C6        -50.0811  -31.5542    7.4318 C.3       14 UNK        -0.0898 
      7 S7        -49.1963  -32.7183    8.5343 S.3       14 UNK        -0.2598 
      8 C8        -50.2972  -32.8119    9.9883 C.3       14 UNK         0.0286 
      9 C9        -50.5559  -31.4590   10.6443 C.ar      14 UNK        -0.0844 
     10 C10       -49.6024  -30.8765   11.4859 C.ar      14 UNK        -0.0881 
     11 C11       -49.8596  -29.6495   12.1098 C.ar      14 UNK        -0.0643 
     12 C12       -51.0722  -28.9962   11.8673 C.ar      14 UNK        -0.0930 
     13 C13       -52.0482  -29.5868   11.0605 C.ar      14 UNK        -0.0827 
     14 C14       -51.7818  -30.8146   10.4511 C.ar      14 UNK        -0.1249 
     15 C15       -53.4222  -28.9522   10.9067 C.3       14 UNK         0.0141 
     16 S16       -53.6107  -28.0858    9.3175 S.3       14 UNK        -0.2313 
     17 C17       -55.4250  -28.1331    9.0962 C.3       14 UNK        -0.0915 
     18 CA        -56.1535  -26.8102    9.4578 C.3       13 UNK         0.0968 
     19 C         -57.6790  -26.9414    9.1687 C.2       13 UNK         0.5732 
     20 N         -58.5487  -26.9891   10.1726 N.am      13 UNK        -0.7310 
     21 O         -58.0784  -27.0007    8.0083 O.2       13 UNK        -0.5035 
     22 N         -55.8288  -26.3708   10.8212 N.am      13 UNK        -0.4233 
     23 C         -56.1176  -25.1757   11.3521 C.2       13 UNK         0.4989 
     24 O         -56.6405  -24.2541   10.7240 O.2       13 UNK        -0.4996 
     25 CA        -55.7351  -24.9795   12.8323 C.3       12 UNK         0.0216 
     26 CB        -56.6454  -23.9683   13.5606 C.3       12 UNK        -0.1964 
     27 N         -55.6345  -26.2429   13.5779 N.am      12 UNK        -0.4276 
     28 C         -56.6184  -27.1129   13.8571 C.2       12 UNK         0.5020 
     29 O         -57.7867  -26.9511   13.5012 O.2       12 UNK        -0.5489 
     30 CA        -56.2447  -28.4096   14.6070 C.3       11 UNK         0.0294 
     31 CB        -56.5877  -29.6428   13.7523 C.3       11 UNK        -0.2019 
     32 N         -54.8337  -28.4929   14.9975 N.am      11 UNK        -0.4493 
     33 C         -54.2636  -27.8369   16.0174 C.2       11 UNK         0.4932 
     34 O         -54.8803  -27.1061   16.7927 O.2       11 UNK        -0.5029 
     35 CA        -52.7371  -27.9900   16.1790 C.3       10 UNK         0.0280 
     36 CB        -52.1564  -29.2452   15.4889 C.3       10 UNK        -0.1976 
     37 N         -52.0185  -26.7901   15.7349 N.am      10 UNK        -0.4242 
     38 C         -52.1086  -26.1738   14.5487 C.2       10 UNK         0.5072 
     39 O         -52.8392  -26.5535   13.6339 O.2       10 UNK        -0.5224 
     40 CA        -51.2448  -24.9238   14.3198 C.3       9 UNK         0.0343 
     41 CB        -51.9346  -23.6642   14.8751 C.3       9 UNK        -0.2003 
     42 N         -49.8528  -25.0263   14.7736 N.am      9 UNK        -0.4272 
     43 C         -49.3628  -25.1379   16.0179 C.2       9 UNK         0.4988 
     44 O         -50.0628  -25.2346   17.0267 O.2       9 UNK        -0.5108 
     45 CA        -47.8285  -25.1712   16.1639 C.3       8 UNK         0.0248 
     46 CB        -47.3541  -26.6072   16.4419 C.3       8 UNK        -0.2001 
     47 N         -47.1198  -24.6596   14.9870 N.am      8 UNK        -0.4140 
     48 C         -47.1105  -23.3880   14.5659 C.2       8 UNK         0.5028 
     49 O         -47.6082  -22.4584   15.2015 O.2       8 UNK        -0.5428 
     50 CA        -46.4972  -23.1044   13.1818 C.3       7 UNK         0.0264 
     51 CB        -45.0208  -22.6777   13.2946 C.3       7 UNK        -0.1988 
     52 N         -46.6814  -24.1861   12.1995 N.am      7 UNK        -0.4454 
     53 C         -46.1202  -25.4059   12.1695 C.2       7 UNK         0.5027 
     54 O         -45.3504  -25.8203   13.0366 O.2       7 UNK        -0.5083 
     55 CA        -46.4997  -26.3282   10.9913 C.3       6 UNK         0.0844 
     56 C56       -47.7200  -27.2235   11.3245 C.3       14 UNK        -0.0967 
     57 S57       -47.2658  -28.6548   12.3523 S.3       14 UNK        -0.2604 
     58 C58       -48.8660  -29.0682   13.1085 C.3       14 UNK         0.0134 
     59 N         -46.7244  -25.5832    9.7544 N.am      6 UNK        -0.4116 
     60 C         -45.7882  -24.9351    9.0491 C.2       5 UNK         0.5034 
     61 O         -44.5919  -24.9132    9.3388 O.2       5 UNK        -0.5045 
     62 CA        -46.2843  -24.1776    7.8091 C.3       5 UNK         0.0224 
     63 CB        -46.4350  -25.1340    6.6138 C.3       5 UNK        -0.1978 
     64 N         -47.5598  -23.5035    8.0676 N.am      5 UNK        -0.4737 
     65 C         -47.6780  -22.3537    8.7467 C.2       4 UNK         0.5027 
     66 O         -46.7191  -21.7067    9.1668 O.2       4 UNK        -0.5211 
     67 CA        -49.1038  -21.8382    9.0108 C.3       4 UNK         0.0297 
     68 CB        -49.5566  -20.9083    7.8738 C.3       4 UNK        -0.1993 
     69 N         -50.0874  -22.9106    9.1826 N.am      4 UNK        -0.4486 
     70 C         -50.1314  -23.7394   10.2343 C.2       3 UNK         0.4961 
     71 O         -49.3481  -23.6949   11.1835 O.2       3 UNK        -0.5105 
     72 CA        -51.2011  -24.8434   10.1920 C.3       3 UNK         0.0299 
     73 CB        -52.5596  -24.3132   10.6704 C.3       3 UNK        -0.1972 
     74 N         -51.3607  -25.4841    8.8809 N.am      3 UNK        -0.4305 
     75 C         -50.3770  -26.1060    8.2217 C.2       2 UNK         0.5006 
     76 O         -49.1974  -26.0928    8.5822 O.2       2 UNK        -0.5106 
     77 CA        -50.7463  -26.8831    6.9574 C.3       2 UNK         0.0296 
     78 CB        -50.4323  -26.0715    5.6887 C.3       2 UNK        -0.2002 
     79 N         -49.9346  -28.0872    7.0190 N.am      2 UNK        -0.4032 
     80 C         -50.0979  -29.2441    6.3729 C.2       1 UNK         0.5000 
     81 O         -50.9344  -29.4235    5.4857 O.2       1 UNK        -0.5238 
     82 H82       -45.0666  -29.6184    8.2753 H         1 UNK         0.0889 
     83 H83       -46.3465  -29.3119    9.4500 H         1 UNK         0.0889 
     84 H84       -45.7300  -27.9937    8.4484 H         1 UNK         0.0889 
     85 H85       -48.2487  -30.2738    8.7098 H         1 UNK         0.3028 
     86 H86       -48.7192  -30.8149    5.9373 H         1 UNK         0.0864 
     87 H87       -50.9309  -31.1373    7.9699 H         1 UNK         0.0720 
     88 H88       -50.5227  -32.1349    6.6202 H         1 UNK         0.0720 
     89 H89       -51.2380  -33.2753    9.6869 H         1 UNK         0.0814 
     90 H90       -49.8527  -33.4874   10.7206 H         1 UNK         0.0814 
     91 H91       -48.6668  -31.3863   11.6719 H         1 UNK         0.1469 
     92 H92       -51.2778  -28.0518   12.3478 H         1 UNK         0.1381 
     93 H93       -52.5402  -31.2746    9.8320 H         1 UNK         0.1206 
     94 H94       -53.6120  -28.2521   11.7204 H         1 UNK         0.0813 
     95 H95       -54.1737  -29.7374   10.9964 H         1 UNK         0.0813 
     96 H96       -55.8424  -28.9645    9.6666 H         1 UNK         0.0638 
     97 H97       -55.6051  -28.3789    8.0479 H         1 UNK         0.0638 
     98 H98       -55.7837  -26.0356    8.7835 H         1 UNK         0.0568 
     99 H99       -58.2373  -26.9335   11.1320 H         1 UNK         0.3450 
    100 H100      -59.5315  -27.0721    9.9673 H         1 UNK         0.3450 
    101 H101      -55.3955  -27.0588   11.4146 H         1 UNK         0.2987 
    102 H102      -54.7286  -24.5600   12.8249 H         1 UNK         0.0766 
    103 H103      -56.5910  -22.9847   13.0924 H         1 UNK         0.0798 
    104 H104      -56.3478  -23.8463   14.6021 H         1 UNK         0.0798 
    105 H105      -57.6910  -24.2770   13.5436 H         1 UNK         0.0798 
    106 H106      -54.6845  -26.4982   13.8429 H         1 UNK         0.3198 
    107 H107      -56.8545  -28.4403   15.5126 H         1 UNK         0.0843 
    108 H108      -57.6464  -29.6557   13.4889 H         1 UNK         0.0831 
    109 H109      -56.3821  -30.5687   14.2897 H         1 UNK         0.0831 
    110 H110      -56.0219  -29.6613   12.8204 H         1 UNK         0.0831 
    111 H111      -54.2332  -29.0518   14.4090 H         1 UNK         0.3133 
    112 H112      -52.5481  -28.0853   17.2492 H         1 UNK         0.0566 
    113 H113      -51.0955  -29.3568   15.7133 H         1 UNK         0.0814 
    114 H114      -52.6524  -30.1518   15.8385 H         1 UNK         0.0814 
    115 H115      -52.2559  -29.2094   14.4048 H         1 UNK         0.0814 
    116 H116      -51.4067  -26.3529   16.4215 H         1 UNK         0.3091 
    117 H117      -51.1718  -24.8016   13.2400 H         1 UNK         0.0702 
    118 H118      -52.0389  -23.6997   15.9599 H         1 UNK         0.0785 
    119 H119      -52.9358  -23.5512   14.4572 H         1 UNK         0.0785 
    120 H120      -51.3741  -22.7642   14.6217 H         1 UNK         0.0785 
    121 H121      -49.1695  -24.9707   14.0325 H         1 UNK         0.2998 
    122 H122      -47.5658  -24.5449   17.0189 H         1 UNK         0.0697 
    123 H123      -47.5752  -27.2753   15.6081 H         1 UNK         0.0825 
    124 H124      -47.8427  -27.0171   17.3271 H         1 UNK         0.0825 
    125 H125      -46.2795  -26.6420   16.6225 H         1 UNK         0.0825 
    126 H126      -46.6055  -25.3317   14.4248 H         1 UNK         0.3029 
    127 H127      -47.0496  -22.2560   12.7737 H         1 UNK         0.0897 
    128 H128      -44.6060  -22.4287   12.3177 H         1 UNK         0.0792 
    129 H129      -44.9211  -21.7929   13.9248 H         1 UNK         0.0792 
    130 H130      -44.3994  -23.4578   13.7351 H         1 UNK         0.0792 
    131 H131      -47.3943  -23.9891   11.5023 H         1 UNK         0.3086 
    132 H132      -45.6399  -26.9757   10.8057 H         1 UNK         0.0583 
    133 H133      -48.5208  -26.6487   11.7940 H         1 UNK         0.1020 
    134 H134      -48.1507  -27.6348   10.4108 H         1 UNK         0.1020 
    135 H135      -48.6972  -29.8014   13.8983 H         1 UNK         0.0694 
    136 H136      -49.2729  -28.1832   13.6007 H         1 UNK         0.0694 
    137 H137      -47.6750  -25.5945    9.3897 H         1 UNK         0.2989 
    138 H138      -45.5336  -23.4261    7.5531 H         1 UNK         0.1055 
    139 H139      -45.4837  -25.6127    6.3774 H         1 UNK         0.0806 
    140 H140      -46.7605  -24.6033    5.7190 H         1 UNK         0.0806 
    141 H141      -47.1539  -25.9296    6.8123 H         1 UNK         0.0806 
    142 H142      -48.4004  -23.9969    7.8016 H         1 UNK         0.3061 
    143 H143      -49.0758  -21.2570    9.9353 H         1 UNK         0.0734 
    144 H144      -48.8536  -20.0844    7.7417 H         1 UNK         0.0832 
    145 H145      -49.6225  -21.4350    6.9208 H         1 UNK         0.0832 
    146 H146      -50.5315  -20.4682    8.0842 H         1 UNK         0.0832 
    147 H147      -50.7689  -23.0333    8.4477 H         1 UNK         0.3156 
    148 H148      -50.8828  -25.6212   10.8895 H         1 UNK         0.0589 
    149 H149      -53.2401  -25.1411   10.8619 H         1 UNK         0.0808 
    150 H150      -52.4671  -23.7489   11.5989 H         1 UNK         0.0808 
    151 H151      -53.0238  -23.6541    9.9360 H         1 UNK         0.0808 
    152 H152      -52.3026  -25.5542    8.5232 H         1 UNK         0.3098 
    153 H153      -51.8026  -27.1573    6.9812 H         1 UNK         0.0720 
    154 H154      -50.6706  -26.6369    4.7878 H         1 UNK         0.0791 
    155 H155      -49.3792  -25.7929    5.6373 H         1 UNK         0.0791 
    156 H156      -51.0178  -25.1519    5.6581 H         1 UNK         0.0791 
    157 H157      -49.2131  -28.0383    7.7275 H         1 UNK         0.3028 
@<TRIPOS>BOND
     1    1    2 1    
     2    1   82 1    
     3    1   83 1    
     4    1   84 1    
     5    2    3 2    
     6    2    4 am   BACKBONE|DICT|INTERRES
     7    4    5 1    
     8    4   85 1    
     9    5    6 1    
    10    5   80 1    
    11    5   86 1    
    12    6    7 1    
    13    6   87 1    
    14    6   88 1    
    15    7    8 1    
    16    8    9 1    
    17    8   89 1    
    18    8   90 1    
    19    9   10 ar   
    20    9   14 ar   
    21   10   11 ar   
    22   10   91 1    
    23   11   12 ar   
    24   11   58 1    
    25   12   13 ar   
    26   12   92 1    
    27   13   14 ar   
    28   13   15 1    
    29   14   93 1    
    30   15   16 1    
    31   15   94 1    
    32   15   95 1    
    33   16   17 1    
    34   17   18 1    
    35   17   96 1    
    36   17   97 1    
    37   18   19 1    
    38   18   22 1    
    39   18   98 1    
    40   19   20 am   BACKBONE|DICT|INTERRES
    41   19   21 2    
    42   20   99 1    
    43   20  100 1    
    44   22   23 am   BACKBONE|DICT|INTERRES
    45   22  101 1    
    46   23   24 2    
    47   23   25 1    
    48   25   26 1    
    49   25   27 1    
    50   25  102 1    
    51   26  103 1    
    52   26  104 1    
    53   26  105 1    
    54   27   28 am   BACKBONE|DICT|INTERRES
    55   27  106 1    
    56   28   29 2    
    57   28   30 1    
    58   30   31 1    
    59   30   32 1    
    60   30  107 1    
    61   31  108 1    
    62   31  109 1    
    63   31  110 1    
    64   32   33 am   BACKBONE|DICT|INTERRES
    65   32  111 1    
    66   33   34 2    
    67   33   35 1    
    68   35   36 1    
    69   35   37 1    
    70   35  112 1    
    71   36  113 1    
    72   36  114 1    
    73   36  115 1    
    74   37   38 am   BACKBONE|DICT|INTERRES
    75   37  116 1    
    76   38   39 2    
    77   38   40 1    
    78   40   41 1    
    79   40   42 1    
    80   40  117 1    
    81   41  118 1    
    82   41  119 1    
    83   41  120 1    
    84   42   43 am   BACKBONE|DICT|INTERRES
    85   42  121 1    
    86   43   44 2    
    87   43   45 1    
    88   45   46 1    
    89   45   47 1    
    90   45  122 1    
    91   46  123 1    
    92   46  124 1    
    93   46  125 1    
    94   47   48 am   BACKBONE|DICT|INTERRES
    95   47  126 1    
    96   48   49 2    
    97   48   50 1    
    98   50   51 1    
    99   50   52 1    
   100   50  127 1    
   101   51  128 1    
   102   51  129 1    
   103   51  130 1    
   104   52   53 am   BACKBONE|DICT|INTERRES
   105   52  131 1    
   106   53   54 2    
   107   53   55 1    
   108   55   56 1    
   109   55   59 1    
   110   55  132 1    
   111   56   57 1    
   112   56  133 1    
   113   56  134 1    
   114   57   58 1    
   115   58  135 1    
   116   58  136 1    
   117   59   60 am   BACKBONE|DICT|INTERRES
   118   59  137 1    
   119   60   61 2    
   120   60   62 1    
   121   62   63 1    
   122   62   64 1    
   123   62  138 1    
   124   63  139 1    
   125   63  140 1    
   126   63  141 1    
   127   64   65 am   BACKBONE|DICT|INTERRES
   128   64  142 1    
   129   65   66 2    
   130   65   67 1    
   131   67   68 1    
   132   67   69 1    
   133   67  143 1    
   134   68  144 1    
   135   68  145 1    
   136   68  146 1    
   137   69   70 am   BACKBONE|DICT|INTERRES
   138   69  147 1    
   139   70   71 2    
   140   70   72 1    
   141   72   73 1    
   142   72   74 1    
   143   72  148 1    
   144   73  149 1    
   145   73  150 1    
   146   73  151 1    
   147   74   75 am   BACKBONE|DICT|INTERRES
   148   74  152 1    
   149   75   76 2    
   150   75   77 1    
   151   77   78 1    
   152   77   79 1    
   153   77  153 1    
   154   78  154 1    
   155   78  155 1    
   156   78  156 1    
   157   79   80 am   BACKBONE|DICT|INTERRES
   158   79  157 1    
   159   80   81 2    
@<TRIPOS>SUBSTRUCTURE
     1 UNK         1 GROUP             0       ****    0 ROOT    
