@<TRIPOS>MOLECULE
3R207
157   159    1
SMALL
USER_CHARGES


@<TRIPOS>ATOM
      1 CA        -48.4754  -29.8078    0.2487 C.3       0 UNK        -0.1975 
      2 C         -48.6242  -29.2211    1.6450 C.2       0 UNK         0.4852 
      3 O         -49.1694  -28.1263    1.7929 O.2       0 UNK        -0.5216 
      4 N         -48.1515  -29.9441    2.6688 N.am      1 UNK        -0.4461 
      5 CA        -48.1445  -29.5052    4.0678 C.3       1 UNK         0.0864 
      6 C6        -48.0153  -30.7170    5.0284 C.3       14 UNK        -0.0898 
      7 S7        -48.8325  -30.4155    6.6294 S.3       14 UNK        -0.2598 
      8 C8        -50.5320  -30.9723    6.2818 C.3       14 UNK         0.0286 
      9 C9        -51.5571  -30.0214    6.8817 C.ar      14 UNK        -0.0844 
     10 C10       -51.7381  -28.7564    6.3186 C.ar      14 UNK        -0.0881 
     11 C11       -52.6755  -27.8660    6.8474 C.ar      14 UNK        -0.0643 
     12 C12       -53.4680  -28.2649    7.9288 C.ar      14 UNK        -0.0930 
     13 C13       -53.2973  -29.5285    8.5046 C.ar      14 UNK        -0.0827 
     14 C14       -52.3349  -30.4000    7.9806 C.ar      14 UNK        -0.1249 
     15 C15       -54.1647  -29.9662    9.6776 C.3       14 UNK         0.0141 
     16 S16       -53.5334  -29.3407   11.2670 S.3       14 UNK        -0.2313 
     17 C17       -54.6399  -27.9188   11.5575 C.3       14 UNK        -0.0915 
     18 CA        -54.2660  -27.0978   12.8265 C.3       13 UNK         0.0968 
     19 C         -55.1744  -25.8515   13.0314 C.2       13 UNK         0.5732 
     20 N         -54.7196  -24.8703   13.7986 N.am      13 UNK        -0.7310 
     21 O         -56.2890  -25.7702   12.5182 O.2       13 UNK        -0.5035 
     22 N         -54.1707  -27.9182   14.0451 N.am      13 UNK        -0.4233 
     23 C         -55.1780  -28.5302   14.6831 C.2       13 UNK         0.4989 
     24 O         -56.3592  -28.4832   14.3411 O.2       13 UNK        -0.4996 
     25 CA        -54.7937  -29.3265   15.9335 C.3       12 UNK         0.0216 
     26 CB        -53.9393  -30.5604   15.5812 C.3       12 UNK        -0.1964 
     27 N         -54.0989  -28.4660   16.8912 N.am      12 UNK        -0.4276 
     28 C         -54.0522  -28.6691   18.2135 C.2       12 UNK         0.5020 
     29 O         -54.5792  -29.6302   18.7764 O.2       12 UNK        -0.5489 
     30 CA        -53.2852  -27.6387   19.0615 C.3       11 UNK         0.0294 
     31 CB        -51.9382  -28.2211   19.5205 C.3       11 UNK        -0.2019 
     32 N         -53.0500  -26.3714   18.3607 N.am      11 UNK        -0.4493 
     33 C         -53.9574  -25.3865   18.2598 C.2       11 UNK         0.4932 
     34 O         -55.0909  -25.4695   18.7348 O.2       11 UNK        -0.5029 
     35 CA        -53.5613  -24.1104   17.4849 C.3       10 UNK         0.0280 
     36 CB        -54.1927  -22.8331   18.0786 C.3       10 UNK        -0.1976 
     37 N         -52.1155  -23.9517   17.2901 N.am      10 UNK        -0.4242 
     38 C         -51.1738  -23.7654   18.2311 C.2       10 UNK         0.5072 
     39 O         -51.4264  -23.5892   19.4241 O.2       10 UNK        -0.5224 
     40 CA        -49.6976  -23.8129   17.7679 C.3       9 UNK         0.0343 
     41 CB        -48.7533  -24.3188   18.8794 C.3       9 UNK        -0.2003 
     42 N         -49.4781  -24.5781   16.5305 N.am      9 UNK        -0.4272 
     43 C         -49.8265  -25.8541   16.2968 C.2       9 UNK         0.4988 
     44 O         -50.3535  -26.5798   17.1412 O.2       9 UNK        -0.5108 
     45 CA        -49.6319  -26.3705   14.8560 C.3       8 UNK         0.0248 
     46 CB        -50.4567  -27.6440   14.5824 C.3       8 UNK        -0.2001 
     47 N         -49.8995  -25.3547   13.8247 N.am      8 UNK        -0.4140 
     48 C         -50.9997  -24.5947   13.6965 C.2       8 UNK         0.5028 
     49 O         -51.9760  -24.6689   14.4457 O.2       8 UNK        -0.5428 
     50 CA        -50.9979  -23.5570   12.5637 C.3       7 UNK         0.0264 
     51 CB        -49.9224  -22.4806   12.7881 C.3       7 UNK        -0.1988 
     52 N         -50.8015  -24.1914   11.2623 N.am      7 UNK        -0.4454 
     53 C         -51.7738  -24.8010   10.5687 C.2       7 UNK         0.5027 
     54 O         -52.9604  -24.7726   10.8908 O.2       7 UNK        -0.5083 
     55 CA        -51.3695  -25.5702    9.2949 C.3       6 UNK         0.0844 
     56 C56       -51.5911  -24.6726    8.0518 C.3       14 UNK        -0.0967 
     57 S57       -51.2989  -25.4960    6.4528 S.3       14 UNK        -0.2604 
     58 C58       -52.8190  -26.4797    6.2361 C.3       14 UNK         0.0134 
     59 N         -50.0187  -26.1368    9.3906 N.am      6 UNK        -0.4116 
     60 C         -49.6594  -27.0773   10.2792 C.2       5 UNK         0.5034 
     61 O         -50.4489  -27.6424   11.0325 O.2       5 UNK        -0.5045 
     62 CA        -48.1628  -27.4020   10.4072 C.3       5 UNK         0.0224 
     63 CB        -47.7532  -28.5390    9.4610 C.3       5 UNK        -0.1978 
     64 N         -47.3187  -26.2299   10.1708 N.am      5 UNK        -0.4737 
     65 C         -47.1415  -25.2379   11.0538 C.2       4 UNK         0.5027 
     66 O         -47.6396  -25.2278   12.1785 O.2       4 UNK        -0.5211 
     67 CA        -46.2993  -24.0360   10.5945 C.3       4 UNK         0.0297 
     68 CB        -44.8081  -24.2897   10.8642 C.3       4 UNK        -0.1993 
     69 N         -46.4957  -23.7161    9.1789 N.am      4 UNK        -0.4486 
     70 C         -47.6449  -23.2633    8.6582 C.2       3 UNK         0.4961 
     71 O         -48.6464  -23.0080    9.3274 O.2       3 UNK        -0.5105 
     72 CA        -47.6991  -23.1244    7.1257 C.3       3 UNK         0.0299 
     73 CB        -47.1794  -21.7452    6.6907 C.3       3 UNK        -0.1972 
     74 N         -46.9694  -24.1787    6.4059 N.am      3 UNK        -0.4305 
     75 C         -47.2461  -25.4864    6.4998 C.2       2 UNK         0.5006 
     76 O         -48.1018  -25.9508    7.2535 O.2       2 UNK        -0.5106 
     77 CA        -46.4059  -26.4499    5.6601 C.3       2 UNK         0.0296 
     78 CB        -45.1758  -26.9283    6.4545 C.3       2 UNK        -0.2002 
     79 N         -47.2581  -27.5825    5.3087 N.am      2 UNK        -0.4032 
     80 C         -47.0474  -28.4424    4.3071 C.2       1 UNK         0.5000 
     81 O         -46.0392  -28.4259    3.5935 O.2       1 UNK        -0.5238 
     82 H82       -47.9913  -30.7841    0.2657 H         1 UNK         0.0889 
     83 H83       -49.4541  -29.9229   -0.2162 H         1 UNK         0.0889 
     84 H84       -47.8773  -29.1437   -0.3748 H         1 UNK         0.0889 
     85 H85       -47.6781  -30.8162    2.4808 H         1 UNK         0.3028 
     86 H86       -49.1092  -29.0246    4.2454 H         1 UNK         0.0864 
     87 H87       -46.9697  -30.9779    5.2050 H         1 UNK         0.0720 
     88 H88       -48.4655  -31.6096    4.5902 H         1 UNK         0.0720 
     89 H89       -50.6621  -31.9840    6.6690 H         1 UNK         0.0814 
     90 H90       -50.7007  -31.0319    5.2056 H         1 UNK         0.0814 
     91 H91       -51.1342  -28.4525    5.4752 H         1 UNK         0.1469 
     92 H92       -54.2068  -27.5870    8.3327 H         1 UNK         0.1381 
     93 H93       -52.1990  -31.3776    8.4226 H         1 UNK         0.1206 
     94 H94       -54.2008  -31.0555    9.7269 H         1 UNK         0.0813 
     95 H95       -55.1949  -29.6413    9.5244 H         1 UNK         0.0813 
     96 H96       -54.6039  -27.2735   10.6786 H         1 UNK         0.0638 
     97 H97       -55.6635  -28.2905   11.6285 H         1 UNK         0.0638 
     98 H98       -53.2585  -26.7144   12.6619 H         1 UNK         0.0568 
     99 H99       -53.7605  -24.8794   14.1382 H         1 UNK         0.3450 
    100 H100      -55.2951  -24.0570   13.9410 H         1 UNK         0.3450 
    101 H101      -53.2335  -28.0589   14.3858 H         1 UNK         0.2987 
    102 H102      -55.7244  -29.6735   16.3885 H         1 UNK         0.0766 
    103 H103      -52.9588  -30.2820   15.1935 H         1 UNK         0.0798 
    104 H104      -54.4300  -31.1715   14.8223 H         1 UNK         0.0798 
    105 H105      -53.7829  -31.1950   16.4537 H         1 UNK         0.0798 
    106 H106      -53.6893  -27.6154   16.5329 H         1 UNK         0.3198 
    107 H107      -53.8839  -27.4390   19.9531 H         1 UNK         0.0843 
    108 H108      -51.3761  -27.5035   20.1184 H         1 UNK         0.0831 
    109 H109      -51.3153  -28.5152   18.6750 H         1 UNK         0.0831 
    110 H110      -52.0882  -29.1096   20.1353 H         1 UNK         0.0831 
    111 H111      -52.1286  -26.2500   17.9471 H         1 UNK         0.3133 
    112 H112      -53.9756  -24.2376   16.4847 H         1 UNK         0.0566 
    113 H113      -55.2817  -22.8890   18.0578 H         1 UNK         0.0814 
    114 H114      -53.8980  -22.6780   19.1167 H         1 UNK         0.0814 
    115 H115      -53.9058  -21.9479   17.5111 H         1 UNK         0.0814 
    116 H116      -51.8085  -24.1124   16.3342 H         1 UNK         0.3091 
    117 H117      -49.4221  -22.7819   17.5421 H         1 UNK         0.0702 
    118 H118      -47.7163  -24.3316   18.5440 H         1 UNK         0.0785 
    119 H119      -49.0142  -25.3276   19.2015 H         1 UNK         0.0785 
    120 H120      -48.7985  -23.6748   19.7585 H         1 UNK         0.0785 
    121 H121      -49.0690  -24.0613   15.7647 H         1 UNK         0.2998 
    122 H122      -48.5765  -26.6305   14.7647 H         1 UNK         0.0697 
    123 H123      -50.2705  -28.0324   13.5825 H         1 UNK         0.0825 
    124 H124      -50.2039  -28.4386   15.2856 H         1 UNK         0.0825 
    125 H125      -51.5225  -27.4492   14.6769 H         1 UNK         0.0825 
    126 H126      -49.1355  -25.2158   13.1628 H         1 UNK         0.3029 
    127 H127      -51.9705  -23.0594   12.5713 H         1 UNK         0.0897 
    128 H128      -48.9130  -22.8915   12.7616 H         1 UNK         0.0792 
    129 H129      -49.9807  -21.7043   12.0248 H         1 UNK         0.0792 
    130 H130      -50.0535  -21.9932   13.7552 H         1 UNK         0.0792 
    131 H131      -49.8615  -24.2008   10.8865 H         1 UNK         0.3086 
    132 H132      -52.0551  -26.4134    9.2279 H         1 UNK         0.0583 
    133 H133      -52.6078  -24.2743    8.0435 H         1 UNK         0.1020 
    134 H134      -50.9352  -23.8016    8.0975 H         1 UNK         0.1020 
    135 H135      -53.6749  -25.9475    6.6537 H         1 UNK         0.0694 
    136 H136      -53.0161  -26.5862    5.1685 H         1 UNK         0.0694 
    137 H137      -49.3285  -25.8028    8.7240 H         1 UNK         0.2989 
    138 H138      -47.9946  -27.7442   11.4313 H         1 UNK         0.1055 
    139 H139      -47.8734  -28.2583    8.4158 H         1 UNK         0.0806 
    140 H140      -48.3666  -29.4251    9.6307 H         1 UNK         0.0806 
    141 H141      -46.7138  -28.8294    9.6130 H         1 UNK         0.0806 
    142 H142      -46.9462  -26.1232    9.2377 H         1 UNK         0.3061 
    143 H143      -46.6113  -23.1699   11.1824 H         1 UNK         0.0734 
    144 H144      -44.2050  -23.4161   10.6162 H         1 UNK         0.0832 
    145 H145      -44.6362  -24.5105   11.9187 H         1 UNK         0.0832 
    146 H146      -44.4291  -25.1355   10.2891 H         1 UNK         0.0832 
    147 H147      -45.7226  -23.8918    8.5539 H         1 UNK         0.3156 
    148 H148      -48.7482  -23.1986    6.8314 H         1 UNK         0.0589 
    149 H149      -46.1210  -21.6186    6.9218 H         1 UNK         0.0808 
    150 H150      -47.3112  -21.5906    5.6196 H         1 UNK         0.0808 
    151 H151      -47.7216  -20.9466    7.1994 H         1 UNK         0.0808 
    152 H152      -46.2404  -23.8775    5.7746 H         1 UNK         0.3098 
    153 H153      -46.0873  -25.9424    4.7472 H         1 UNK         0.0720 
    154 H154      -44.5470  -26.0878    6.7507 H         1 UNK         0.0791 
    155 H155      -45.4649  -27.4591    7.3626 H         1 UNK         0.0791 
    156 H156      -44.5552  -27.5997    5.8610 H         1 UNK         0.0791 
    157 H157      -48.1020  -27.6467    5.8667 H         1 UNK         0.3028 
@<TRIPOS>BOND
     1    1    2 1    
     2    1   82 1    
     3    1   83 1    
     4    1   84 1    
     5    2    3 2    
     6    2    4 am   BACKBONE|DICT|INTERRES
     7    4    5 1    
     8    4   85 1    
     9    5    6 1    
    10    5   80 1    
    11    5   86 1    
    12    6    7 1    
    13    6   87 1    
    14    6   88 1    
    15    7    8 1    
    16    8    9 1    
    17    8   89 1    
    18    8   90 1    
    19    9   10 ar   
    20    9   14 ar   
    21   10   11 ar   
    22   10   91 1    
    23   11   12 ar   
    24   11   58 1    
    25   12   13 ar   
    26   12   92 1    
    27   13   14 ar   
    28   13   15 1    
    29   14   93 1    
    30   15   16 1    
    31   15   94 1    
    32   15   95 1    
    33   16   17 1    
    34   17   18 1    
    35   17   96 1    
    36   17   97 1    
    37   18   19 1    
    38   18   22 1    
    39   18   98 1    
    40   19   20 am   BACKBONE|DICT|INTERRES
    41   19   21 2    
    42   20   99 1    
    43   20  100 1    
    44   22   23 am   BACKBONE|DICT|INTERRES
    45   22  101 1    
    46   23   24 2    
    47   23   25 1    
    48   25   26 1    
    49   25   27 1    
    50   25  102 1    
    51   26  103 1    
    52   26  104 1    
    53   26  105 1    
    54   27   28 am   BACKBONE|DICT|INTERRES
    55   27  106 1    
    56   28   29 2    
    57   28   30 1    
    58   30   31 1    
    59   30   32 1    
    60   30  107 1    
    61   31  108 1    
    62   31  109 1    
    63   31  110 1    
    64   32   33 am   BACKBONE|DICT|INTERRES
    65   32  111 1    
    66   33   34 2    
    67   33   35 1    
    68   35   36 1    
    69   35   37 1    
    70   35  112 1    
    71   36  113 1    
    72   36  114 1    
    73   36  115 1    
    74   37   38 am   BACKBONE|DICT|INTERRES
    75   37  116 1    
    76   38   39 2    
    77   38   40 1    
    78   40   41 1    
    79   40   42 1    
    80   40  117 1    
    81   41  118 1    
    82   41  119 1    
    83   41  120 1    
    84   42   43 am   BACKBONE|DICT|INTERRES
    85   42  121 1    
    86   43   44 2    
    87   43   45 1    
    88   45   46 1    
    89   45   47 1    
    90   45  122 1    
    91   46  123 1    
    92   46  124 1    
    93   46  125 1    
    94   47   48 am   BACKBONE|DICT|INTERRES
    95   47  126 1    
    96   48   49 2    
    97   48   50 1    
    98   50   51 1    
    99   50   52 1    
   100   50  127 1    
   101   51  128 1    
   102   51  129 1    
   103   51  130 1    
   104   52   53 am   BACKBONE|DICT|INTERRES
   105   52  131 1    
   106   53   54 2    
   107   53   55 1    
   108   55   56 1    
   109   55   59 1    
   110   55  132 1    
   111   56   57 1    
   112   56  133 1    
   113   56  134 1    
   114   57   58 1    
   115   58  135 1    
   116   58  136 1    
   117   59   60 am   BACKBONE|DICT|INTERRES
   118   59  137 1    
   119   60   61 2    
   120   60   62 1    
   121   62   63 1    
   122   62   64 1    
   123   62  138 1    
   124   63  139 1    
   125   63  140 1    
   126   63  141 1    
   127   64   65 am   BACKBONE|DICT|INTERRES
   128   64  142 1    
   129   65   66 2    
   130   65   67 1    
   131   67   68 1    
   132   67   69 1    
   133   67  143 1    
   134   68  144 1    
   135   68  145 1    
   136   68  146 1    
   137   69   70 am   BACKBONE|DICT|INTERRES
   138   69  147 1    
   139   70   71 2    
   140   70   72 1    
   141   72   73 1    
   142   72   74 1    
   143   72  148 1    
   144   73  149 1    
   145   73  150 1    
   146   73  151 1    
   147   74   75 am   BACKBONE|DICT|INTERRES
   148   74  152 1    
   149   75   76 2    
   150   75   77 1    
   151   77   78 1    
   152   77   79 1    
   153   77  153 1    
   154   78  154 1    
   155   78  155 1    
   156   78  156 1    
   157   79   80 am   BACKBONE|DICT|INTERRES
   158   79  157 1    
   159   80   81 2    
@<TRIPOS>SUBSTRUCTURE
     1 UNK         1 GROUP             0       ****    0 ROOT    
