@<TRIPOS>MOLECULE
3R207
157   159    1
SMALL
USER_CHARGES


@<TRIPOS>ATOM
      1 CA        -44.7992  -27.7595    9.4018 C.3       0 UNK        -0.1975 
      2 C         -45.9014  -27.5084    8.3852 C.2       0 UNK         0.4852 
      3 O         -45.8898  -26.4767    7.7117 O.2       0 UNK        -0.5216 
      4 N         -46.8383  -28.4581    8.2483 N.am      1 UNK        -0.4461 
      5 CA        -48.0261  -28.3913    7.3806 C.3       1 UNK         0.0864 
      6 C6        -49.0917  -27.3880    7.9019 C.3       14 UNK        -0.0898 
      7 S7        -49.6892  -27.8346    9.5705 S.3       14 UNK        -0.2598 
      8 C8        -51.3120  -28.5793    9.1935 C.3       14 UNK         0.0286 
      9 C9        -52.4748  -27.5950    9.2971 C.ar      14 UNK        -0.0844 
     10 C10       -52.4053  -26.3254    8.7157 C.ar      14 UNK        -0.0881 
     11 C11       -53.4861  -25.4413    8.7872 C.ar      14 UNK        -0.0643 
     12 C12       -54.6628  -25.8536    9.4192 C.ar      14 UNK        -0.0930 
     13 C13       -54.7594  -27.1264    9.9952 C.ar      14 UNK        -0.0827 
     14 C14       -53.6548  -27.9825    9.9396 C.ar      14 UNK        -0.1249 
     15 C15       -56.0607  -27.6467   10.6049 C.3       14 UNK         0.0141 
     16 S16       -57.1637  -26.3772   11.3259 S.3       14 UNK        -0.2313 
     17 C17       -56.2998  -25.7595   12.8175 C.3       14 UNK        -0.0915 
     18 CA        -55.4621  -26.7879   13.6353 C.3       13 UNK         0.0968 
     19 C         -54.8032  -26.1634   14.9030 C.2       13 UNK         0.5732 
     20 N         -54.6301  -26.9064   15.9917 N.am      13 UNK        -0.7310 
     21 O         -54.4317  -24.9930   14.8983 O.2       13 UNK        -0.5035 
     22 N         -56.1573  -28.0551   13.9064 N.am      13 UNK        -0.4233 
     23 C         -57.3008  -28.2218   14.5848 C.2       13 UNK         0.4989 
     24 O         -58.0122  -27.3011   14.9879 O.2       13 UNK        -0.4996 
     25 CA        -57.7117  -29.6752   14.8963 C.3       12 UNK         0.0216 
     26 CB        -58.7331  -30.1750   13.8616 C.3       12 UNK        -0.1964 
     27 N         -56.5806  -30.6104   14.9507 N.am      12 UNK        -0.4276 
     28 C         -55.5606  -30.5334   15.8175 C.2       12 UNK         0.5020 
     29 O         -55.4972  -29.6976   16.7205 O.2       12 UNK        -0.5489 
     30 CA        -54.3773  -31.4987   15.6173 C.3       11 UNK         0.0294 
     31 CB        -54.6121  -32.5880   14.5452 C.3       11 UNK        -0.2019 
     32 N         -53.1448  -30.7536   15.3342 N.am      11 UNK        -0.4493 
     33 C         -52.9239  -29.8874   14.3354 C.2       11 UNK         0.4932 
     34 O         -53.7567  -29.6325   13.4622 O.2       11 UNK        -0.5029 
     35 CA        -51.5414  -29.1988   14.3108 C.3       10 UNK         0.0280 
     36 CB        -51.3809  -28.2649   13.0971 C.3       10 UNK        -0.1976 
     37 N         -51.2246  -28.4519   15.5380 N.am      10 UNK        -0.4242 
     38 C         -50.8936  -29.0028   16.7186 C.2       10 UNK         0.5072 
     39 O         -50.8851  -30.2211   16.9084 O.2       10 UNK        -0.5224 
     40 CA        -50.4721  -28.0865   17.8859 C.3       9 UNK         0.0343 
     41 CB        -49.0055  -28.3487   18.2705 C.3       9 UNK        -0.2003 
     42 N         -50.6277  -26.6595   17.6102 N.am      9 UNK        -0.4272 
     43 C         -51.7588  -25.9596   17.7632 C.2       9 UNK         0.4988 
     44 O         -52.8023  -26.4344   18.2116 O.2       9 UNK        -0.5108 
     45 CA        -51.7362  -24.4768   17.3407 C.3       8 UNK         0.0248 
     46 CB        -51.6696  -23.5708   18.5814 C.3       8 UNK        -0.2001 
     47 N         -50.6571  -24.1032   16.4159 N.am      8 UNK        -0.4140 
     48 C         -50.4537  -24.6350   15.2029 C.2       8 UNK         0.5028 
     49 O         -51.1017  -25.5799   14.7501 O.2       8 UNK        -0.5428 
     50 CA        -49.2724  -24.0674   14.4023 C.3       7 UNK         0.0264 
     51 CB        -47.9830  -24.8337   14.7409 C.3       7 UNK        -0.1988 
     52 N         -49.5004  -24.1482   12.9603 N.am      7 UNK        -0.4454 
     53 C         -50.4021  -23.4387   12.2720 C.2       7 UNK         0.5027 
     54 O         -51.1233  -22.5819   12.7887 O.2       7 UNK        -0.5083 
     55 CA        -50.4693  -23.6935   10.7462 C.3       6 UNK         0.0844 
     56 C56       -51.6816  -22.9680   10.0985 C.3       14 UNK        -0.0967 
     57 S57       -51.8042  -23.2324    8.2950 S.3       14 UNK        -0.2604 
     58 C58       -53.4230  -24.0610    8.1381 C.3       14 UNK         0.0134 
     59 N         -49.2127  -23.3271   10.0806 N.am      6 UNK        -0.4116 
     60 C         -48.0311  -23.9506   10.1739 C.2       5 UNK         0.5034 
     61 O         -47.8287  -24.9553   10.8586 O.2       5 UNK        -0.5045 
     62 CA        -46.9000  -23.3635    9.3168 C.3       5 UNK         0.0224 
     63 CB        -45.5010  -23.7746    9.8094 C.3       5 UNK        -0.1978 
     64 N         -47.0770  -23.8014    7.9344 N.am      5 UNK        -0.4737 
     65 C         -47.8680  -23.1877    7.0433 C.2       4 UNK         0.5027 
     66 O         -48.4631  -22.1366    7.2883 O.2       4 UNK        -0.5211 
     67 CA        -48.0411  -23.8663    5.6697 C.3       4 UNK         0.0297 
     68 CB        -48.4823  -22.8854    4.5629 C.3       4 UNK        -0.1993 
     69 N         -46.8674  -24.6438    5.2572 N.am      4 UNK        -0.4486 
     70 C         -45.6263  -24.1892    5.0147 C.2       3 UNK         0.4961 
     71 O         -45.3215  -22.9959    5.0194 O.2       3 UNK        -0.5105 
     72 CA        -44.5238  -25.2321    4.7433 C.3       3 UNK         0.0299 
     73 CB        -43.3664  -25.0734    5.7460 C.3       3 UNK        -0.1972 
     74 N         -45.0273  -26.6048    4.8260 N.am      3 UNK        -0.4305 
     75 C         -45.4255  -27.3448    3.7816 C.2       2 UNK         0.5006 
     76 O         -45.3398  -26.9757    2.6099 O.2       2 UNK        -0.5106 
     77 CA        -46.0381  -28.7276    4.0838 C.3       2 UNK         0.0296 
     78 CB        -44.9908  -29.8335    3.8739 C.3       2 UNK        -0.2002 
     79 N         -46.6086  -28.8562    5.4298 N.am      2 UNK        -0.4032 
     80 C         -47.6524  -28.1548    5.8981 C.2       1 UNK         0.5000 
     81 O         -48.2582  -27.3177    5.2261 O.2       1 UNK        -0.5238 
     82 H82       -43.8389  -27.4295    9.0064 H         1 UNK         0.0889 
     83 H83       -44.7157  -28.8163    9.6542 H         1 UNK         0.0889 
     84 H84       -45.0021  -27.2044   10.3171 H         1 UNK         0.0889 
     85 H85       -46.7846  -29.2805    8.8332 H         1 UNK         0.3028 
     86 H86       -48.4769  -29.3848    7.4040 H         1 UNK         0.0864 
     87 H87       -48.6832  -26.3771    7.9441 H         1 UNK         0.0720 
     88 H88       -49.9407  -27.3428    7.2183 H         1 UNK         0.0720 
     89 H89       -51.4626  -29.4111    9.8825 H         1 UNK         0.0814 
     90 H90       -51.3019  -29.0202    8.1961 H         1 UNK         0.0814 
     91 H91       -51.5062  -26.0185    8.2034 H         1 UNK         0.1469 
     92 H92       -55.5133  -25.1868    9.4371 H         1 UNK         0.1381 
     93 H93       -53.7260  -28.9708   10.3743 H         1 UNK         0.1206 
     94 H94       -56.6152  -28.1437    9.8082 H         1 UNK         0.0813 
     95 H95       -55.8537  -28.4237   11.3394 H         1 UNK         0.0813 
     96 H96       -57.0527  -25.2984   13.4584 H         1 UNK         0.0638 
     97 H97       -55.6531  -24.9435   12.4904 H         1 UNK         0.0638 
     98 H98       -54.6119  -27.0624   13.0113 H         1 UNK         0.0568 
     99 H99       -54.1625  -26.5164   16.8006 H         1 UNK         0.3450 
    100 H100      -54.9612  -27.8630   16.0346 H         1 UNK         0.3450 
    101 H101      -55.6087  -28.8765   13.6753 H         1 UNK         0.2987 
    102 H102      -58.1880  -29.6750   15.8790 H         1 UNK         0.0766 
    103 H103      -59.6009  -29.5148   13.8208 H         1 UNK         0.0798 
    104 H104      -59.0986  -31.1714   14.1110 H         1 UNK         0.0798 
    105 H105      -58.3066  -30.2124   12.8582 H         1 UNK         0.0798 
    106 H106      -56.5387  -31.3169   14.2302 H         1 UNK         0.3198 
    107 H107      -54.2270  -32.0000   16.5747 H         1 UNK         0.0843 
    108 H108      -53.7652  -33.2727   14.4986 H         1 UNK         0.0831 
    109 H109      -54.7456  -32.1702   13.5466 H         1 UNK         0.0831 
    110 H110      -55.4909  -33.1907   14.7785 H         1 UNK         0.0831 
    111 H111      -52.4023  -30.8351   16.0265 H         1 UNK         0.3133 
    112 H112      -50.8002  -29.9932   14.2033 H         1 UNK         0.0566 
    113 H113      -50.3833  -27.8274   13.0545 H         1 UNK         0.0814 
    114 H114      -52.1034  -27.4483   13.1160 H         1 UNK         0.0814 
    115 H115      -51.5339  -28.8089   12.1660 H         1 UNK         0.0814 
    116 H116      -51.2322  -27.4386   15.4499 H         1 UNK         0.3091 
    117 H117      -51.0973  -28.3509   18.7415 H         1 UNK         0.0702 
    118 H118      -48.7086  -27.7520   19.1333 H         1 UNK         0.0785 
    119 H119      -48.3250  -28.1166   17.4502 H         1 UNK         0.0785 
    120 H120      -48.8499  -29.3953   18.5364 H         1 UNK         0.0785 
    121 H121      -49.8250  -26.1828   17.2270 H         1 UNK         0.2998 
    122 H122      -52.6792  -24.2798   16.8279 H         1 UNK         0.0697 
    123 H123      -50.7313  -23.6961   19.1231 H         1 UNK         0.0825 
    124 H124      -52.4793  -23.7991   19.2762 H         1 UNK         0.0825 
    125 H125      -51.7666  -22.5187   18.3124 H         1 UNK         0.0825 
    126 H126      -50.0542  -23.3511   16.7181 H         1 UNK         0.3029 
    127 H127      -49.1405  -23.0154   14.6644 H         1 UNK         0.0897 
    128 H128      -48.0689  -25.8933   14.4947 H         1 UNK         0.0792 
    129 H129      -47.7484  -24.7624   15.8038 H         1 UNK         0.0792 
    130 H130      -47.1286  -24.4328   14.1948 H         1 UNK         0.0792 
    131 H131      -48.9135  -24.7889   12.4328 H         1 UNK         0.3086 
    132 H132      -50.6136  -24.7678   10.6109 H         1 UNK         0.0583 
    133 H133      -52.6094  -23.2920   10.5744 H         1 UNK         0.1020 
    134 H134      -51.6195  -21.8913   10.2683 H         1 UNK         0.1020 
    135 H135      -54.1884  -23.4051    8.5559 H         1 UNK         0.0694 
    136 H136      -53.6546  -24.1694    7.0779 H         1 UNK         0.0694 
    137 H137      -49.2793  -22.5545    9.4304 H         1 UNK         0.2989 
    138 H138      -46.9587  -22.2738    9.3719 H         1 UNK         0.1055 
    139 H139      -44.7187  -23.3343    9.1910 H         1 UNK         0.0806 
    140 H140      -45.3650  -24.8547    9.7978 H         1 UNK         0.0806 
    141 H141      -45.3359  -23.4382   10.8337 H         1 UNK         0.0806 
    142 H142      -46.6491  -24.6916    7.6884 H         1 UNK         0.3061 
    143 H143      -48.8460  -24.5913    5.8003 H         1 UNK         0.0734 
    144 H144      -47.7627  -22.0780    4.4252 H         1 UNK         0.0832 
    145 H145      -48.6055  -23.3944    3.6071 H         1 UNK         0.0832 
    146 H146      -49.4402  -22.4258    4.8097 H         1 UNK         0.0832 
    147 H147      -47.0220  -25.6456    5.2211 H         1 UNK         0.3156 
    148 H148      -44.1320  -25.0377    3.7429 H         1 UNK         0.0589 
    149 H149      -42.5776  -25.8025    5.5606 H         1 UNK         0.0808 
    150 H150      -42.9143  -24.0837    5.6692 H         1 UNK         0.0808 
    151 H151      -43.7029  -25.1967    6.7761 H         1 UNK         0.0808 
    152 H152      -45.1766  -26.9562    5.7650 H         1 UNK         0.3098 
    153 H153      -46.8476  -28.8837    3.3675 H         1 UNK         0.0720 
    154 H154      -44.5682  -29.7857    2.8691 H         1 UNK         0.0791 
    155 H155      -45.4297  -30.8246    3.9905 H         1 UNK         0.0791 
    156 H156      -44.1634  -29.7456    4.5793 H         1 UNK         0.0791 
    157 H157      -46.1547  -29.5078    6.0541 H         1 UNK         0.3028 
@<TRIPOS>BOND
     1    1    2 1    
     2    1   82 1    
     3    1   83 1    
     4    1   84 1    
     5    2    3 2    
     6    2    4 am   BACKBONE|DICT|INTERRES
     7    4    5 1    
     8    4   85 1    
     9    5    6 1    
    10    5   80 1    
    11    5   86 1    
    12    6    7 1    
    13    6   87 1    
    14    6   88 1    
    15    7    8 1    
    16    8    9 1    
    17    8   89 1    
    18    8   90 1    
    19    9   10 ar   
    20    9   14 ar   
    21   10   11 ar   
    22   10   91 1    
    23   11   12 ar   
    24   11   58 1    
    25   12   13 ar   
    26   12   92 1    
    27   13   14 ar   
    28   13   15 1    
    29   14   93 1    
    30   15   16 1    
    31   15   94 1    
    32   15   95 1    
    33   16   17 1    
    34   17   18 1    
    35   17   96 1    
    36   17   97 1    
    37   18   19 1    
    38   18   22 1    
    39   18   98 1    
    40   19   20 am   BACKBONE|DICT|INTERRES
    41   19   21 2    
    42   20   99 1    
    43   20  100 1    
    44   22   23 am   BACKBONE|DICT|INTERRES
    45   22  101 1    
    46   23   24 2    
    47   23   25 1    
    48   25   26 1    
    49   25   27 1    
    50   25  102 1    
    51   26  103 1    
    52   26  104 1    
    53   26  105 1    
    54   27   28 am   BACKBONE|DICT|INTERRES
    55   27  106 1    
    56   28   29 2    
    57   28   30 1    
    58   30   31 1    
    59   30   32 1    
    60   30  107 1    
    61   31  108 1    
    62   31  109 1    
    63   31  110 1    
    64   32   33 am   BACKBONE|DICT|INTERRES
    65   32  111 1    
    66   33   34 2    
    67   33   35 1    
    68   35   36 1    
    69   35   37 1    
    70   35  112 1    
    71   36  113 1    
    72   36  114 1    
    73   36  115 1    
    74   37   38 am   BACKBONE|DICT|INTERRES
    75   37  116 1    
    76   38   39 2    
    77   38   40 1    
    78   40   41 1    
    79   40   42 1    
    80   40  117 1    
    81   41  118 1    
    82   41  119 1    
    83   41  120 1    
    84   42   43 am   BACKBONE|DICT|INTERRES
    85   42  121 1    
    86   43   44 2    
    87   43   45 1    
    88   45   46 1    
    89   45   47 1    
    90   45  122 1    
    91   46  123 1    
    92   46  124 1    
    93   46  125 1    
    94   47   48 am   BACKBONE|DICT|INTERRES
    95   47  126 1    
    96   48   49 2    
    97   48   50 1    
    98   50   51 1    
    99   50   52 1    
   100   50  127 1    
   101   51  128 1    
   102   51  129 1    
   103   51  130 1    
   104   52   53 am   BACKBONE|DICT|INTERRES
   105   52  131 1    
   106   53   54 2    
   107   53   55 1    
   108   55   56 1    
   109   55   59 1    
   110   55  132 1    
   111   56   57 1    
   112   56  133 1    
   113   56  134 1    
   114   57   58 1    
   115   58  135 1    
   116   58  136 1    
   117   59   60 am   BACKBONE|DICT|INTERRES
   118   59  137 1    
   119   60   61 2    
   120   60   62 1    
   121   62   63 1    
   122   62   64 1    
   123   62  138 1    
   124   63  139 1    
   125   63  140 1    
   126   63  141 1    
   127   64   65 am   BACKBONE|DICT|INTERRES
   128   64  142 1    
   129   65   66 2    
   130   65   67 1    
   131   67   68 1    
   132   67   69 1    
   133   67  143 1    
   134   68  144 1    
   135   68  145 1    
   136   68  146 1    
   137   69   70 am   BACKBONE|DICT|INTERRES
   138   69  147 1    
   139   70   71 2    
   140   70   72 1    
   141   72   73 1    
   142   72   74 1    
   143   72  148 1    
   144   73  149 1    
   145   73  150 1    
   146   73  151 1    
   147   74   75 am   BACKBONE|DICT|INTERRES
   148   74  152 1    
   149   75   76 2    
   150   75   77 1    
   151   77   78 1    
   152   77   79 1    
   153   77  153 1    
   154   78  154 1    
   155   78  155 1    
   156   78  156 1    
   157   79   80 am   BACKBONE|DICT|INTERRES
   158   79  157 1    
   159   80   81 2    
@<TRIPOS>SUBSTRUCTURE
     1 UNK         1 GROUP             0       ****    0 ROOT    
