@<TRIPOS>MOLECULE
3R207
157   159    1
SMALL
USER_CHARGES


@<TRIPOS>ATOM
      1 CA        -46.2838  -27.3514    3.8066 C.3       0 UNK        -0.1975 
      2 C         -47.1736  -26.1802    4.1934 C.2       0 UNK         0.4852 
      3 O         -46.7677  -25.0284    4.0284 O.2       0 UNK        -0.5216 
      4 N         -48.3759  -26.4681    4.7141 N.am      1 UNK        -0.4461 
      5 CA        -49.3785  -25.5064    5.1937 C.3       1 UNK         0.0864 
      6 C6        -50.6012  -26.2244    5.8165 C.3       14 UNK        -0.0898 
      7 S7        -51.4723  -27.3144    4.6477 S.3       14 UNK        -0.2598 
      8 C8        -53.0662  -27.5454    5.5164 C.3       14 UNK         0.0286 
      9 C9        -53.0076  -28.3303    6.8315 C.ar      14 UNK        -0.0844 
     10 C10       -51.9626  -29.2120    7.1398 C.ar      14 UNK        -0.0881 
     11 C11       -51.9666  -29.9393    8.3341 C.ar      14 UNK        -0.0643 
     12 C12       -53.0344  -29.7966    9.2237 C.ar      14 UNK        -0.0930 
     13 C13       -54.0881  -28.9256    8.9320 C.ar      14 UNK        -0.0827 
     14 C14       -54.0638  -28.1940    7.7399 C.ar      14 UNK        -0.1249 
     15 C15       -55.2865  -28.8235    9.8678 C.3       14 UNK         0.0141 
     16 S16       -55.1480  -27.4575   11.0665 S.3       14 UNK        -0.2313 
     17 C17       -53.9619  -28.1306   12.2775 C.3       14 UNK        -0.0915 
     18 CA        -54.6054  -29.0917   13.3088 C.3       13 UNK         0.0968 
     19 C         -53.5311  -29.8411   14.1513 C.2       13 UNK         0.5732 
     20 N         -53.6072  -29.8714   15.4772 N.am      13 UNK        -0.7310 
     21 O         -52.6207  -30.4418   13.5852 O.2       13 UNK        -0.5035 
     22 N         -55.6342  -28.4128   14.1116 N.am      13 UNK        -0.4233 
     23 C         -56.7564  -28.9951   14.5481 C.2       13 UNK         0.4989 
     24 O         -57.0740  -30.1554   14.2775 O.2       13 UNK        -0.4996 
     25 CA        -57.6723  -28.1341   15.4434 C.3       12 UNK         0.0216 
     26 CB        -58.8019  -28.9572   16.0989 C.3       12 UNK        -0.1964 
     27 N         -56.9594  -27.3634   16.4728 N.am      12 UNK        -0.4276 
     28 C         -56.0906  -27.8185   17.3865 C.2       12 UNK         0.5020 
     29 O         -55.6517  -28.9698   17.4036 O.2       12 UNK        -0.5489 
     30 CA        -55.6301  -26.8050   18.4535 C.3       11 UNK         0.0294 
     31 CB        -54.7747  -27.4589   19.5553 C.3       11 UNK        -0.2019 
     32 N         -54.8782  -25.6878   17.8802 N.am      11 UNK        -0.4493 
     33 C         -55.3881  -24.6669   17.1774 C.2       11 UNK         0.4932 
     34 O         -56.5872  -24.5540   16.9181 O.2       11 UNK        -0.5029 
     35 CA        -54.4046  -23.5895   16.6825 C.3       10 UNK         0.0280 
     36 CB        -54.5176  -22.3246   17.5490 C.3       10 UNK        -0.1976 
     37 N         -53.0070  -24.0361   16.6637 N.am      10 UNK        -0.4242 
     38 C         -52.5025  -24.9054   15.7788 C.2       10 UNK         0.5072 
     39 O         -53.1588  -25.4170   14.8693 O.2       10 UNK        -0.5224 
     40 CA        -51.0315  -25.2984   15.9737 C.3       9 UNK         0.0343 
     41 CB        -50.9144  -26.7703   16.4060 C.3       9 UNK        -0.2003 
     42 N         -50.2945  -25.0879   14.7296 N.am      9 UNK        -0.4272 
     43 C         -49.7714  -23.9083   14.3589 C.2       9 UNK         0.4988 
     44 O         -49.7895  -22.9059   15.0752 O.2       9 UNK        -0.5108 
     45 CA        -49.1139  -23.8049   12.9674 C.3       8 UNK         0.0248 
     46 CB        -47.5849  -23.9135   13.0817 C.3       8 UNK        -0.2001 
     47 N         -49.6007  -24.8049   12.0174 N.am      8 UNK        -0.4140 
     48 C         -50.8448  -24.8359   11.5195 C.2       8 UNK         0.5028 
     49 O         -51.6708  -23.9389   11.6936 O.2       8 UNK        -0.5428 
     50 CA        -51.2523  -26.0813   10.7120 C.3       7 UNK         0.0264 
     51 CB        -51.2903  -25.7700    9.2142 C.3       7 UNK        -0.1988 
     52 N         -50.4114  -27.2630   10.9415 N.am      7 UNK        -0.4454 
     53 C         -50.3080  -27.9096   12.1106 C.2       7 UNK         0.5027 
     54 O         -50.8620  -27.5368   13.1424 O.2       7 UNK        -0.5083 
     55 CA        -49.3870  -29.1423   12.1504 C.3       6 UNK         0.0844 
     56 C56       -49.8688  -30.2916   11.2263 C.3       14 UNK        -0.0967 
     57 S57       -49.4390  -30.0816    9.4607 S.3       14 UNK        -0.2604 
     58 C58       -50.8327  -30.9078    8.6340 C.3       14 UNK         0.0134 
     59 N         -47.9895  -28.7712   11.9193 N.am      6 UNK        -0.4116 
     60 C         -47.2466  -27.9986   12.7240 C.2       5 UNK         0.5034 
     61 O         -47.6383  -27.5492   13.8004 O.2       5 UNK        -0.5045 
     62 CA        -45.8182  -27.6672   12.2567 C.3       5 UNK         0.0224 
     63 CB        -44.8018  -28.5949   12.9423 C.3       5 UNK        -0.1978 
     64 N         -45.6321  -27.7390   10.8031 N.am      5 UNK        -0.4737 
     65 C         -46.1612  -26.8758    9.9269 C.2       4 UNK         0.5027 
     66 O         -46.9105  -25.9509   10.2465 O.2       4 UNK        -0.5211 
     67 CA        -45.8229  -27.1261    8.4510 C.3       4 UNK         0.0297 
     68 CB        -46.9213  -27.9674    7.7820 C.3       4 UNK        -0.1993 
     69 N         -45.6738  -25.8605    7.7318 N.am      4 UNK        -0.4486 
     70 C         -44.5018  -25.2337    7.5484 C.2       3 UNK         0.4961 
     71 O         -43.4340  -25.6642    7.9874 O.2       3 UNK        -0.5105 
     72 CA        -44.4750  -23.9334    6.7192 C.3       3 UNK         0.0299 
     73 CB        -43.6835  -24.1447    5.4167 C.3       3 UNK        -0.1972 
     74 N         -45.8076  -23.4328    6.3805 N.am      3 UNK        -0.4305 
     75 C         -46.5071  -22.5650    7.1266 C.2       2 UNK         0.5006 
     76 O         -46.0671  -22.0319    8.1461 O.2       2 UNK        -0.5106 
     77 CA        -47.9473  -22.2343    6.6776 C.3       2 UNK         0.0296 
     78 CB        -47.9793  -20.8936    5.9253 C.3       2 UNK        -0.2002 
     79 N         -48.5892  -23.2652    5.8515 N.am      2 UNK        -0.4032 
     80 C         -48.7636  -24.5405    6.2247 C.2       1 UNK         0.5000 
     81 O         -48.3995  -24.9821    7.3137 O.2       1 UNK        -0.5238 
     82 H82       -45.9974  -27.2742    2.7582 H         1 UNK         0.0889 
     83 H83       -46.7831  -28.3091    3.9524 H         1 UNK         0.0889 
     84 H84       -45.3764  -27.3454    4.4101 H         1 UNK         0.0889 
     85 H85       -48.6473  -27.4357    4.8105 H         1 UNK         0.3028 
     86 H86       -49.7185  -24.9288    4.3318 H         1 UNK         0.0864 
     87 H87       -50.2917  -26.8306    6.6698 H         1 UNK         0.0720 
     88 H88       -51.3164  -25.4924    6.1973 H         1 UNK         0.0720 
     89 H89       -53.7466  -28.0672    4.8423 H         1 UNK         0.0814 
     90 H90       -53.5071  -26.5631    5.6937 H         1 UNK         0.0814 
     91 H91       -51.1424  -29.3489    6.4500 H         1 UNK         0.1469 
     92 H92       -53.0549  -30.3785   10.1346 H         1 UNK         0.1381 
     93 H93       -54.8858  -27.5299    7.5090 H         1 UNK         0.1206 
     94 H94       -55.4380  -29.7656   10.3957 H         1 UNK         0.0813 
     95 H95       -56.1911  -28.6692    9.2777 H         1 UNK         0.0813 
     96 H96       -53.5047  -27.2891   12.8000 H         1 UNK         0.0638 
     97 H97       -53.1568  -28.6196   11.7309 H         1 UNK         0.0638 
     98 H98       -55.0908  -29.8823   12.7351 H         1 UNK         0.0568 
     99 H99       -52.9028  -30.3760   15.9895 H         1 UNK         0.3450 
    100 H100      -54.3827  -29.4501   15.9782 H         1 UNK         0.3450 
    101 H101      -55.4240  -27.4664   14.3935 H         1 UNK         0.2987 
    102 H102      -58.1386  -27.4035   14.7808 H         1 UNK         0.0766 
    103 H103      -59.4657  -28.3231   16.6866 H         1 UNK         0.0798 
    104 H104      -58.4050  -29.7296   16.7589 H         1 UNK         0.0798 
    105 H105      -59.4156  -29.4539   15.3462 H         1 UNK         0.0798 
    106 H106      -57.1730  -26.3694   16.5149 H         1 UNK         0.3198 
    107 H107      -56.5307  -26.4078   18.9273 H         1 UNK         0.0843 
    108 H108      -53.8446  -27.8672   19.1575 H         1 UNK         0.0831 
    109 H109      -55.3129  -28.2801   20.0309 H         1 UNK         0.0831 
    110 H110      -54.5212  -26.7450   20.3392 H         1 UNK         0.0831 
    111 H111      -53.8792  -25.7045   18.0199 H         1 UNK         0.3133 
    112 H112      -54.6936  -23.3290   15.6620 H         1 UNK         0.0566 
    113 H113      -54.2345  -22.5161   18.5849 H         1 UNK         0.0814 
    114 H114      -53.8828  -21.5240   17.1686 H         1 UNK         0.0814 
    115 H115      -55.5411  -21.9466   17.5564 H         1 UNK         0.0814 
    116 H116      -52.3981  -23.6529   17.3735 H         1 UNK         0.3091 
    117 H117      -50.5881  -24.6844   16.7607 H         1 UNK         0.0702 
    118 H118      -49.8719  -27.0807   16.4806 H         1 UNK         0.0785 
    119 H119      -51.4123  -27.4416   15.7051 H         1 UNK         0.0785 
    120 H120      -51.3728  -26.9274   17.3829 H         1 UNK         0.0785 
    121 H121      -50.3137  -25.8607   14.0699 H         1 UNK         0.2998 
    122 H122      -49.3540  -22.8188   12.5646 H         1 UNK         0.0697 
    123 H123      -47.2794  -24.8714   13.5023 H         1 UNK         0.0825 
    124 H124      -47.1868  -23.1323   13.7306 H         1 UNK         0.0825 
    125 H125      -47.1036  -23.8038   12.1094 H         1 UNK         0.0825 
    126 H126      -48.9683  -25.5560   11.7765 H         1 UNK         0.3029 
    127 H127      -52.2669  -26.3327   11.0199 H         1 UNK         0.0897 
    128 H128      -50.2962  -25.5364    8.8405 H         1 UNK         0.0792 
    129 H129      -51.9329  -24.9142    9.0035 H         1 UNK         0.0792 
    130 H130      -51.6808  -26.6152    8.6501 H         1 UNK         0.0792 
    131 H131      -49.9209  -27.6393   10.1417 H         1 UNK         0.3086 
    132 H132      -49.4427  -29.5253   13.1721 H         1 UNK         0.0583 
    133 H133      -49.4161  -31.2271   11.5585 H         1 UNK         0.1020 
    134 H134      -50.9443  -30.4409   11.3374 H         1 UNK         0.1020 
    135 H135      -50.4714  -31.3450    7.7020 H         1 UNK         0.0694 
    136 H136      -51.1868  -31.7442    9.2387 H         1 UNK         0.0694 
    137 H137      -47.5859  -29.0881   11.0502 H         1 UNK         0.2989 
    138 H138      -45.6096  -26.6417   12.5706 H         1 UNK         0.1055 
    139 H139      -44.8955  -28.5419   14.0281 H         1 UNK         0.0806 
    140 H140      -43.7777  -28.3147   12.6949 H         1 UNK         0.0806 
    141 H141      -44.9455  -29.6371   12.6540 H         1 UNK         0.0806 
    142 H142      -45.0331  -28.4767   10.4591 H         1 UNK         0.3061 
    143 H143      -44.8899  -27.6910    8.3908 H         1 UNK         0.0734 
    144 H144      -46.9729  -28.9597    8.2298 H         1 UNK         0.0832 
    145 H145      -46.7237  -28.1078    6.7203 H         1 UNK         0.0832 
    146 H146      -47.9066  -27.5111    7.8849 H         1 UNK         0.0832 
    147 H147      -46.5430  -25.4010    7.4703 H         1 UNK         0.3156 
    148 H148      -43.9445  -23.1847    7.3111 H         1 UNK         0.0589 
    149 H149      -44.1343  -24.9140    4.7891 H         1 UNK         0.0808 
    150 H150      -43.6274  -23.2259    4.8327 H         1 UNK         0.0808 
    151 H151      -42.6592  -24.4559    5.6265 H         1 UNK         0.0808 
    152 H152      -46.2422  -23.8362    5.5545 H         1 UNK         0.3098 
    153 H153      -48.5460  -22.1309    7.5850 H         1 UNK         0.0720 
    154 H154      -49.0009  -20.5904    5.6950 H         1 UNK         0.0791 
    155 H155      -47.4224  -20.9438    4.9887 H         1 UNK         0.0791 
    156 H156      -47.5358  -20.0978    6.5257 H         1 UNK         0.0791 
    157 H157      -48.8693  -22.9877    4.9215 H         1 UNK         0.3028 
@<TRIPOS>BOND
     1    1    2 1    
     2    1   82 1    
     3    1   83 1    
     4    1   84 1    
     5    2    3 2    
     6    2    4 am   BACKBONE|DICT|INTERRES
     7    4    5 1    
     8    4   85 1    
     9    5    6 1    
    10    5   80 1    
    11    5   86 1    
    12    6    7 1    
    13    6   87 1    
    14    6   88 1    
    15    7    8 1    
    16    8    9 1    
    17    8   89 1    
    18    8   90 1    
    19    9   10 ar   
    20    9   14 ar   
    21   10   11 ar   
    22   10   91 1    
    23   11   12 ar   
    24   11   58 1    
    25   12   13 ar   
    26   12   92 1    
    27   13   14 ar   
    28   13   15 1    
    29   14   93 1    
    30   15   16 1    
    31   15   94 1    
    32   15   95 1    
    33   16   17 1    
    34   17   18 1    
    35   17   96 1    
    36   17   97 1    
    37   18   19 1    
    38   18   22 1    
    39   18   98 1    
    40   19   20 am   BACKBONE|DICT|INTERRES
    41   19   21 2    
    42   20   99 1    
    43   20  100 1    
    44   22   23 am   BACKBONE|DICT|INTERRES
    45   22  101 1    
    46   23   24 2    
    47   23   25 1    
    48   25   26 1    
    49   25   27 1    
    50   25  102 1    
    51   26  103 1    
    52   26  104 1    
    53   26  105 1    
    54   27   28 am   BACKBONE|DICT|INTERRES
    55   27  106 1    
    56   28   29 2    
    57   28   30 1    
    58   30   31 1    
    59   30   32 1    
    60   30  107 1    
    61   31  108 1    
    62   31  109 1    
    63   31  110 1    
    64   32   33 am   BACKBONE|DICT|INTERRES
    65   32  111 1    
    66   33   34 2    
    67   33   35 1    
    68   35   36 1    
    69   35   37 1    
    70   35  112 1    
    71   36  113 1    
    72   36  114 1    
    73   36  115 1    
    74   37   38 am   BACKBONE|DICT|INTERRES
    75   37  116 1    
    76   38   39 2    
    77   38   40 1    
    78   40   41 1    
    79   40   42 1    
    80   40  117 1    
    81   41  118 1    
    82   41  119 1    
    83   41  120 1    
    84   42   43 am   BACKBONE|DICT|INTERRES
    85   42  121 1    
    86   43   44 2    
    87   43   45 1    
    88   45   46 1    
    89   45   47 1    
    90   45  122 1    
    91   46  123 1    
    92   46  124 1    
    93   46  125 1    
    94   47   48 am   BACKBONE|DICT|INTERRES
    95   47  126 1    
    96   48   49 2    
    97   48   50 1    
    98   50   51 1    
    99   50   52 1    
   100   50  127 1    
   101   51  128 1    
   102   51  129 1    
   103   51  130 1    
   104   52   53 am   BACKBONE|DICT|INTERRES
   105   52  131 1    
   106   53   54 2    
   107   53   55 1    
   108   55   56 1    
   109   55   59 1    
   110   55  132 1    
   111   56   57 1    
   112   56  133 1    
   113   56  134 1    
   114   57   58 1    
   115   58  135 1    
   116   58  136 1    
   117   59   60 am   BACKBONE|DICT|INTERRES
   118   59  137 1    
   119   60   61 2    
   120   60   62 1    
   121   62   63 1    
   122   62   64 1    
   123   62  138 1    
   124   63  139 1    
   125   63  140 1    
   126   63  141 1    
   127   64   65 am   BACKBONE|DICT|INTERRES
   128   64  142 1    
   129   65   66 2    
   130   65   67 1    
   131   67   68 1    
   132   67   69 1    
   133   67  143 1    
   134   68  144 1    
   135   68  145 1    
   136   68  146 1    
   137   69   70 am   BACKBONE|DICT|INTERRES
   138   69  147 1    
   139   70   71 2    
   140   70   72 1    
   141   72   73 1    
   142   72   74 1    
   143   72  148 1    
   144   73  149 1    
   145   73  150 1    
   146   73  151 1    
   147   74   75 am   BACKBONE|DICT|INTERRES
   148   74  152 1    
   149   75   76 2    
   150   75   77 1    
   151   77   78 1    
   152   77   79 1    
   153   77  153 1    
   154   78  154 1    
   155   78  155 1    
   156   78  156 1    
   157   79   80 am   BACKBONE|DICT|INTERRES
   158   79  157 1    
   159   80   81 2    
@<TRIPOS>SUBSTRUCTURE
     1 UNK         1 GROUP             0       ****    0 ROOT    
