@<TRIPOS>MOLECULE
3R207
157   159    1
SMALL
USER_CHARGES


@<TRIPOS>ATOM
      1 CA        -49.4393  -28.1939    5.5991 C.3       0 UNK        -0.1975 
      2 C         -50.3007  -27.6322    4.4681 C.2       0 UNK         0.4852 
      3 O         -50.8251  -28.4220    3.6862 O.2       0 UNK        -0.5216 
      4 N         -50.4809  -26.3101    4.3039 N.am      1 UNK        -0.4461 
      5 CA        -49.9967  -25.1654    5.0959 C.3       1 UNK         0.0864 
      6 C6        -50.7171  -24.9984    6.4636 C.3       14 UNK        -0.0898 
      7 S7        -52.4965  -24.6317    6.2897 S.3       14 UNK        -0.2598 
      8 C8        -53.2852  -26.2541    6.5453 C.3       14 UNK         0.0286 
      9 C9        -53.1069  -26.7829    7.9618 C.ar      14 UNK        -0.0844 
     10 C10       -52.2014  -27.8151    8.2165 C.ar      14 UNK        -0.0881 
     11 C11       -52.0486  -28.3311    9.5054 C.ar      14 UNK        -0.0643 
     12 C12       -52.8283  -27.8186   10.5475 C.ar      14 UNK        -0.0930 
     13 C13       -53.7386  -26.7821   10.3066 C.ar      14 UNK        -0.0827 
     14 C14       -53.8678  -26.2653    9.0132 C.ar      14 UNK        -0.1249 
     15 C15       -54.5564  -26.1893   11.4464 C.3       14 UNK         0.0141 
     16 S16       -56.3412  -26.4928   11.2563 S.3       14 UNK        -0.2313 
     17 C17       -56.4688  -28.2247   11.8060 C.3       14 UNK        -0.0915 
     18 CA        -57.0308  -28.3480   13.2559 C.3       13 UNK         0.0968 
     19 C         -58.5878  -28.4196   13.3249 C.2       13 UNK         0.5732 
     20 N         -59.1717  -29.1399   14.2757 N.am      13 UNK        -0.7310 
     21 O         -59.2839  -27.7934   12.5293 O.2       13 UNK        -0.5035 
     22 N         -56.3287  -29.3804   14.0330 N.am      13 UNK        -0.4233 
     23 C         -56.2660  -30.6863   13.7310 C.2       13 UNK         0.4989 
     24 O         -56.8637  -31.1976   12.7825 O.2       13 UNK        -0.4996 
     25 CA        -55.3927  -31.5743   14.6448 C.3       12 UNK         0.0216 
     26 CB        -54.7985  -32.7894   13.8997 C.3       12 UNK        -0.1964 
     27 N         -54.3433  -30.8298   15.3557 N.am      12 UNK        -0.4276 
     28 C         -53.3341  -30.1336   14.8118 C.2       12 UNK         0.5020 
     29 O         -53.0841  -30.0794   13.6059 O.2       12 UNK        -0.5489 
     30 CA        -52.4872  -29.3135   15.7922 C.3       11 UNK         0.0294 
     31 CB        -51.0055  -29.7171   15.7295 C.3       11 UNK        -0.2019 
     32 N         -52.6204  -27.8861   15.5099 N.am      11 UNK        -0.4493 
     33 C         -53.7178  -27.1468   15.7237 C.2       11 UNK         0.4932 
     34 O         -54.7838  -27.6147   16.1311 O.2       11 UNK        -0.5029 
     35 CA        -53.5872  -25.6333   15.4413 C.3       10 UNK         0.0280 
     36 CB        -54.6694  -24.7894   16.1458 C.3       10 UNK        -0.1976 
     37 N         -52.2361  -25.1266   15.7232 N.am      10 UNK        -0.4242 
     38 C         -51.5973  -25.1112   16.9038 C.2       10 UNK         0.5072 
     39 O         -52.1318  -25.3763   17.9813 O.2       10 UNK        -0.5224 
     40 CA        -50.0879  -24.8020   16.8852 C.3       9 UNK         0.0343 
     41 CB        -49.2860  -26.1048   17.0425 C.3       9 UNK        -0.2003 
     42 N         -49.6336  -24.1146   15.6731 N.am      9 UNK        -0.4272 
     43 C         -49.8295  -22.8126   15.4212 C.2       9 UNK         0.4988 
     44 O         -50.3928  -22.0411   16.1984 O.2       9 UNK        -0.5108 
     45 CA        -49.3272  -22.2849   14.0655 C.3       8 UNK         0.0248 
     46 CB        -47.8129  -22.0226   14.1071 C.3       8 UNK        -0.2001 
     47 N         -49.6390  -23.1859   12.9535 N.am      8 UNK        -0.4140 
     48 C         -50.8785  -23.4960   12.5470 C.2       8 UNK         0.5028 
     49 O         -51.9031  -23.0144   13.0303 O.2       8 UNK        -0.5428 
     50 CA        -51.0010  -24.5637   11.4518 C.3       7 UNK         0.0264 
     51 CB        -50.8023  -23.9707   10.0505 C.3       7 UNK        -0.1988 
     52 N         -50.0801  -25.6801   11.6597 N.am      7 UNK        -0.4454 
     53 C         -50.2096  -26.5846   12.6403 C.2       7 UNK         0.5027 
     54 O         -51.1320  -26.5832   13.4533 O.2       7 UNK        -0.5083 
     55 CA        -49.1029  -27.6453   12.7784 C.3       6 UNK         0.0844 
     56 C56       -49.4382  -28.9511   12.0195 C.3       14 UNK        -0.0967 
     57 S57       -49.4028  -28.8207   10.1961 S.3       14 UNK        -0.2604 
     58 C58       -51.0532  -29.4558    9.7483 C.3       14 UNK         0.0134 
     59 N         -47.7747  -27.1129   12.4662 N.am      6 UNK        -0.4116 
     60 C         -47.1532  -26.1908   13.2154 C.2       5 UNK         0.5034 
     61 O         -47.6303  -25.7033   14.2406 O.2       5 UNK        -0.5045 
     62 CA        -45.7896  -25.6959   12.7162 C.3       5 UNK         0.0224 
     63 CB        -44.6859  -26.7146   13.0416 C.3       5 UNK        -0.1978 
     64 N         -45.7632  -25.3838   11.2854 N.am      5 UNK        -0.4737 
     65 C         -46.5295  -24.4788   10.6666 C.2       4 UNK         0.5027 
     66 O         -47.4413  -23.8674   11.2226 O.2       4 UNK        -0.5211 
     67 CA        -46.2270  -24.1907    9.1858 C.3       4 UNK         0.0297 
     68 CB        -44.9764  -23.3029    9.0452 C.3       4 UNK        -0.1993 
     69 N         -46.1408  -25.3687    8.3113 N.am      4 UNK        -0.4486 
     70 C         -45.2730  -26.3940    8.3351 C.2       3 UNK         0.4961 
     71 O         -44.3838  -26.5279    9.1767 O.2       3 UNK        -0.5105 
     72 CA        -45.4162  -27.4635    7.2343 C.3       3 UNK         0.0299 
     73 CB        -46.2600  -28.6416    7.7478 C.3       3 UNK        -0.1972 
     74 N         -46.0068  -26.9537    5.9939 N.am      3 UNK        -0.4305 
     75 C         -45.4346  -26.0566    5.1781 C.2       2 UNK         0.5006 
     76 O         -44.2862  -25.6366    5.3238 O.2       2 UNK        -0.5106 
     77 CA        -46.2840  -25.5177    4.0082 C.3       2 UNK         0.0296 
     78 CB        -45.9027  -26.2353    2.7026 C.3       2 UNK        -0.2002 
     79 N         -47.7443  -25.5840    4.1792 N.am      2 UNK        -0.4032 
     80 C         -48.4554  -25.0768    5.1998 C.2       1 UNK         0.5000 
     81 O         -47.9384  -24.5729    6.1976 O.2       1 UNK        -0.5238 
     82 H82       -49.9097  -29.0856    6.0127 H         1 UNK         0.0889 
     83 H83       -49.2800  -27.5026    6.4217 H         1 UNK         0.0889 
     84 H84       -48.4700  -28.4959    5.2054 H         1 UNK         0.0889 
     85 H85       -51.0608  -26.0333    3.5234 H         1 UNK         0.3028 
     86 H86       -50.2594  -24.2877    4.5029 H         1 UNK         0.0864 
     87 H87       -50.2997  -24.1500    7.0088 H         1 UNK         0.0720 
     88 H88       -50.5705  -25.8601    7.1108 H         1 UNK         0.0720 
     89 H89       -52.9006  -26.9653    5.8138 H         1 UNK         0.0814 
     90 H90       -54.3511  -26.1579    6.3345 H         1 UNK         0.0814 
     91 H91       -51.6157  -28.2238    7.4075 H         1 UNK         0.1469 
     92 H92       -52.7172  -28.2192   11.5466 H         1 UNK         0.1381 
     93 H93       -54.5676  -25.4628    8.8235 H         1 UNK         0.1206 
     94 H94       -54.3906  -25.1118   11.4825 H         1 UNK         0.0813 
     95 H95       -54.2229  -26.5861   12.4057 H         1 UNK         0.0813 
     96 H96       -55.4758  -28.6720   11.7369 H         1 UNK         0.0638 
     97 H97       -57.0816  -28.7805   11.0940 H         1 UNK         0.0638 
     98 H98       -56.7842  -27.4283   13.7875 H         1 UNK         0.0568 
     99 H99       -60.1779  -29.1738   14.3205 H         1 UNK         0.3450 
    100 H100      -58.6181  -29.6496   14.9448 H         1 UNK         0.3450 
    101 H101      -55.8213  -29.0406   14.8413 H         1 UNK         0.2987 
    102 H102      -56.0645  -31.9588   15.4136 H         1 UNK         0.0766 
    103 H103      -54.1913  -33.4046   14.5637 H         1 UNK         0.0798 
    104 H104      -54.1731  -32.4832   13.0604 H         1 UNK         0.0798 
    105 H105      -55.5865  -33.4287   13.4998 H         1 UNK         0.0798 
    106 H106      -54.4591  -30.7801   16.3594 H         1 UNK         0.3198 
    107 H107      -52.8397  -29.4875   16.8113 H         1 UNK         0.0843 
    108 H108      -50.5881  -29.5659   14.7354 H         1 UNK         0.0831 
    109 H109      -50.8804  -30.7723   15.9756 H         1 UNK         0.0831 
    110 H110      -50.4062  -29.1460   16.4386 H         1 UNK         0.0831 
    111 H111      -51.8564  -27.4408   15.0101 H         1 UNK         0.3133 
    112 H112      -53.7269  -25.5079   14.3683 H         1 UNK         0.0566 
    113 H113      -54.5470  -23.7282   15.9292 H         1 UNK         0.0814 
    114 H114      -55.6664  -25.0759   15.8089 H         1 UNK         0.0814 
    115 H115      -54.6448  -24.9176   17.2282 H         1 UNK         0.0814 
    116 H116      -51.6827  -24.9267   14.8995 H         1 UNK         0.3091 
    117 H117      -49.8737  -24.1644   17.7456 H         1 UNK         0.0702 
    118 H118      -48.2165  -25.9057   17.1129 H         1 UNK         0.0785 
    119 H119      -49.4449  -26.7778   16.1991 H         1 UNK         0.0785 
    120 H120      -49.5766  -26.6397   17.9478 H         1 UNK         0.0785 
    121 H121      -49.0902  -24.6653   15.0133 H         1 UNK         0.2998 
    122 H122      -49.8311  -21.3357   13.8719 H         1 UNK         0.0697 
    123 H123      -47.2474  -22.9401   14.2728 H         1 UNK         0.0825 
    124 H124      -47.5579  -21.3311   14.9113 H         1 UNK         0.0825 
    125 H125      -47.4621  -21.5802   13.1745 H         1 UNK         0.0825 
    126 H126      -48.8492  -23.5860   12.4507 H         1 UNK         0.3029 
    127 H127      -52.0155  -24.9565   11.5036 H         1 UNK         0.0897 
    128 H128      -51.0119  -24.7196    9.2879 H         1 UNK         0.0792 
    129 H129      -49.7876  -23.6028    9.8977 H         1 UNK         0.0792 
    130 H130      -51.4847  -23.1375    9.8782 H         1 UNK         0.0792 
    131 H131      -49.2768  -25.7341   11.0511 H         1 UNK         0.3086 
    132 H132      -49.0786  -27.9086   13.8381 H         1 UNK         0.0583 
    133 H133      -48.7254  -29.7257   12.3064 H         1 UNK         0.1020 
    134 H134      -50.4100  -29.3246   12.3480 H         1 UNK         0.1020 
    135 H135      -50.9519  -30.0551    8.8422 H         1 UNK         0.0694 
    136 H136      -51.4303  -30.1402   10.5095 H         1 UNK         0.0694 
    137 H137      -47.3305  -27.4498   11.6246 H         1 UNK         0.2989 
    138 H138      -45.5682  -24.7711   13.2533 H         1 UNK         0.1055 
    139 H139      -44.6798  -26.9591   14.1049 H         1 UNK         0.0806 
    140 H140      -43.6995  -26.3205   12.7961 H         1 UNK         0.0806 
    141 H141      -44.8189  -27.6471   12.4916 H         1 UNK         0.0806 
    142 H142      -45.0644  -25.8558   10.7132 H         1 UNK         0.3061 
    143 H143      -47.0742  -23.6159    8.8072 H         1 UNK         0.0734 
    144 H144      -44.8188  -23.0057    8.0083 H         1 UNK         0.0832 
    145 H145      -45.0793  -22.3895    9.6325 H         1 UNK         0.0832 
    146 H146      -44.0739  -23.8094    9.3885 H         1 UNK         0.0832 
    147 H147      -46.8125  -25.3462    7.5476 H         1 UNK         0.3156 
    148 H148      -44.4154  -27.8337    7.0026 H         1 UNK         0.0589 
    149 H149      -47.2804  -28.3371    7.9829 H         1 UNK         0.0808 
    150 H150      -46.3090  -29.4468    7.0145 H         1 UNK         0.0808 
    151 H151      -45.8302  -29.0620    8.6583 H         1 UNK         0.0808 
    152 H152      -46.9439  -27.2533    5.7804 H         1 UNK         0.3098 
    153 H153      -46.0287  -24.4615    3.9005 H         1 UNK         0.0720 
    154 H154      -46.3911  -25.7806    1.8405 H         1 UNK         0.0791 
    155 H155      -46.1768  -27.2908    2.7278 H         1 UNK         0.0791 
    156 H156      -44.8273  -26.1823    2.5253 H         1 UNK         0.0791 
    157 H157      -48.2615  -25.9775    3.4056 H         1 UNK         0.3028 
@<TRIPOS>BOND
     1    1    2 1    
     2    1   82 1    
     3    1   83 1    
     4    1   84 1    
     5    2    3 2    
     6    2    4 am   BACKBONE|DICT|INTERRES
     7    4    5 1    
     8    4   85 1    
     9    5    6 1    
    10    5   80 1    
    11    5   86 1    
    12    6    7 1    
    13    6   87 1    
    14    6   88 1    
    15    7    8 1    
    16    8    9 1    
    17    8   89 1    
    18    8   90 1    
    19    9   10 ar   
    20    9   14 ar   
    21   10   11 ar   
    22   10   91 1    
    23   11   12 ar   
    24   11   58 1    
    25   12   13 ar   
    26   12   92 1    
    27   13   14 ar   
    28   13   15 1    
    29   14   93 1    
    30   15   16 1    
    31   15   94 1    
    32   15   95 1    
    33   16   17 1    
    34   17   18 1    
    35   17   96 1    
    36   17   97 1    
    37   18   19 1    
    38   18   22 1    
    39   18   98 1    
    40   19   20 am   BACKBONE|DICT|INTERRES
    41   19   21 2    
    42   20   99 1    
    43   20  100 1    
    44   22   23 am   BACKBONE|DICT|INTERRES
    45   22  101 1    
    46   23   24 2    
    47   23   25 1    
    48   25   26 1    
    49   25   27 1    
    50   25  102 1    
    51   26  103 1    
    52   26  104 1    
    53   26  105 1    
    54   27   28 am   BACKBONE|DICT|INTERRES
    55   27  106 1    
    56   28   29 2    
    57   28   30 1    
    58   30   31 1    
    59   30   32 1    
    60   30  107 1    
    61   31  108 1    
    62   31  109 1    
    63   31  110 1    
    64   32   33 am   BACKBONE|DICT|INTERRES
    65   32  111 1    
    66   33   34 2    
    67   33   35 1    
    68   35   36 1    
    69   35   37 1    
    70   35  112 1    
    71   36  113 1    
    72   36  114 1    
    73   36  115 1    
    74   37   38 am   BACKBONE|DICT|INTERRES
    75   37  116 1    
    76   38   39 2    
    77   38   40 1    
    78   40   41 1    
    79   40   42 1    
    80   40  117 1    
    81   41  118 1    
    82   41  119 1    
    83   41  120 1    
    84   42   43 am   BACKBONE|DICT|INTERRES
    85   42  121 1    
    86   43   44 2    
    87   43   45 1    
    88   45   46 1    
    89   45   47 1    
    90   45  122 1    
    91   46  123 1    
    92   46  124 1    
    93   46  125 1    
    94   47   48 am   BACKBONE|DICT|INTERRES
    95   47  126 1    
    96   48   49 2    
    97   48   50 1    
    98   50   51 1    
    99   50   52 1    
   100   50  127 1    
   101   51  128 1    
   102   51  129 1    
   103   51  130 1    
   104   52   53 am   BACKBONE|DICT|INTERRES
   105   52  131 1    
   106   53   54 2    
   107   53   55 1    
   108   55   56 1    
   109   55   59 1    
   110   55  132 1    
   111   56   57 1    
   112   56  133 1    
   113   56  134 1    
   114   57   58 1    
   115   58  135 1    
   116   58  136 1    
   117   59   60 am   BACKBONE|DICT|INTERRES
   118   59  137 1    
   119   60   61 2    
   120   60   62 1    
   121   62   63 1    
   122   62   64 1    
   123   62  138 1    
   124   63  139 1    
   125   63  140 1    
   126   63  141 1    
   127   64   65 am   BACKBONE|DICT|INTERRES
   128   64  142 1    
   129   65   66 2    
   130   65   67 1    
   131   67   68 1    
   132   67   69 1    
   133   67  143 1    
   134   68  144 1    
   135   68  145 1    
   136   68  146 1    
   137   69   70 am   BACKBONE|DICT|INTERRES
   138   69  147 1    
   139   70   71 2    
   140   70   72 1    
   141   72   73 1    
   142   72   74 1    
   143   72  148 1    
   144   73  149 1    
   145   73  150 1    
   146   73  151 1    
   147   74   75 am   BACKBONE|DICT|INTERRES
   148   74  152 1    
   149   75   76 2    
   150   75   77 1    
   151   77   78 1    
   152   77   79 1    
   153   77  153 1    
   154   78  154 1    
   155   78  155 1    
   156   78  156 1    
   157   79   80 am   BACKBONE|DICT|INTERRES
   158   79  157 1    
   159   80   81 2    
@<TRIPOS>SUBSTRUCTURE
     1 UNK         1 GROUP             0       ****    0 ROOT    
