@<TRIPOS>MOLECULE
3R207
157   159    1
SMALL
USER_CHARGES


@<TRIPOS>ATOM
      1 CA        -50.4385  -30.4950    2.6744 C.3       0 UNK        -0.1975 
      2 C         -49.3259  -30.0984    3.6334 C.2       0 UNK         0.4852 
      3 O         -48.2260  -30.6464    3.5559 O.2       0 UNK        -0.5216 
      4 N         -49.6057  -29.1504    4.5381 N.am      1 UNK        -0.4461 
      5 CA        -48.6593  -28.6344    5.5356 C.3       1 UNK         0.0864 
      6 C6        -49.1448  -27.3075    6.1701 C.3       14 UNK        -0.0898 
      7 S7        -49.3457  -25.9439    4.9699 S.3       14 UNK        -0.2598 
      8 C8        -51.0944  -26.0557    4.4554 C.3       14 UNK         0.0286 
      9 C9        -52.0602  -26.0982    5.6312 C.ar      14 UNK        -0.0844 
     10 C10       -52.3279  -24.9406    6.3692 C.ar      14 UNK        -0.0881 
     11 C11       -53.2118  -24.9786    7.4526 C.ar      14 UNK        -0.0643 
     12 C12       -53.8257  -26.1877    7.7951 C.ar      14 UNK        -0.0930 
     13 C13       -53.5562  -27.3520    7.0711 C.ar      14 UNK        -0.0827 
     14 C14       -52.6845  -27.2997    5.9819 C.ar      14 UNK        -0.1249 
     15 C15       -54.1812  -28.6699    7.4928 C.3       14 UNK         0.0141 
     16 S16       -53.1513  -29.4436    8.7737 S.3       14 UNK        -0.2313 
     17 C17       -54.3787  -30.2985    9.8130 C.3       14 UNK        -0.0915 
     18 CA        -55.2615  -29.3559   10.6798 C.3       13 UNK         0.0968 
     19 C         -56.2895  -30.1807   11.5097 C.2       13 UNK         0.5732 
     20 N         -56.2370  -30.1836   12.8367 N.am      13 UNK        -0.7310 
     21 O         -57.1612  -30.8271   10.9330 O.2       13 UNK        -0.5035 
     22 N         -54.4823  -28.3855   11.4727 N.am      13 UNK        -0.4233 
     23 C         -54.9939  -27.2399   11.9454 C.2       13 UNK         0.4989 
     24 O         -56.1197  -26.8380   11.6443 O.2       13 UNK        -0.4996 
     25 CA        -54.1319  -26.3878   12.9078 C.3       12 UNK         0.0216 
     26 CB        -55.0087  -25.5691   13.8783 C.3       12 UNK        -0.1964 
     27 N         -53.0919  -27.0860   13.6808 N.am      12 UNK        -0.4276 
     28 C         -53.2298  -28.1864   14.4374 C.2       12 UNK         0.5020 
     29 O         -54.2344  -28.8978   14.4517 O.2       12 UNK        -0.5489 
     30 CA        -52.0504  -28.5356   15.3593 C.3       11 UNK         0.0294 
     31 CB        -50.9299  -29.2683   14.6033 C.3       11 UNK        -0.2019 
     32 N         -51.5011  -27.3545   16.0282 N.am      11 UNK        -0.4493 
     33 C         -52.0917  -26.7042   17.0406 C.2       11 UNK         0.4932 
     34 O         -53.1659  -27.0541   17.5305 O.2       11 UNK        -0.5029 
     35 CA        -51.4004  -25.4440   17.6024 C.3       10 UNK         0.0280 
     36 CB        -51.1237  -25.5718   19.1147 C.3       10 UNK        -0.1976 
     37 N         -50.1999  -25.0093   16.8734 N.am      10 UNK        -0.4242 
     38 C         -49.0017  -25.6108   16.7872 C.2       10 UNK         0.5072 
     39 O         -48.7216  -26.6598   17.3666 O.2       10 UNK        -0.5224 
     40 CA        -47.9489  -24.9756   15.8582 C.3       9 UNK         0.0343 
     41 CB        -47.6518  -25.9166   14.6794 C.3       9 UNK        -0.2003 
     42 N         -48.3769  -23.6781   15.3293 N.am      9 UNK        -0.4272 
     43 C         -48.1409  -22.4980   15.9213 C.2       9 UNK         0.4988 
     44 O         -47.4359  -22.3640   16.9215 O.2       9 UNK        -0.5108 
     45 CA        -48.8315  -21.2570   15.3227 C.3       8 UNK         0.0248 
     46 CB        -47.8601  -20.4453   14.4532 C.3       8 UNK        -0.2001 
     47 N         -50.0338  -21.5747   14.5454 N.am      8 UNK        -0.4140 
     48 C         -51.1753  -22.0314   15.0813 C.2       8 UNK         0.5028 
     49 O         -51.3358  -22.2150   16.2870 O.2       8 UNK        -0.5428 
     50 CA        -52.3064  -22.4079   14.1133 C.3       7 UNK         0.0264 
     51 CB        -53.2266  -21.2054   13.8546 C.3       7 UNK        -0.1988 
     52 N         -51.8221  -22.9359   12.8370 N.am      7 UNK        -0.4454 
     53 C         -51.1486  -24.0839   12.6836 C.2       7 UNK         0.5027 
     54 O         -50.8690  -24.8378   13.6198 O.2       7 UNK        -0.5083 
     55 CA        -50.7198  -24.4766   11.2537 C.3       6 UNK         0.0844 
     56 C56       -51.3828  -23.6709   10.0957 C.3       14 UNK        -0.0967 
     57 S57       -53.1964  -23.8752   10.0149 S.3       14 UNK        -0.2604 
     58 C58       -53.5311  -23.7101    8.2324 C.3       14 UNK         0.0134 
     59 N         -49.2577  -24.4981   11.1640 N.am      6 UNK        -0.4116 
     60 C         -48.4407  -23.4342   11.2095 C.2       5 UNK         0.5034 
     61 O         -48.8366  -22.2873   11.4236 O.2       5 UNK        -0.5045 
     62 CA        -46.9318  -23.6671   10.9808 C.3       5 UNK         0.0224 
     63 CB        -46.0877  -23.0885   12.1291 C.3       5 UNK        -0.1978 
     64 N         -46.5754  -25.0755   10.7896 N.am      5 UNK        -0.4737 
     65 C         -46.6922  -25.7525    9.6396 C.2       4 UNK         0.5027 
     66 O         -47.0883  -25.2501    8.5889 O.2       4 UNK        -0.5211 
     67 CA        -46.3310  -27.2495    9.6725 C.3       4 UNK         0.0297 
     68 CB        -45.2454  -27.5980   10.7161 C.3       4 UNK        -0.1993 
     69 N         -47.5114  -28.1045    9.8496 N.am      4 UNK        -0.4486 
     70 C         -48.3961  -28.0643   10.8593 C.2       3 UNK         0.4961 
     71 O         -48.3298  -27.2515   11.7796 O.2       3 UNK        -0.5105 
     72 CA        -49.5685  -29.0623   10.8587 C.3       3 UNK         0.0299 
     73 CB        -50.9037  -28.3409   11.1017 C.3       3 UNK        -0.1972 
     74 N         -49.6718  -29.8432    9.6259 N.am      3 UNK        -0.4305 
     75 C         -49.0576  -31.0108    9.3943 C.2       2 UNK         0.5006 
     76 O         -48.3695  -31.6049   10.2244 O.2       2 UNK        -0.5106 
     77 CA        -49.2067  -31.5956    7.9769 C.3       2 UNK         0.0296 
     78 CB        -50.4356  -32.5164    7.9014 C.3       2 UNK        -0.2002 
     79 N         -49.2969  -30.5774    6.9224 N.am      2 UNK        -0.4032 
     80 C         -48.3579  -29.6550    6.6530 C.2       1 UNK         0.5000 
     81 O         -47.2997  -29.5637    7.2770 O.2       1 UNK        -0.5238 
     82 H82       -50.1278  -30.3150    1.6455 H         1 UNK         0.0889 
     83 H83       -51.3545  -29.9326    2.8546 H         1 UNK         0.0889 
     84 H84       -50.6652  -31.5555    2.7810 H         1 UNK         0.0889 
     85 H85       -50.5182  -28.7221    4.5405 H         1 UNK         0.3028 
     86 H86       -47.7134  -28.4378    5.0257 H         1 UNK         0.0864 
     87 H87       -50.0619  -27.4553    6.7399 H         1 UNK         0.0720 
     88 H88       -48.4110  -26.9587    6.8994 H         1 UNK         0.0720 
     89 H89       -51.2288  -26.9257    3.8122 H         1 UNK         0.0814 
     90 H90       -51.3282  -25.1912    3.8323 H         1 UNK         0.0814 
     91 H91       -51.8464  -24.0114    6.0962 H         1 UNK         0.1469 
     92 H92       -54.5018  -26.2253    8.6387 H         1 UNK         0.1381 
     93 H93       -52.4803  -28.2014    5.4224 H         1 UNK         0.1206 
     94 H94       -54.2724  -29.3479    6.6429 H         1 UNK         0.0813 
     95 H95       -55.1936  -28.4945    7.8552 H         1 UNK         0.0813 
     96 H96       -53.8331  -30.9928   10.4544 H         1 UNK         0.0638 
     97 H97       -55.0001  -30.9141    9.1599 H         1 UNK         0.0638 
     98 H98       -55.8725  -28.7762    9.9872 H         1 UNK         0.0568 
     99 H99       -55.5183  -29.6660   13.3385 H         1 UNK         0.3450 
    100 H100      -56.9150  -30.7204   13.3526 H         1 UNK         0.3450 
    101 H101      -53.5669  -28.6779   11.7738 H         1 UNK         0.2987 
    102 H102      -53.6027  -25.6818   12.2706 H         1 UNK         0.0766 
    103 H103      -54.4031  -24.9715   14.5581 H         1 UNK         0.0798 
    104 H104      -55.6425  -26.2175   14.4847 H         1 UNK         0.0798 
    105 H105      -55.6614  -24.8810   13.3395 H         1 UNK         0.0798 
    106 H106      -52.2163  -26.5817   13.7645 H         1 UNK         0.3198 
    107 H107      -52.4337  -29.2153   16.1239 H         1 UNK         0.0843 
    108 H108      -50.3485  -28.5940   13.9759 H         1 UNK         0.0831 
    109 H109      -51.3297  -30.0579   13.9653 H         1 UNK         0.0831 
    110 H110      -50.2364  -29.7394   15.3001 H         1 UNK         0.0831 
    111 H111      -50.6122  -27.0064   15.7003 H         1 UNK         0.3133 
    112 H112      -52.1206  -24.6348   17.4736 H         1 UNK         0.0566 
    113 H113      -50.6727  -24.6633   19.5136 H         1 UNK         0.0814 
    114 H114      -52.0486  -25.7420   19.6672 H         1 UNK         0.0814 
    115 H115      -50.4580  -26.4055   19.3393 H         1 UNK         0.0814 
    116 H116      -50.3221  -24.1409   16.3669 H         1 UNK         0.3091 
    117 H117      -47.0309  -24.8554   16.4372 H         1 UNK         0.0702 
    118 H118      -46.8593  -25.5276   14.0426 H         1 UNK         0.0785 
    119 H119      -48.5358  -26.0714   14.0614 H         1 UNK         0.0785 
    120 H120      -47.3258  -26.8976   15.0277 H         1 UNK         0.0785 
    121 H121      -48.9874  -23.7054   14.5238 H         1 UNK         0.2998 
    122 H122      -49.1326  -20.6269   16.1625 H         1 UNK         0.0697 
    123 H123      -47.5993  -20.9768   13.5403 H         1 UNK         0.0825 
    124 H124      -46.9332  -20.2334   14.9882 H         1 UNK         0.0825 
    125 H125      -48.2937  -19.4870   14.1668 H         1 UNK         0.0825 
    126 H126      -49.9709  -21.4771   13.5402 H         1 UNK         0.3029 
    127 H127      -52.8945  -23.1901   14.5961 H         1 UNK         0.0897 
    128 H128      -53.6199  -20.8070   14.7911 H         1 UNK         0.0792 
    129 H129      -54.0822  -21.4864   13.2399 H         1 UNK         0.0792 
    130 H130      -52.7012  -20.3936   13.3498 H         1 UNK         0.0792 
    131 H131      -52.0386  -22.3969   12.0104 H         1 UNK         0.3086 
    132 H132      -51.0319  -25.5117   11.1310 H         1 UNK         0.0583 
    133 H133      -51.1465  -22.6072   10.1536 H         1 UNK         0.1020 
    134 H134      -50.9626  -24.0111    9.1475 H         1 UNK         0.1020 
    135 H135      -54.5890  -23.4805    8.0986 H         1 UNK         0.0694 
    136 H136      -52.9797  -22.8539    7.8405 H         1 UNK         0.0694 
    137 H137      -48.8325  -25.4186   11.1211 H         1 UNK         0.2989 
    138 H138      -46.6684  -23.1236   10.0705 H         1 UNK         0.1055 
    139 H139      -45.0349  -23.3515   12.0246 H         1 UNK         0.0806 
    140 H140      -46.4265  -23.4347   13.1050 H         1 UNK         0.0806 
    141 H141      -46.1391  -22.0000   12.1300 H         1 UNK         0.0806 
    142 H142      -46.3050  -25.5946   11.6132 H         1 UNK         0.3061 
    143 H143      -45.9244  -27.4869    8.6880 H         1 UNK         0.0734 
    144 H144      -44.9071  -28.6269   10.5935 H         1 UNK         0.0832 
    145 H145      -44.3695  -26.9580   10.6002 H         1 UNK         0.0832 
    146 H146      -45.5991  -27.4923   11.7421 H         1 UNK         0.0832 
    147 H147      -47.6462  -28.7895    9.1130 H         1 UNK         0.3156 
    148 H148      -49.3992  -29.7365   11.7007 H         1 UNK         0.0589 
    149 H149      -51.1965  -27.7314   10.2460 H         1 UNK         0.0808 
    150 H150      -51.6948  -29.0627   11.2964 H         1 UNK         0.0808 
    151 H151      -50.8562  -27.6815   11.9668 H         1 UNK         0.0808 
    152 H152      -50.2393  -29.4483    8.8897 H         1 UNK         0.3098 
    153 H153      -48.3162  -32.1951    7.7764 H         1 UNK         0.0720 
    154 H154      -50.5021  -33.0123    6.9328 H         1 UNK         0.0791 
    155 H155      -51.3642  -31.9675    8.0632 H         1 UNK         0.0791 
    156 H156      -50.3839  -33.2985    8.6603 H         1 UNK         0.0791 
    157 H157      -50.1321  -30.5841    6.3555 H         1 UNK         0.3028 
@<TRIPOS>BOND
     1    1    2 1    
     2    1   82 1    
     3    1   83 1    
     4    1   84 1    
     5    2    3 2    
     6    2    4 am   BACKBONE|DICT|INTERRES
     7    4    5 1    
     8    4   85 1    
     9    5    6 1    
    10    5   80 1    
    11    5   86 1    
    12    6    7 1    
    13    6   87 1    
    14    6   88 1    
    15    7    8 1    
    16    8    9 1    
    17    8   89 1    
    18    8   90 1    
    19    9   10 ar   
    20    9   14 ar   
    21   10   11 ar   
    22   10   91 1    
    23   11   12 ar   
    24   11   58 1    
    25   12   13 ar   
    26   12   92 1    
    27   13   14 ar   
    28   13   15 1    
    29   14   93 1    
    30   15   16 1    
    31   15   94 1    
    32   15   95 1    
    33   16   17 1    
    34   17   18 1    
    35   17   96 1    
    36   17   97 1    
    37   18   19 1    
    38   18   22 1    
    39   18   98 1    
    40   19   20 am   BACKBONE|DICT|INTERRES
    41   19   21 2    
    42   20   99 1    
    43   20  100 1    
    44   22   23 am   BACKBONE|DICT|INTERRES
    45   22  101 1    
    46   23   24 2    
    47   23   25 1    
    48   25   26 1    
    49   25   27 1    
    50   25  102 1    
    51   26  103 1    
    52   26  104 1    
    53   26  105 1    
    54   27   28 am   BACKBONE|DICT|INTERRES
    55   27  106 1    
    56   28   29 2    
    57   28   30 1    
    58   30   31 1    
    59   30   32 1    
    60   30  107 1    
    61   31  108 1    
    62   31  109 1    
    63   31  110 1    
    64   32   33 am   BACKBONE|DICT|INTERRES
    65   32  111 1    
    66   33   34 2    
    67   33   35 1    
    68   35   36 1    
    69   35   37 1    
    70   35  112 1    
    71   36  113 1    
    72   36  114 1    
    73   36  115 1    
    74   37   38 am   BACKBONE|DICT|INTERRES
    75   37  116 1    
    76   38   39 2    
    77   38   40 1    
    78   40   41 1    
    79   40   42 1    
    80   40  117 1    
    81   41  118 1    
    82   41  119 1    
    83   41  120 1    
    84   42   43 am   BACKBONE|DICT|INTERRES
    85   42  121 1    
    86   43   44 2    
    87   43   45 1    
    88   45   46 1    
    89   45   47 1    
    90   45  122 1    
    91   46  123 1    
    92   46  124 1    
    93   46  125 1    
    94   47   48 am   BACKBONE|DICT|INTERRES
    95   47  126 1    
    96   48   49 2    
    97   48   50 1    
    98   50   51 1    
    99   50   52 1    
   100   50  127 1    
   101   51  128 1    
   102   51  129 1    
   103   51  130 1    
   104   52   53 am   BACKBONE|DICT|INTERRES
   105   52  131 1    
   106   53   54 2    
   107   53   55 1    
   108   55   56 1    
   109   55   59 1    
   110   55  132 1    
   111   56   57 1    
   112   56  133 1    
   113   56  134 1    
   114   57   58 1    
   115   58  135 1    
   116   58  136 1    
   117   59   60 am   BACKBONE|DICT|INTERRES
   118   59  137 1    
   119   60   61 2    
   120   60   62 1    
   121   62   63 1    
   122   62   64 1    
   123   62  138 1    
   124   63  139 1    
   125   63  140 1    
   126   63  141 1    
   127   64   65 am   BACKBONE|DICT|INTERRES
   128   64  142 1    
   129   65   66 2    
   130   65   67 1    
   131   67   68 1    
   132   67   69 1    
   133   67  143 1    
   134   68  144 1    
   135   68  145 1    
   136   68  146 1    
   137   69   70 am   BACKBONE|DICT|INTERRES
   138   69  147 1    
   139   70   71 2    
   140   70   72 1    
   141   72   73 1    
   142   72   74 1    
   143   72  148 1    
   144   73  149 1    
   145   73  150 1    
   146   73  151 1    
   147   74   75 am   BACKBONE|DICT|INTERRES
   148   74  152 1    
   149   75   76 2    
   150   75   77 1    
   151   77   78 1    
   152   77   79 1    
   153   77  153 1    
   154   78  154 1    
   155   78  155 1    
   156   78  156 1    
   157   79   80 am   BACKBONE|DICT|INTERRES
   158   79  157 1    
   159   80   81 2    
@<TRIPOS>SUBSTRUCTURE
     1 UNK         1 GROUP             0       ****    0 ROOT    
