@<TRIPOS>MOLECULE
3R207
157   159    1
SMALL
USER_CHARGES


@<TRIPOS>ATOM
      1 CA        -48.4052  -29.7237   10.5323 C.3       0 UNK        -0.1975 
      2 C         -49.0405  -29.1294    9.2857 C.2       0 UNK         0.4852 
      3 O         -49.4582  -27.9735    9.3053 O.2       0 UNK        -0.5216 
      4 N         -49.1130  -29.9148    8.2019 N.am      1 UNK        -0.4461 
      5 CA        -49.7441  -29.6203    6.9012 C.3       1 UNK         0.0864 
      6 C6        -51.2519  -29.2594    6.9920 C.3       14 UNK        -0.0898 
      7 S7        -52.2694  -30.5659    7.7633 S.3       14 UNK        -0.2598 
      8 C8        -52.6638  -29.8705    9.4032 C.3       14 UNK         0.0286 
      9 C9        -53.5368  -28.6267    9.3183 C.ar      14 UNK        -0.0844 
     10 C10       -52.9730  -27.3565    9.4729 C.ar      14 UNK        -0.0881 
     11 C11       -53.7652  -26.2084    9.3804 C.ar      14 UNK        -0.0643 
     12 C12       -55.1389  -26.3447    9.1541 C.ar      14 UNK        -0.0930 
     13 C13       -55.7176  -27.6090    9.0000 C.ar      14 UNK        -0.0827 
     14 C14       -54.9084  -28.7465    9.0811 C.ar      14 UNK        -0.1249 
     15 C15       -57.2043  -27.7313    8.6897 C.3       14 UNK         0.0141 
     16 S16       -58.1726  -28.3285   10.1125 S.3       14 UNK        -0.2313 
     17 C17       -58.1888  -30.1313    9.8170 C.3       14 UNK        -0.0915 
     18 CA        -57.9391  -30.9716   11.0957 C.3       13 UNK         0.0968 
     19 C         -57.9676  -32.4873   10.7540 C.2       13 UNK         0.5732 
     20 N         -59.1305  -33.1199   10.8307 N.am      13 UNK        -0.7310 
     21 O         -56.9575  -33.0791   10.3768 O.2       13 UNK        -0.5035 
     22 N         -56.7140  -30.5558   11.7932 N.am      13 UNK        -0.4233 
     23 C         -56.3017  -31.0217   12.9797 C.2       13 UNK         0.4989 
     24 O         -56.9044  -31.8736   13.6345 O.2       13 UNK        -0.4996 
     25 CA        -55.0063  -30.4228   13.5561 C.3       12 UNK         0.0216 
     26 CB        -53.8016  -31.3193   13.2279 C.3       12 UNK        -0.1964 
     27 N         -54.7286  -29.0537   13.1112 N.am      12 UNK        -0.4276 
     28 C         -55.4672  -27.9812   13.4236 C.2       12 UNK         0.5020 
     29 O         -56.4901  -28.0229   14.1104 O.2       12 UNK        -0.5489 
     30 CA        -54.9341  -26.6272   12.9323 C.3       11 UNK         0.0294 
     31 CB        -56.0681  -25.6560   12.5601 C.3       11 UNK        -0.2019 
     32 N         -54.0884  -26.0161   13.9570 N.am      11 UNK        -0.4493 
     33 C         -52.8472  -26.4199   14.2561 C.2       11 UNK         0.4932 
     34 O         -52.2656  -27.3255   13.6523 O.2       11 UNK        -0.5029 
     35 CA        -52.1550  -25.6593   15.4042 C.3       10 UNK         0.0280 
     36 CB        -52.8970  -25.8228   16.7489 C.3       10 UNK        -0.1976 
     37 N         -50.7303  -25.9997   15.5099 N.am      10 UNK        -0.4242 
     38 C         -50.1797  -27.1417   15.9499 C.2       10 UNK         0.5072 
     39 O         -50.7991  -28.0372   16.5269 O.2       10 UNK        -0.5224 
     40 CA        -48.6795  -27.3523   15.6800 C.3       9 UNK         0.0343 
     41 CB        -48.4931  -28.2771   14.4643 C.3       9 UNK        -0.2003 
     42 N         -47.9171  -26.1220   15.4533 N.am      9 UNK        -0.4272 
     43 C         -47.5354  -25.2645   16.4097 C.2       9 UNK         0.4988 
     44 O         -47.8724  -25.3624   17.5899 O.2       9 UNK        -0.5108 
     45 CA        -46.5962  -24.1226   15.9878 C.3       8 UNK         0.0248 
     46 CB        -45.1649  -24.6497   15.7887 C.3       8 UNK        -0.2001 
     47 N         -47.0494  -23.4818   14.7524 N.am      8 UNK        -0.4140 
     48 C         -47.6502  -22.2849   14.6873 C.2       8 UNK         0.5028 
     49 O         -47.8191  -21.5500   15.6617 O.2       8 UNK        -0.5428 
     50 CA        -48.1662  -21.8146   13.3098 C.3       7 UNK         0.0264 
     51 CB        -47.1493  -20.8661   12.6545 C.3       7 UNK        -0.1988 
     52 N         -48.4925  -22.8919   12.3684 N.am      7 UNK        -0.4454 
     53 C         -49.3646  -23.8840   12.6056 C.2       7 UNK         0.5027 
     54 O         -50.0157  -23.9748   13.6450 O.2       7 UNK        -0.5083 
     55 CA        -49.4668  -25.0073   11.5512 C.3       6 UNK         0.0844 
     56 C56       -50.4892  -24.6636   10.4390 C.3       14 UNK        -0.0967 
     57 S57       -52.2166  -24.5615   11.0262 S.3       14 UNK        -0.2604 
     58 C58       -53.1436  -24.8195    9.4795 C.3       14 UNK         0.0134 
     59 N         -48.1616  -25.3521   10.9757 N.am      6 UNK        -0.4116 
     60 C         -47.0515  -25.7022   11.6416 C.2       5 UNK         0.5034 
     61 O         -46.9846  -25.8004   12.8658 O.2       5 UNK        -0.5045 
     62 CA        -45.7800  -25.9043   10.8069 C.3       5 UNK         0.0224 
     63 CB        -45.8011  -27.2421   10.0518 C.3       5 UNK        -0.1978 
     64 N         -45.6016  -24.8014    9.8629 N.am      5 UNK        -0.4737 
     65 C         -45.0679  -23.6159   10.1872 C.2       4 UNK         0.5027 
     66 O         -44.5950  -23.3603   11.2942 O.2       4 UNK        -0.5211 
     67 CA        -45.0619  -22.5258    9.1003 C.3       4 UNK         0.0297 
     68 CB        -43.7219  -22.5285    8.3476 C.3       4 UNK        -0.1993 
     69 N         -46.1586  -22.6533    8.1364 N.am      4 UNK        -0.4486 
     70 C         -47.4519  -22.4564    8.4266 C.2       3 UNK         0.4961 
     71 O         -47.8669  -22.1423    9.5426 O.2       3 UNK        -0.5105 
     72 CA        -48.4555  -22.7113    7.2864 C.3       3 UNK         0.0299 
     73 CB        -48.5328  -21.4940    6.3512 C.3       3 UNK        -0.1972 
     74 N         -48.1822  -23.9250    6.5015 N.am      3 UNK        -0.4305 
     75 C         -48.0814  -25.1547    7.0234 C.2       2 UNK         0.5006 
     76 O         -48.1080  -25.3824    8.2324 O.2       2 UNK        -0.5106 
     77 CA        -47.8859  -26.3280    6.0621 C.3       2 UNK         0.0296 
     78 CB        -46.3897  -26.5976    5.8238 C.3       2 UNK        -0.2002 
     79 N         -48.5161  -27.4924    6.6768 N.am      2 UNK        -0.4032 
     80 C         -48.9943  -28.5695    6.0493 C.2       1 UNK         0.5000 
     81 O         -48.8743  -28.7554    4.8366 O.2       1 UNK        -0.5238 
     82 H82       -49.0931  -30.4208   11.0100 H         1 UNK         0.0889 
     83 H83       -48.1678  -28.9394   11.2508 H         1 UNK         0.0889 
     84 H84       -47.4841  -30.2529   10.2892 H         1 UNK         0.0889 
     85 H85       -48.7196  -30.8437    8.2645 H         1 UNK         0.3028 
     86 H86       -49.6739  -30.5539    6.3403 H         1 UNK         0.0864 
     87 H87       -51.3895  -28.3136    7.5134 H         1 UNK         0.0720 
     88 H88       -51.6587  -29.1004    5.9914 H         1 UNK         0.0720 
     89 H89       -51.7458  -29.6598    9.9507 H         1 UNK         0.0814 
     90 H90       -53.1870  -30.6343    9.9783 H         1 UNK         0.0814 
     91 H91       -51.9119  -27.2598    9.6530 H         1 UNK         0.1469 
     92 H92       -55.7577  -25.4613    9.0762 H         1 UNK         0.1381 
     93 H93       -55.3350  -29.7288    8.9403 H         1 UNK         0.1206 
     94 H94       -57.6054  -26.7607    8.3940 H         1 UNK         0.0813 
     95 H95       -57.3523  -28.3837    7.8280 H         1 UNK         0.0813 
     96 H96       -59.1630  -30.3796    9.3920 H         1 UNK         0.0638 
     97 H97       -57.4590  -30.3879    9.0488 H         1 UNK         0.0638 
     98 H98       -58.7614  -30.7741   11.7863 H         1 UNK         0.0568 
     99 H99       -59.1707  -34.0995   10.5964 H         1 UNK         0.3450 
    100 H100      -59.9674  -32.6410   11.1251 H         1 UNK         0.3450 
    101 H101      -56.1656  -29.8440   11.3354 H         1 UNK         0.2987 
    102 H102      -55.1196  -30.3946   14.6420 H         1 UNK         0.0766 
    103 H103      -52.8855  -30.9372   13.6793 H         1 UNK         0.0798 
    104 H104      -53.6400  -31.4034   12.1536 H         1 UNK         0.0798 
    105 H105      -53.9534  -32.3292   13.6117 H         1 UNK         0.0798 
    106 H106      -53.8577  -28.8980   12.6207 H         1 UNK         0.3198 
    107 H107      -54.3333  -26.7967   12.0375 H         1 UNK         0.0843 
    108 H108      -56.6831  -25.3948   13.4219 H         1 UNK         0.0831 
    109 H109      -56.7265  -26.1002   11.8125 H         1 UNK         0.0831 
    110 H110      -55.6723  -24.7340   12.1338 H         1 UNK         0.0831 
    111 H111      -54.5070  -25.2787   14.5046 H         1 UNK         0.3133 
    112 H112      -52.1807  -24.6013   15.1398 H         1 UNK         0.0566 
    113 H113      -52.3420  -25.3639   17.5671 H         1 UNK         0.0814 
    114 H114      -53.8765  -25.3450   16.7186 H         1 UNK         0.0814 
    115 H115      -53.0616  -26.8709   17.0005 H         1 UNK         0.0814 
    116 H116      -50.1293  -25.3545   15.0050 H         1 UNK         0.3091 
    117 H117      -48.2587  -27.8534   16.5543 H         1 UNK         0.0702 
    118 H118      -47.4395  -28.4899   14.2819 H         1 UNK         0.0785 
    119 H119      -48.9960  -29.2328   14.6186 H         1 UNK         0.0785 
    120 H120      -48.9087  -27.8349   13.5577 H         1 UNK         0.0785 
    121 H121      -47.5747  -25.9807   14.5038 H         1 UNK         0.2998 
    122 H122      -46.5715  -23.3978   16.8042 H         1 UNK         0.0697 
    123 H123      -45.1066  -25.3760   14.9768 H         1 UNK         0.0825 
    124 H124      -44.7995  -25.1392   16.6925 H         1 UNK         0.0825 
    125 H125      -44.4747  -23.8379   15.5585 H         1 UNK         0.0825 
    126 H126      -46.9740  -24.0330   13.9050 H         1 UNK         0.3029 
    127 H127      -49.0876  -21.2569   13.4891 H         1 UNK         0.0897 
    128 H128      -46.2185  -21.3802   12.4123 H         1 UNK         0.0792 
    129 H129      -46.9016  -20.0370   13.3188 H         1 UNK         0.0792 
    130 H130      -47.5434  -20.4349   11.7341 H         1 UNK         0.0792 
    131 H131      -48.0471  -22.8479   11.4565 H         1 UNK         0.3086 
    132 H132      -49.8183  -25.9043   12.0656 H         1 UNK         0.0583 
    133 H133      -50.2265  -23.7245    9.9489 H         1 UNK         0.1020 
    134 H134      -50.4409  -25.4277    9.6618 H         1 UNK         0.1020 
    135 H135      -53.9188  -24.0536    9.4268 H         1 UNK         0.0694 
    136 H136      -52.4972  -24.6526    8.6168 H         1 UNK         0.0694 
    137 H137      -48.1163  -25.3335    9.9567 H         1 UNK         0.2989 
    138 H138      -44.9318  -25.9241   11.4956 H         1 UNK         0.1055 
    139 H139      -45.8890  -28.0770   10.7475 H         1 UNK         0.0806 
    140 H140      -44.8807  -27.3906    9.4870 H         1 UNK         0.0806 
    141 H141      -46.6339  -27.3052    9.3520 H         1 UNK         0.0806 
    142 H142      -46.0336  -24.9054    8.9546 H         1 UNK         0.3061 
    143 H143      -45.1689  -21.5627    9.6047 H         1 UNK         0.0734 
    144 H144      -43.6665  -21.7093    7.6305 H         1 UNK         0.0832 
    145 H145      -42.8868  -22.4073    9.0393 H         1 UNK         0.0832 
    146 H146      -43.5630  -23.4624    7.8068 H         1 UNK         0.0832 
    147 H147      -45.9143  -22.9206    7.1938 H         1 UNK         0.3156 
    148 H148      -49.4374  -22.8422    7.7453 H         1 UNK         0.0589 
    149 H149      -47.5962  -21.3321    5.8162 H         1 UNK         0.0808 
    150 H150      -49.3261  -21.6102    5.6126 H         1 UNK         0.0808 
    151 H151      -48.7485  -20.5838    6.9130 H         1 UNK         0.0808 
    152 H152      -48.1309  -23.8156    5.4985 H         1 UNK         0.3098 
    153 H153      -48.3826  -26.1017    5.1165 H         1 UNK         0.0720 
    154 H154      -46.2420  -27.4351    5.1418 H         1 UNK         0.0791 
    155 H155      -45.8695  -26.8301    6.7541 H         1 UNK         0.0791 
    156 H156      -45.8994  -25.7299    5.3808 H         1 UNK         0.0791 
    157 H157      -48.7112  -27.3947    7.6739 H         1 UNK         0.3028 
@<TRIPOS>BOND
     1    1    2 1    
     2    1   82 1    
     3    1   83 1    
     4    1   84 1    
     5    2    3 2    
     6    2    4 am   BACKBONE|DICT|INTERRES
     7    4    5 1    
     8    4   85 1    
     9    5    6 1    
    10    5   80 1    
    11    5   86 1    
    12    6    7 1    
    13    6   87 1    
    14    6   88 1    
    15    7    8 1    
    16    8    9 1    
    17    8   89 1    
    18    8   90 1    
    19    9   10 ar   
    20    9   14 ar   
    21   10   11 ar   
    22   10   91 1    
    23   11   12 ar   
    24   11   58 1    
    25   12   13 ar   
    26   12   92 1    
    27   13   14 ar   
    28   13   15 1    
    29   14   93 1    
    30   15   16 1    
    31   15   94 1    
    32   15   95 1    
    33   16   17 1    
    34   17   18 1    
    35   17   96 1    
    36   17   97 1    
    37   18   19 1    
    38   18   22 1    
    39   18   98 1    
    40   19   20 am   BACKBONE|DICT|INTERRES
    41   19   21 2    
    42   20   99 1    
    43   20  100 1    
    44   22   23 am   BACKBONE|DICT|INTERRES
    45   22  101 1    
    46   23   24 2    
    47   23   25 1    
    48   25   26 1    
    49   25   27 1    
    50   25  102 1    
    51   26  103 1    
    52   26  104 1    
    53   26  105 1    
    54   27   28 am   BACKBONE|DICT|INTERRES
    55   27  106 1    
    56   28   29 2    
    57   28   30 1    
    58   30   31 1    
    59   30   32 1    
    60   30  107 1    
    61   31  108 1    
    62   31  109 1    
    63   31  110 1    
    64   32   33 am   BACKBONE|DICT|INTERRES
    65   32  111 1    
    66   33   34 2    
    67   33   35 1    
    68   35   36 1    
    69   35   37 1    
    70   35  112 1    
    71   36  113 1    
    72   36  114 1    
    73   36  115 1    
    74   37   38 am   BACKBONE|DICT|INTERRES
    75   37  116 1    
    76   38   39 2    
    77   38   40 1    
    78   40   41 1    
    79   40   42 1    
    80   40  117 1    
    81   41  118 1    
    82   41  119 1    
    83   41  120 1    
    84   42   43 am   BACKBONE|DICT|INTERRES
    85   42  121 1    
    86   43   44 2    
    87   43   45 1    
    88   45   46 1    
    89   45   47 1    
    90   45  122 1    
    91   46  123 1    
    92   46  124 1    
    93   46  125 1    
    94   47   48 am   BACKBONE|DICT|INTERRES
    95   47  126 1    
    96   48   49 2    
    97   48   50 1    
    98   50   51 1    
    99   50   52 1    
   100   50  127 1    
   101   51  128 1    
   102   51  129 1    
   103   51  130 1    
   104   52   53 am   BACKBONE|DICT|INTERRES
   105   52  131 1    
   106   53   54 2    
   107   53   55 1    
   108   55   56 1    
   109   55   59 1    
   110   55  132 1    
   111   56   57 1    
   112   56  133 1    
   113   56  134 1    
   114   57   58 1    
   115   58  135 1    
   116   58  136 1    
   117   59   60 am   BACKBONE|DICT|INTERRES
   118   59  137 1    
   119   60   61 2    
   120   60   62 1    
   121   62   63 1    
   122   62   64 1    
   123   62  138 1    
   124   63  139 1    
   125   63  140 1    
   126   63  141 1    
   127   64   65 am   BACKBONE|DICT|INTERRES
   128   64  142 1    
   129   65   66 2    
   130   65   67 1    
   131   67   68 1    
   132   67   69 1    
   133   67  143 1    
   134   68  144 1    
   135   68  145 1    
   136   68  146 1    
   137   69   70 am   BACKBONE|DICT|INTERRES
   138   69  147 1    
   139   70   71 2    
   140   70   72 1    
   141   72   73 1    
   142   72   74 1    
   143   72  148 1    
   144   73  149 1    
   145   73  150 1    
   146   73  151 1    
   147   74   75 am   BACKBONE|DICT|INTERRES
   148   74  152 1    
   149   75   76 2    
   150   75   77 1    
   151   77   78 1    
   152   77   79 1    
   153   77  153 1    
   154   78  154 1    
   155   78  155 1    
   156   78  156 1    
   157   79   80 am   BACKBONE|DICT|INTERRES
   158   79  157 1    
   159   80   81 2    
@<TRIPOS>SUBSTRUCTURE
     1 UNK         1 GROUP             0       ****    0 ROOT    
