@<TRIPOS>MOLECULE
3R207
157   159    1
SMALL
USER_CHARGES


@<TRIPOS>ATOM
      1 CA        -51.0584  -24.3588    1.7255 C.3       0 UNK        -0.1975 
      2 C         -51.0362  -25.8849    1.6845 C.2       0 UNK         0.4852 
      3 O         -51.0550  -26.4571    0.5962 O.2       0 UNK        -0.5216 
      4 N         -51.0024  -26.5909    2.8248 N.am      1 UNK        -0.4461 
      5 CA        -50.9196  -26.0755    4.1989 C.3       1 UNK         0.0864 
      6 C6        -51.2522  -27.1775    5.2382 C.3       14 UNK        -0.0898 
      7 S7        -50.1722  -28.6516    5.1280 S.3       14 UNK        -0.2598 
      8 C8        -51.3437  -30.0063    5.4452 C.3       14 UNK         0.0286 
      9 C9        -51.8523  -29.9928    6.8796 C.ar      14 UNK        -0.0844 
     10 C10       -51.0564  -30.4974    7.9141 C.ar      14 UNK        -0.0881 
     11 C11       -51.5284  -30.5085    9.2302 C.ar      14 UNK        -0.0643 
     12 C12       -52.8099  -30.0256    9.5019 C.ar      14 UNK        -0.0930 
     13 C13       -53.6110  -29.5058    8.4810 C.ar      14 UNK        -0.0827 
     14 C14       -53.1264  -29.4938    7.1701 C.ar      14 UNK        -0.1249 
     15 C15       -55.0125  -28.9979    8.7908 C.3       14 UNK         0.0141 
     16 S16       -55.0146  -27.7751   10.1441 S.3       14 UNK        -0.2313 
     17 C17       -56.5875  -28.1757   10.9831 C.3       14 UNK        -0.0915 
     18 CA        -56.4399  -29.1341   12.1991 C.3       13 UNK         0.0968 
     19 C         -56.2175  -30.6149   11.7747 C.2       13 UNK         0.5732 
     20 N         -57.2472  -31.2655   11.2496 N.am      13 UNK        -0.7310 
     21 O         -55.1262  -31.1703   11.8865 O.2       13 UNK        -0.5035 
     22 N         -55.4494  -28.6309   13.1598 N.am      13 UNK        -0.4233 
     23 C         -55.2587  -29.1023   14.3982 C.2       13 UNK         0.4989 
     24 O         -55.9285  -30.0045   14.9041 O.2       13 UNK        -0.4996 
     25 CA        -54.1445  -28.4417   15.2310 C.3       12 UNK         0.0216 
     26 CB        -52.8266  -29.2180   15.0724 C.3       12 UNK        -0.1964 
     27 N         -53.9085  -27.0240   14.9319 N.am      12 UNK        -0.4276 
     28 C         -54.8166  -26.0442   15.0424 C.2       12 UNK         0.5020 
     29 O         -55.9998  -26.2304   15.3361 O.2       12 UNK        -0.5489 
     30 CA        -54.2914  -24.6140   14.8176 C.3       11 UNK         0.0294 
     31 CB        -55.4168  -23.5984   14.5294 C.3       11 UNK        -0.2019 
     32 N         -53.4539  -24.1607   15.9361 N.am      11 UNK        -0.4493 
     33 C         -53.7928  -24.0992   17.2353 C.2       11 UNK         0.4932 
     34 O         -54.9213  -24.3360   17.6696 O.2       11 UNK        -0.5029 
     35 CA        -52.6750  -23.6991   18.2200 C.3       10 UNK         0.0280 
     36 CB        -53.0555  -23.9504   19.6948 C.3       10 UNK        -0.1976 
     37 N         -51.3794  -24.3188   17.9228 N.am      10 UNK        -0.4242 
     38 C         -51.0836  -25.6210   17.7935 C.2       10 UNK         0.5072 
     39 O         -51.9129  -26.5250   17.9096 O.2       10 UNK        -0.5224 
     40 CA        -49.6060  -25.9683   17.4905 C.3       9 UNK         0.0343 
     41 CB        -49.4223  -27.4399   17.0746 C.3       9 UNK        -0.2003 
     42 N         -49.0041  -25.1123   16.4612 N.am      9 UNK        -0.4272 
     43 C         -48.6566  -23.8257   16.6077 C.2       9 UNK         0.4988 
     44 O         -48.7375  -23.2182   17.6759 O.2       9 UNK        -0.5108 
     45 CA        -48.2163  -23.0628   15.3480 C.3       8 UNK         0.0248 
     46 CB        -46.6995  -23.1943   15.1445 C.3       8 UNK        -0.2001 
     47 N         -48.9199  -23.4762   14.1293 N.am      8 UNK        -0.4140 
     48 C         -50.2479  -23.4217   13.9379 C.2       8 UNK         0.5028 
     49 O         -51.0546  -23.0262   14.7811 O.2       8 UNK        -0.5428 
     50 CA        -50.7677  -23.9412   12.5886 C.3       7 UNK         0.0264 
     51 CB        -50.4952  -22.9372   11.4567 C.3       7 UNK        -0.1988 
     52 N         -50.1867  -25.2425   12.2598 N.am      7 UNK        -0.4454 
     53 C         -50.5038  -26.3889   12.8810 C.2       7 UNK         0.5027 
     54 O         -51.3949  -26.4824   13.7271 O.2       7 UNK        -0.5083 
     55 CA        -49.6665  -27.6318   12.5168 C.3       6 UNK         0.0844 
     56 C56       -50.3134  -28.4007   11.3389 C.3       14 UNK        -0.0967 
     57 S57       -49.3577  -29.8801   10.8506 S.3       14 UNK        -0.2604 
     58 C58       -50.6662  -31.0488   10.3627 C.3       14 UNK         0.0134 
     59 N         -48.2688  -27.2731   12.2543 N.am      6 UNK        -0.4116 
     60 C         -47.3972  -26.8756   13.1929 C.2       5 UNK         0.5034 
     61 O         -47.6789  -26.7692   14.3855 O.2       5 UNK        -0.5045 
     62 CA        -45.9823  -26.4905   12.7231 C.3       5 UNK         0.0224 
     63 CB        -45.0755  -27.7304   12.6845 C.3       5 UNK        -0.1978 
     64 N         -45.9614  -25.8322   11.4147 N.am      5 UNK        -0.4737 
     65 C         -46.5995  -24.6917   11.1166 C.2       4 UNK         0.5027 
     66 O         -47.2116  -24.0198   11.9448 O.2       4 UNK        -0.5211 
     67 CA        -46.6107  -24.2549    9.6412 C.3       4 UNK         0.0297 
     68 CB        -45.5222  -23.2012    9.3874 C.3       4 UNK        -0.1993 
     69 N         -46.4558  -25.3554    8.6822 N.am      4 UNK        -0.4486 
     70 C         -47.2477  -26.4316    8.5848 C.2       3 UNK         0.4961 
     71 O         -48.2156  -26.6339    9.3201 O.2       3 UNK        -0.5105 
     72 CA        -46.8771  -27.4446    7.4858 C.3       3 UNK         0.0299 
     73 CB        -47.5666  -28.8048    7.6941 C.3       3 UNK        -0.1972 
     74 N         -47.2117  -26.9335    6.1558 N.am      3 UNK        -0.4305 
     75 C         -46.5469  -25.9696    5.4994 C.2       2 UNK         0.5006 
     76 O         -45.5221  -25.4395    5.9332 O.2       2 UNK        -0.5106 
     77 CA        -47.1005  -25.5128    4.1345 C.3       2 UNK         0.0296 
     78 CB        -46.2185  -26.0419    2.9917 C.3       2 UNK        -0.2002 
     79 N         -48.4868  -25.9207    3.8929 N.am      2 UNK        -0.4032 
     80 C         -49.5609  -25.4157    4.5180 C.2       1 UNK         0.5000 
     81 O         -49.5119  -24.4808    5.3179 O.2       1 UNK        -0.5238 
     82 H82       -51.7991  -23.9860    2.4315 H         1 UNK         0.0889 
     83 H83       -51.3150  -23.9580    0.7450 H         1 UNK         0.0889 
     84 H84       -50.0797  -23.9649    1.9972 H         1 UNK         0.0889 
     85 H85       -51.0034  -27.5993    2.7581 H         1 UNK         0.3028 
     86 H86       -51.6786  -25.2992    4.3103 H         1 UNK         0.0864 
     87 H87       -52.2889  -27.4873    5.1008 H         1 UNK         0.0720 
     88 H88       -51.1987  -26.7842    6.2557 H         1 UNK         0.0720 
     89 H89       -50.8442  -30.9558    5.2477 H         1 UNK         0.0814 
     90 H90       -52.1720  -29.9477    4.7373 H         1 UNK         0.0814 
     91 H91       -50.0669  -30.8761    7.6968 H         1 UNK         0.1469 
     92 H92       -53.1852  -30.0465   10.5157 H         1 UNK         0.1381 
     93 H93       -53.7454  -29.1068    6.3723 H         1 UNK         0.1206 
     94 H94       -55.4688  -28.5426    7.9107 H         1 UNK         0.0813 
     95 H95       -55.6326  -29.8564    9.0480 H         1 UNK         0.0813 
     96 H96       -57.3067  -28.5614   10.2584 H         1 UNK         0.0638 
     97 H97       -57.0111  -27.2316   11.3291 H         1 UNK         0.0638 
     98 H98       -57.3945  -29.1214   12.7287 H         1 UNK         0.0568 
     99 H99       -57.1221  -32.2228   10.9607 H         1 UNK         0.3450 
    100 H100      -58.1487  -30.8262   11.1481 H         1 UNK         0.3450 
    101 H101      -54.8377  -27.9053   12.8190 H         1 UNK         0.2987 
    102 H102      -54.4481  -28.4989   16.2783 H         1 UNK         0.0766 
    103 H103      -52.0579  -28.8290   15.7402 H         1 UNK         0.0798 
    104 H104      -52.4456  -29.1628   14.0519 H         1 UNK         0.0798 
    105 H105      -52.9615  -30.2731   15.3145 H         1 UNK         0.0798 
    106 H106      -52.9593  -26.7761   14.6540 H         1 UNK         0.3198 
    107 H107      -53.6510  -24.6489   13.9369 H         1 UNK         0.0843 
    108 H108      -56.1032  -23.4986   15.3708 H         1 UNK         0.0831 
    109 H109      -56.0065  -23.9082   13.6659 H         1 UNK         0.0831 
    110 H110      -55.0112  -22.6110   14.3092 H         1 UNK         0.0831 
    111 H111      -52.5042  -23.8934   15.6824 H         1 UNK         0.3133 
    112 H112      -52.5325  -22.6249   18.0941 H         1 UNK         0.0566 
    113 H113      -52.2628  -23.6284   20.3700 H         1 UNK         0.0814 
    114 H114      -53.9553  -23.3980   19.9685 H         1 UNK         0.0814 
    115 H115      -53.2502  -25.0065   19.8853 H         1 UNK         0.0814 
    116 H116      -50.6003  -23.6749   17.8164 H         1 UNK         0.3091 
    117 H117      -49.0547  -25.8173   18.4207 H         1 UNK         0.0702 
    118 H118      -48.3682  -27.6850   16.9437 H         1 UNK         0.0785 
    119 H119      -49.9333  -27.6545   16.1352 H         1 UNK         0.0785 
    120 H120      -49.8184  -28.1200   17.8298 H         1 UNK         0.0785 
    121 H121      -48.8495  -25.5475   15.5580 H         1 UNK         0.2998 
    122 H122      -48.4475  -22.0077   15.5073 H         1 UNK         0.0697 
    123 H123      -46.4043  -24.2329   14.9987 H         1 UNK         0.0825 
    124 H124      -46.1557  -22.8205   16.0131 H         1 UNK         0.0825 
    125 H125      -46.3614  -22.6233   14.2795 H         1 UNK         0.0825 
    126 H126      -48.3331  -23.7800   13.3532 H         1 UNK         0.3029 
    127 H127      -51.8489  -24.0608   12.6672 H         1 UNK         0.0897 
    128 H128      -49.4303  -22.7549   11.3134 H         1 UNK         0.0792 
    129 H129      -50.9616  -21.9751   11.6732 H         1 UNK         0.0792 
    130 H130      -50.9045  -23.2885   10.5094 H         1 UNK         0.0792 
    131 H131      -49.4281  -25.2506   11.5920 H         1 UNK         0.3086 
    132 H132      -49.6777  -28.2906   13.3880 H         1 UNK         0.0583 
    133 H133      -51.3252  -28.7051   11.6123 H         1 UNK         0.1020 
    134 H134      -50.4153  -27.7610   10.4596 H         1 UNK         0.1020 
    135 H135      -50.2034  -31.9859   10.0503 H         1 UNK         0.0694 
    136 H136      -51.2772  -31.2866   11.2352 H         1 UNK         0.0694 
    137 H137      -47.9842  -27.2875   11.2810 H         1 UNK         0.2989 
    138 H138      -45.5722  -25.7895   13.4519 H         1 UNK         0.1055 
    139 H139      -45.0552  -28.2281   13.6552 H         1 UNK         0.0806 
    140 H140      -44.0474  -27.4640   12.4384 H         1 UNK         0.0806 
    141 H141      -45.4193  -28.4613   11.9512 H         1 UNK         0.0806 
    142 H142      -45.4818  -26.3126   10.6674 H         1 UNK         0.3061 
    143 H143      -47.5830  -23.7959    9.4509 H         1 UNK         0.0734 
    144 H144      -44.5219  -23.6110    9.5326 H         1 UNK         0.0832 
    145 H145      -45.5802  -22.8061    8.3729 H         1 UNK         0.0832 
    146 H146      -45.6307  -22.3561   10.0690 H         1 UNK         0.0832 
    147 H147      -45.7360  -25.2505    7.9740 H         1 UNK         0.3156 
    148 H148      -45.7988  -27.6109    7.5324 H         1 UNK         0.0589 
    149 H149      -48.6528  -28.7093    7.7130 H         1 UNK         0.0808 
    150 H150      -47.3044  -29.5131    6.9081 H         1 UNK         0.0808 
    151 H151      -47.2669  -29.2489    8.6440 H         1 UNK         0.0808 
    152 H152      -48.0525  -27.3056    5.7366 H         1 UNK         0.3098 
    153 H153      -47.0607  -24.4215    4.1195 H         1 UNK         0.0720 
    154 H154      -46.5530  -25.6656    2.0247 H         1 UNK         0.0791 
    155 H155      -46.2228  -27.1319    2.9492 H         1 UNK         0.0791 
    156 H156      -45.1822  -25.7251    3.1189 H         1 UNK         0.0791 
    157 H157      -48.6303  -26.6884    3.2518 H         1 UNK         0.3028 
@<TRIPOS>BOND
     1    1    2 1    
     2    1   82 1    
     3    1   83 1    
     4    1   84 1    
     5    2    3 2    
     6    2    4 am   BACKBONE|DICT|INTERRES
     7    4    5 1    
     8    4   85 1    
     9    5    6 1    
    10    5   80 1    
    11    5   86 1    
    12    6    7 1    
    13    6   87 1    
    14    6   88 1    
    15    7    8 1    
    16    8    9 1    
    17    8   89 1    
    18    8   90 1    
    19    9   10 ar   
    20    9   14 ar   
    21   10   11 ar   
    22   10   91 1    
    23   11   12 ar   
    24   11   58 1    
    25   12   13 ar   
    26   12   92 1    
    27   13   14 ar   
    28   13   15 1    
    29   14   93 1    
    30   15   16 1    
    31   15   94 1    
    32   15   95 1    
    33   16   17 1    
    34   17   18 1    
    35   17   96 1    
    36   17   97 1    
    37   18   19 1    
    38   18   22 1    
    39   18   98 1    
    40   19   20 am   BACKBONE|DICT|INTERRES
    41   19   21 2    
    42   20   99 1    
    43   20  100 1    
    44   22   23 am   BACKBONE|DICT|INTERRES
    45   22  101 1    
    46   23   24 2    
    47   23   25 1    
    48   25   26 1    
    49   25   27 1    
    50   25  102 1    
    51   26  103 1    
    52   26  104 1    
    53   26  105 1    
    54   27   28 am   BACKBONE|DICT|INTERRES
    55   27  106 1    
    56   28   29 2    
    57   28   30 1    
    58   30   31 1    
    59   30   32 1    
    60   30  107 1    
    61   31  108 1    
    62   31  109 1    
    63   31  110 1    
    64   32   33 am   BACKBONE|DICT|INTERRES
    65   32  111 1    
    66   33   34 2    
    67   33   35 1    
    68   35   36 1    
    69   35   37 1    
    70   35  112 1    
    71   36  113 1    
    72   36  114 1    
    73   36  115 1    
    74   37   38 am   BACKBONE|DICT|INTERRES
    75   37  116 1    
    76   38   39 2    
    77   38   40 1    
    78   40   41 1    
    79   40   42 1    
    80   40  117 1    
    81   41  118 1    
    82   41  119 1    
    83   41  120 1    
    84   42   43 am   BACKBONE|DICT|INTERRES
    85   42  121 1    
    86   43   44 2    
    87   43   45 1    
    88   45   46 1    
    89   45   47 1    
    90   45  122 1    
    91   46  123 1    
    92   46  124 1    
    93   46  125 1    
    94   47   48 am   BACKBONE|DICT|INTERRES
    95   47  126 1    
    96   48   49 2    
    97   48   50 1    
    98   50   51 1    
    99   50   52 1    
   100   50  127 1    
   101   51  128 1    
   102   51  129 1    
   103   51  130 1    
   104   52   53 am   BACKBONE|DICT|INTERRES
   105   52  131 1    
   106   53   54 2    
   107   53   55 1    
   108   55   56 1    
   109   55   59 1    
   110   55  132 1    
   111   56   57 1    
   112   56  133 1    
   113   56  134 1    
   114   57   58 1    
   115   58  135 1    
   116   58  136 1    
   117   59   60 am   BACKBONE|DICT|INTERRES
   118   59  137 1    
   119   60   61 2    
   120   60   62 1    
   121   62   63 1    
   122   62   64 1    
   123   62  138 1    
   124   63  139 1    
   125   63  140 1    
   126   63  141 1    
   127   64   65 am   BACKBONE|DICT|INTERRES
   128   64  142 1    
   129   65   66 2    
   130   65   67 1    
   131   67   68 1    
   132   67   69 1    
   133   67  143 1    
   134   68  144 1    
   135   68  145 1    
   136   68  146 1    
   137   69   70 am   BACKBONE|DICT|INTERRES
   138   69  147 1    
   139   70   71 2    
   140   70   72 1    
   141   72   73 1    
   142   72   74 1    
   143   72  148 1    
   144   73  149 1    
   145   73  150 1    
   146   73  151 1    
   147   74   75 am   BACKBONE|DICT|INTERRES
   148   74  152 1    
   149   75   76 2    
   150   75   77 1    
   151   77   78 1    
   152   77   79 1    
   153   77  153 1    
   154   78  154 1    
   155   78  155 1    
   156   78  156 1    
   157   79   80 am   BACKBONE|DICT|INTERRES
   158   79  157 1    
   159   80   81 2    
@<TRIPOS>SUBSTRUCTURE
     1 UNK         1 GROUP             0       ****    0 ROOT    
