@<TRIPOS>MOLECULE
3R207
157   159    1
SMALL
USER_CHARGES


@<TRIPOS>ATOM
      1 CA        -47.1571  -32.7120    4.2248 C.3       0 UNK        -0.1975 
      2 C         -47.0346  -31.4717    5.0979 C.2       0 UNK         0.4852 
      3 O         -45.9215  -31.1005    5.4722 O.2       0 UNK        -0.5216 
      4 N         -48.1706  -30.8376    5.4209 N.am      1 UNK        -0.4461 
      5 CA        -48.2995  -29.6187    6.2285 C.3       1 UNK         0.0864 
      6 C6        -47.8962  -29.8087    7.7195 C.3       14 UNK        -0.0898 
      7 S7        -49.0433  -30.9024    8.6229 S.3       14 UNK        -0.2598 
      8 C8        -49.8069  -29.7510    9.8164 C.3       14 UNK         0.0286 
      9 C9        -51.0326  -29.0451    9.2490 C.ar      14 UNK        -0.0844 
     10 C10       -50.8988  -28.0719    8.2556 C.ar      14 UNK        -0.0881 
     11 C11       -52.0206  -27.4110    7.7451 C.ar      14 UNK        -0.0643 
     12 C12       -53.2853  -27.7249    8.2506 C.ar      14 UNK        -0.0930 
     13 C13       -53.4431  -28.6915    9.2493 C.ar      14 UNK        -0.0827 
     14 C14       -52.3066  -29.3528    9.7365 C.ar      14 UNK        -0.1249 
     15 C15       -54.8624  -29.0147    9.7256 C.3       14 UNK         0.0141 
     16 S16       -54.9890  -29.9486   11.2902 S.3       14 UNK        -0.2313 
     17 C17       -54.7127  -28.6510   12.5445 C.3       14 UNK        -0.0915 
     18 CA        -56.0148  -28.2159   13.2769 C.3       13 UNK         0.0968 
     19 C         -56.5248  -29.2643   14.3169 C.2       13 UNK         0.5732 
     20 N         -56.7278  -28.9215   15.5847 N.am      13 UNK        -0.7310 
     21 O         -56.7719  -30.4156   13.9689 O.2       13 UNK        -0.5035 
     22 N         -55.8574  -26.8692   13.8425 N.am      13 UNK        -0.4233 
     23 C         -56.8395  -25.9647   13.9556 C.2       13 UNK         0.4989 
     24 O         -57.9654  -26.1194   13.4792 O.2       13 UNK        -0.4996 
     25 CA        -56.5093  -24.6689   14.7298 C.3       12 UNK         0.0216 
     26 CB        -57.7660  -23.9806   15.3051 C.3       12 UNK        -0.1964 
     27 N         -55.4902  -24.8486   15.7755 N.am      12 UNK        -0.4276 
     28 C         -55.5701  -25.6749   16.8284 C.2       12 UNK         0.5020 
     29 O         -56.5391  -26.3956   17.0761 O.2       12 UNK        -0.5489 
     30 CA        -54.3195  -25.7705   17.7154 C.3       11 UNK         0.0294 
     31 CB        -54.6706  -25.5265   19.1928 C.3       11 UNK        -0.2019 
     32 N         -53.6474  -27.0672   17.5835 N.am      11 UNK        -0.4493 
     33 C         -53.2103  -27.6020   16.4363 C.2       11 UNK         0.4932 
     34 O         -53.3847  -27.1024   15.3193 O.2       11 UNK        -0.5029 
     35 CA        -52.4035  -28.8975   16.5443 C.3       10 UNK         0.0280 
     36 CB        -53.2565  -30.1392   16.2411 C.3       10 UNK        -0.1976 
     37 N         -51.3434  -28.7505   15.5619 N.am      10 UNK        -0.4242 
     38 C         -50.0649  -29.0971   15.7180 C.2       10 UNK         0.5072 
     39 O         -49.6499  -29.8626   16.5893 O.2       10 UNK        -0.5224 
     40 CA        -49.0769  -28.4042   14.7629 C.3       9 UNK         0.0343 
     41 CB        -49.0256  -29.1435   13.4168 C.3       9 UNK        -0.2003 
     42 N         -49.4012  -26.9877   14.5300 N.am      9 UNK        -0.4272 
     43 C         -49.4754  -26.0411   15.4825 C.2       9 UNK         0.4988 
     44 O         -49.2297  -26.2484   16.6711 O.2       9 UNK        -0.5108 
     45 CA        -49.9013  -24.6274   15.0588 C.3       8 UNK         0.0248 
     46 CB        -48.6749  -23.8074   14.6247 C.3       8 UNK        -0.2001 
     47 N         -50.8787  -24.6452   13.9689 N.am      8 UNK        -0.4140 
     48 C         -52.1632  -24.2707   14.0689 C.2       8 UNK         0.5028 
     49 O         -52.6968  -23.9150   15.1227 O.2       8 UNK        -0.5428 
     50 CA        -53.0334  -24.3094   12.7942 C.3       7 UNK         0.0264 
     51 CB        -53.7775  -22.9736   12.5689 C.3       7 UNK        -0.1988 
     52 N         -52.3359  -24.7402   11.5743 N.am      7 UNK        -0.4454 
     53 C         -51.3698  -24.0930   10.9053 C.2       7 UNK         0.5027 
     54 O         -50.9381  -22.9771   11.1994 O.2       7 UNK        -0.5083 
     55 CA        -50.7502  -24.8604    9.7252 C.3       6 UNK         0.0844 
     56 C56       -51.1864  -24.2417    8.3751 C.3       14 UNK        -0.0967 
     57 S57       -50.5529  -25.1615    6.9341 S.3       14 UNK        -0.2604 
     58 C58       -51.8797  -26.3749    6.6338 C.3       14 UNK         0.0134 
     59 N         -49.2957  -24.9717    9.8677 N.am      6 UNK        -0.4116 
     60 C         -48.6681  -25.5499   10.9023 C.2       5 UNK         0.5034 
     61 O         -49.2586  -26.0720   11.8512 O.2       5 UNK        -0.5045 
     62 CA        -47.1313  -25.5511   10.8985 C.3       5 UNK         0.0224 
     63 CB        -46.5896  -26.9307   10.4935 C.3       5 UNK        -0.1978 
     64 N         -46.5717  -24.5398    9.9996 N.am      5 UNK        -0.4737 
     65 C         -46.2397  -23.2958   10.3707 C.2       4 UNK         0.5027 
     66 O         -46.3642  -22.8736   11.5203 O.2       4 UNK        -0.5211 
     67 CA        -45.6482  -22.3642    9.2954 C.3       4 UNK         0.0297 
     68 CB        -44.1170  -22.3091    9.4229 C.3       4 UNK        -0.1993 
     69 N         -45.9983  -22.7494    7.9260 N.am      4 UNK        -0.4486 
     70 C         -47.2091  -22.5869    7.3764 C.2       3 UNK         0.4961 
     71 O         -48.1563  -22.0523    7.9523 O.2       3 UNK        -0.5105 
     72 CA        -47.4047  -23.1335    5.9494 C.3       3 UNK         0.0299 
     73 CB        -47.0870  -22.0429    4.9137 C.3       3 UNK        -0.1972 
     74 N         -46.6355  -24.3456    5.6302 N.am      3 UNK        -0.4305 
     75 C         -46.6622  -25.4920    6.3245 C.2       2 UNK         0.5006 
     76 O         -47.2417  -25.6312    7.4035 O.2       2 UNK        -0.5106 
     77 CA        -45.8578  -26.6681    5.7503 C.3       2 UNK         0.0296 
     78 CB        -44.4244  -26.6516    6.3057 C.3       2 UNK        -0.2002 
     79 N         -46.4939  -27.9352    6.1112 N.am      2 UNK        -0.4032 
     80 C         -47.6078  -28.4187    5.5426 C.2       1 UNK         0.5000 
     81 O         -48.1129  -27.9445    4.5224 O.2       1 UNK        -0.5238 
     82 H82       -48.1935  -32.9302    3.9673 H         1 UNK         0.0889 
     83 H83       -46.7480  -33.5778    4.7450 H         1 UNK         0.0889 
     84 H84       -46.5990  -32.5752    3.2988 H         1 UNK         0.0889 
     85 H85       -49.0434  -31.1956    5.0590 H         1 UNK         0.3028 
     86 H86       -49.3625  -29.3752    6.2078 H         1 UNK         0.0864 
     87 H87       -46.8918  -30.2252    7.8078 H         1 UNK         0.0720 
     88 H88       -47.8672  -28.8487    8.2334 H         1 UNK         0.0720 
     89 H89       -49.0815  -29.0140   10.1631 H         1 UNK         0.0814 
     90 H90       -50.0851  -30.3269   10.7001 H         1 UNK         0.0814 
     91 H91       -49.9189  -27.8111    7.8849 H         1 UNK         0.1469 
     92 H92       -54.1574  -27.2226    7.8540 H         1 UNK         0.1381 
     93 H93       -52.4032  -30.1148   10.4962 H         1 UNK         0.1206 
     94 H94       -55.3509  -29.6014    8.9466 H         1 UNK         0.0813 
     95 H95       -55.4408  -28.0944    9.8224 H         1 UNK         0.0813 
     96 H96       -53.9616  -28.9997   13.2532 H         1 UNK         0.0638 
     97 H97       -54.2599  -27.7940   12.0437 H         1 UNK         0.0638 
     98 H98       -56.7984  -28.1588   12.5192 H         1 UNK         0.0568 
     99 H99       -56.5891  -27.9724   15.9161 H         1 UNK         0.3450 
    100 H100      -57.0723  -29.6203   16.2225 H         1 UNK         0.3450 
    101 H101      -54.9797  -26.7103   14.3294 H         1 UNK         0.2987 
    102 H102      -56.0826  -23.9912   13.9929 H         1 UNK         0.0766 
    103 H103      -58.2988  -24.6275   16.0028 H         1 UNK         0.0798 
    104 H104      -57.5090  -23.0607   15.8302 H         1 UNK         0.0798 
    105 H105      -58.4656  -23.7131   14.5122 H         1 UNK         0.0798 
    106 H106      -54.6054  -24.3681   15.6240 H         1 UNK         0.3198 
    107 H107      -53.6088  -25.0006   17.4085 H         1 UNK         0.0843 
    108 H108      -55.1702  -24.5651   19.3201 H         1 UNK         0.0831 
    109 H109      -53.7776  -25.5109   19.8178 H         1 UNK         0.0831 
    110 H110      -55.3409  -26.2946   19.5814 H         1 UNK         0.0831 
    111 H111      -53.4765  -27.5689   18.4430 H         1 UNK         0.3133 
    112 H112      -51.9781  -28.9760   17.5473 H         1 UNK         0.0566 
    113 H113      -52.6634  -31.0507   16.3161 H         1 UNK         0.0814 
    114 H114      -54.0819  -30.2276   16.9485 H         1 UNK         0.0814 
    115 H115      -53.6867  -30.1054   15.2414 H         1 UNK         0.0814 
    116 H116      -51.5720  -28.0845   14.8338 H         1 UNK         0.3091 
    117 H117      -48.0865  -28.4475   15.2203 H         1 UNK         0.0702 
    118 H118      -48.2484  -28.7348   12.7736 H         1 UNK         0.0785 
    119 H119      -49.9741  -29.0731   12.8829 H         1 UNK         0.0785 
    120 H120      -48.8047  -30.2024   13.5576 H         1 UNK         0.0785 
    121 H121      -49.5274  -26.7118   13.5593 H         1 UNK         0.2998 
    122 H122      -50.3324  -24.1429   15.9375 H         1 UNK         0.0697 
    123 H123      -48.1830  -24.2384   13.7525 H         1 UNK         0.0825 
    124 H124      -47.9351  -23.7569   15.4248 H         1 UNK         0.0825 
    125 H125      -48.9529  -22.7831   14.3757 H         1 UNK         0.0825 
    126 H126      -50.5340  -24.9467   13.0653 H         1 UNK         0.3029 
    127 H127      -53.7858  -25.0744   12.9866 H         1 UNK         0.0897 
    128 H128      -54.4971  -23.0538   11.7543 H         1 UNK         0.0792 
    129 H129      -54.3264  -22.6647   13.4581 H         1 UNK         0.0792 
    130 H130      -53.0953  -22.1570   12.3339 H         1 UNK         0.0792 
    131 H131      -52.5858  -25.6641   11.2472 H         1 UNK         0.3086 
    132 H132      -51.1353  -25.8776    9.7728 H         1 UNK         0.0583 
    133 H133      -52.2747  -24.1879    8.3068 H         1 UNK         0.1020 
    134 H134      -50.8275  -23.2130    8.2986 H         1 UNK         0.1020 
    135 H135      -52.8172  -25.8394    6.4760 H         1 UNK         0.0694 
    136 H136      -51.6635  -26.8983    5.7017 H         1 UNK         0.0694 
    137 H137      -48.7410  -24.5877    9.1155 H         1 UNK         0.2989 
    138 H138      -46.8069  -25.3527   11.9224 H         1 UNK         0.1055 
    139 H139      -45.5016  -26.9606   10.5528 H         1 UNK         0.0806 
    140 H140      -46.8747  -27.1919    9.4760 H         1 UNK         0.0806 
    141 H141      -46.9691  -27.7126   11.1501 H         1 UNK         0.0806 
    142 H142      -46.5083  -24.8004    9.0197 H         1 UNK         0.3061 
    143 H143      -46.0415  -21.3620    9.4802 H         1 UNK         0.0734 
    144 H144      -43.8206  -21.9932   10.4243 H         1 UNK         0.0832 
    145 H145      -43.6606  -23.2830    9.2414 H         1 UNK         0.0832 
    146 H146      -43.6842  -21.5968    8.7202 H         1 UNK         0.0832 
    147 H147      -45.2805  -23.1992    7.3768 H         1 UNK         0.3156 
    148 H148      -48.4599  -23.3911    5.8478 H         1 UNK         0.0589 
    149 H149      -46.0316  -21.7677    4.9268 H         1 UNK         0.0808 
    150 H150      -47.3385  -22.3673    3.9038 H         1 UNK         0.0808 
    151 H151      -47.6621  -21.1371    5.1117 H         1 UNK         0.0808 
    152 H152      -46.1062  -24.3213    4.7701 H         1 UNK         0.3098 
    153 H153      -45.8212  -26.5855    4.6619 H         1 UNK         0.0720 
    154 H154      -43.8393  -27.4849    5.9157 H         1 UNK         0.0791 
    155 H155      -44.4111  -26.7137    7.3951 H         1 UNK         0.0791 
    156 H156      -43.9051  -25.7343    6.0250 H         1 UNK         0.0791 
    157 H157      -46.1391  -28.3941    6.9363 H         1 UNK         0.3028 
@<TRIPOS>BOND
     1    1    2 1    
     2    1   82 1    
     3    1   83 1    
     4    1   84 1    
     5    2    3 2    
     6    2    4 am   BACKBONE|DICT|INTERRES
     7    4    5 1    
     8    4   85 1    
     9    5    6 1    
    10    5   80 1    
    11    5   86 1    
    12    6    7 1    
    13    6   87 1    
    14    6   88 1    
    15    7    8 1    
    16    8    9 1    
    17    8   89 1    
    18    8   90 1    
    19    9   10 ar   
    20    9   14 ar   
    21   10   11 ar   
    22   10   91 1    
    23   11   12 ar   
    24   11   58 1    
    25   12   13 ar   
    26   12   92 1    
    27   13   14 ar   
    28   13   15 1    
    29   14   93 1    
    30   15   16 1    
    31   15   94 1    
    32   15   95 1    
    33   16   17 1    
    34   17   18 1    
    35   17   96 1    
    36   17   97 1    
    37   18   19 1    
    38   18   22 1    
    39   18   98 1    
    40   19   20 am   BACKBONE|DICT|INTERRES
    41   19   21 2    
    42   20   99 1    
    43   20  100 1    
    44   22   23 am   BACKBONE|DICT|INTERRES
    45   22  101 1    
    46   23   24 2    
    47   23   25 1    
    48   25   26 1    
    49   25   27 1    
    50   25  102 1    
    51   26  103 1    
    52   26  104 1    
    53   26  105 1    
    54   27   28 am   BACKBONE|DICT|INTERRES
    55   27  106 1    
    56   28   29 2    
    57   28   30 1    
    58   30   31 1    
    59   30   32 1    
    60   30  107 1    
    61   31  108 1    
    62   31  109 1    
    63   31  110 1    
    64   32   33 am   BACKBONE|DICT|INTERRES
    65   32  111 1    
    66   33   34 2    
    67   33   35 1    
    68   35   36 1    
    69   35   37 1    
    70   35  112 1    
    71   36  113 1    
    72   36  114 1    
    73   36  115 1    
    74   37   38 am   BACKBONE|DICT|INTERRES
    75   37  116 1    
    76   38   39 2    
    77   38   40 1    
    78   40   41 1    
    79   40   42 1    
    80   40  117 1    
    81   41  118 1    
    82   41  119 1    
    83   41  120 1    
    84   42   43 am   BACKBONE|DICT|INTERRES
    85   42  121 1    
    86   43   44 2    
    87   43   45 1    
    88   45   46 1    
    89   45   47 1    
    90   45  122 1    
    91   46  123 1    
    92   46  124 1    
    93   46  125 1    
    94   47   48 am   BACKBONE|DICT|INTERRES
    95   47  126 1    
    96   48   49 2    
    97   48   50 1    
    98   50   51 1    
    99   50   52 1    
   100   50  127 1    
   101   51  128 1    
   102   51  129 1    
   103   51  130 1    
   104   52   53 am   BACKBONE|DICT|INTERRES
   105   52  131 1    
   106   53   54 2    
   107   53   55 1    
   108   55   56 1    
   109   55   59 1    
   110   55  132 1    
   111   56   57 1    
   112   56  133 1    
   113   56  134 1    
   114   57   58 1    
   115   58  135 1    
   116   58  136 1    
   117   59   60 am   BACKBONE|DICT|INTERRES
   118   59  137 1    
   119   60   61 2    
   120   60   62 1    
   121   62   63 1    
   122   62   64 1    
   123   62  138 1    
   124   63  139 1    
   125   63  140 1    
   126   63  141 1    
   127   64   65 am   BACKBONE|DICT|INTERRES
   128   64  142 1    
   129   65   66 2    
   130   65   67 1    
   131   67   68 1    
   132   67   69 1    
   133   67  143 1    
   134   68  144 1    
   135   68  145 1    
   136   68  146 1    
   137   69   70 am   BACKBONE|DICT|INTERRES
   138   69  147 1    
   139   70   71 2    
   140   70   72 1    
   141   72   73 1    
   142   72   74 1    
   143   72  148 1    
   144   73  149 1    
   145   73  150 1    
   146   73  151 1    
   147   74   75 am   BACKBONE|DICT|INTERRES
   148   74  152 1    
   149   75   76 2    
   150   75   77 1    
   151   77   78 1    
   152   77   79 1    
   153   77  153 1    
   154   78  154 1    
   155   78  155 1    
   156   78  156 1    
   157   79   80 am   BACKBONE|DICT|INTERRES
   158   79  157 1    
   159   80   81 2    
@<TRIPOS>SUBSTRUCTURE
     1 UNK         1 GROUP             0       ****    0 ROOT    
