@<TRIPOS>MOLECULE
3R207
157   159    1
SMALL
USER_CHARGES


@<TRIPOS>ATOM
      1 CA        -47.3721  -32.6254    4.2515 C.3       0 UNK        -0.1975 
      2 C         -48.2581  -31.4063    4.4626 C.2       0 UNK         0.4852 
      3 O         -49.3893  -31.3803    3.9759 O.2       0 UNK        -0.5216 
      4 N         -47.7535  -30.3986    5.1816 N.am      1 UNK        -0.4461 
      5 CA        -48.4450  -29.1491    5.4790 C.3       1 UNK         0.0864 
      6 C6        -49.3390  -29.2819    6.7422 C.3       14 UNK        -0.0898 
      7 S7        -50.1495  -27.7357    7.2824 S.3       14 UNK        -0.2598 
      8 C8        -51.7982  -27.8823    6.5205 C.3       14 UNK         0.0286 
      9 C9        -52.8167  -26.9969    7.2273 C.ar      14 UNK        -0.0844 
     10 C10       -52.6390  -25.6107    7.2769 C.ar      14 UNK        -0.0881 
     11 C11       -53.5459  -24.8007    7.9684 C.ar      14 UNK        -0.0643 
     12 C12       -54.6585  -25.3821    8.5811 C.ar      14 UNK        -0.0930 
     13 C13       -54.8597  -26.7633    8.5208 C.ar      14 UNK        -0.0827 
     14 C14       -53.9367  -27.5652    7.8420 C.ar      14 UNK        -0.1249 
     15 C15       -56.0720  -27.3836    9.1979 C.3       14 UNK         0.0141 
     16 S16       -55.6910  -27.9000   10.9002 S.3       14 UNK        -0.2313 
     17 C17       -54.7322  -29.4206   10.5912 C.3       14 UNK        -0.0915 
     18 CA        -54.7324  -30.3707   11.8133 C.3       13 UNK         0.0968 
     19 C         -54.1389  -31.7610   11.4483 C.2       13 UNK         0.5732 
     20 N         -54.9091  -32.5980   10.7662 N.am      13 UNK        -0.7310 
     21 O         -52.9896  -32.0807   11.7462 O.2       13 UNK        -0.5035 
     22 N         -54.0802  -29.7386   12.9670 N.am      13 UNK        -0.4233 
     23 C         -54.1173  -30.2073   14.2204 C.2       13 UNK         0.4989 
     24 O         -54.7187  -31.2279   14.5595 O.2       13 UNK        -0.4996 
     25 CA        -53.3775  -29.3859   15.2894 C.3       12 UNK         0.0216 
     26 CB        -51.9266  -29.8729   15.4266 C.3       12 UNK        -0.1964 
     27 N         -53.3855  -27.9465   15.0174 N.am      12 UNK        -0.4276 
     28 C         -54.4751  -27.1672   15.0292 C.2       12 UNK         0.5020 
     29 O         -55.6023  -27.5620   15.3355 O.2       12 UNK        -0.5489 
     30 CA        -54.2388  -25.6971   14.6437 C.3       11 UNK         0.0294 
     31 CB        -55.5319  -24.8565   14.5883 C.3       11 UNK        -0.2019 
     32 N         -53.2262  -25.0686   15.5009 N.am      11 UNK        -0.4493 
     33 C         -53.2876  -24.8595   16.8258 C.2       11 UNK         0.4932 
     34 O         -54.2671  -25.1299   17.5225 O.2       11 UNK        -0.5029 
     35 CA        -52.0396  -24.2246   17.4770 C.3       10 UNK         0.0280 
     36 CB        -52.0339  -24.3462   19.0160 C.3       10 UNK        -0.1976 
     37 N         -50.7724  -24.7086   16.9140 N.am      10 UNK        -0.4242 
     38 C         -50.3258  -25.9760   16.8868 C.2       10 UNK         0.5072 
     39 O         -50.9356  -26.9228   17.3843 O.2       10 UNK        -0.5224 
     40 CA        -48.9833  -26.2403   16.1777 C.3       9 UNK         0.0343 
     41 CB        -49.0016  -27.5674   15.3991 C.3       9 UNK        -0.2003 
     42 N         -48.6502  -25.1573   15.2518 N.am      9 UNK        -0.4272 
     43 C         -47.5764  -24.3601   15.3341 C.2       9 UNK         0.4988 
     44 O         -46.6802  -24.4979   16.1676 O.2       9 UNK        -0.5108 
     45 CA        -47.4910  -23.1870   14.3352 C.3       8 UNK         0.0248 
     46 CB        -46.6356  -23.5900   13.1228 C.3       8 UNK        -0.2001 
     47 N         -48.7929  -22.7018   13.8620 N.am      8 UNK        -0.4140 
     48 C         -49.7847  -22.2375   14.6382 C.2       8 UNK         0.5028 
     49 O         -49.6887  -22.0949   15.8570 O.2       8 UNK        -0.5428 
     50 CA        -51.1452  -21.9706   13.9644 C.3       7 UNK         0.0264 
     51 CB        -51.2759  -20.4860   13.5912 C.3       7 UNK        -0.1988 
     52 N         -51.4167  -22.7926   12.7776 N.am      7 UNK        -0.4454 
     53 C         -51.3586  -24.1308   12.7066 C.2       7 UNK         0.5027 
     54 O         -51.0753  -24.8355   13.6797 O.2       7 UNK        -0.5083 
     55 CA        -51.6408  -24.7778   11.3320 C.3       6 UNK         0.0844 
     56 C56       -51.4249  -23.8057   10.1372 C.3       14 UNK        -0.0967 
     57 S57       -52.8963  -22.7869    9.7780 S.3       14 UNK        -0.2604 
     58 C58       -53.3110  -23.3003    8.0763 C.3       14 UNK         0.0134 
     59 N         -50.8327  -25.9857   11.1688 N.am      6 UNK        -0.4116 
     60 C         -51.1252  -27.2108   11.6287 C.2       5 UNK         0.5034 
     61 O         -52.1479  -27.4890   12.2589 O.2       5 UNK        -0.5045 
     62 CA        -50.1111  -28.3311   11.3288 C.3       5 UNK         0.0224 
     63 CB        -50.7804  -29.4752   10.5519 C.3       5 UNK        -0.1978 
     64 N         -48.9503  -27.8579   10.5662 N.am      5 UNK        -0.4737 
     65 C         -47.7942  -27.4596   11.1134 C.2       4 UNK         0.5027 
     66 O         -47.5610  -27.4895   12.3197 O.2       4 UNK        -0.5211 
     67 CA        -46.7191  -26.9141   10.1586 C.3       4 UNK         0.0297 
     68 CB        -45.8031  -28.0525    9.6852 C.3       4 UNK        -0.1993 
     69 N         -47.2593  -26.1959    8.9980 N.am      4 UNK        -0.4486 
     70 C         -47.9634  -25.0554    9.0752 C.2       3 UNK         0.4961 
     71 O         -48.2943  -24.5469   10.1468 O.2       3 UNK        -0.5105 
     72 CA        -48.4321  -24.3798    7.7699 C.3       3 UNK         0.0299 
     73 CB        -48.1708  -22.8595    7.7806 C.3       3 UNK        -0.1972 
     74 N         -47.9450  -25.0011    6.5343 N.am      3 UNK        -0.4305 
     75 C         -46.6933  -25.0469    6.0534 C.2       2 UNK         0.5006 
     76 O         -45.7234  -24.5108    6.5906 O.2       2 UNK        -0.5106 
     77 CA        -46.5134  -25.8721    4.7608 C.3       2 UNK         0.0296 
     78 CB        -45.0399  -26.2399    4.4802 C.3       2 UNK        -0.2002 
     79 N         -47.3726  -27.0682    4.7352 N.am      2 UNK        -0.4032 
     80 C         -47.3560  -28.0767    5.6214 C.2       1 UNK         0.5000 
     81 O         -46.5449  -28.1710    6.5442 O.2       1 UNK        -0.5238 
     82 H82       -47.8501  -33.5124    4.6665 H         1 UNK         0.0889 
     83 H83       -46.3990  -32.5101    4.7287 H         1 UNK         0.0889 
     84 H84       -47.2100  -32.7917    3.1869 H         1 UNK         0.0889 
     85 H85       -46.8111  -30.4515    5.5475 H         1 UNK         0.3028 
     86 H86       -49.0828  -28.8823    4.6332 H         1 UNK         0.0864 
     87 H87       -50.0981  -30.0477    6.5784 H         1 UNK         0.0720 
     88 H88       -48.7422  -29.6427    7.5822 H         1 UNK         0.0720 
     89 H89       -52.1228  -28.9233    6.5497 H         1 UNK         0.0814 
     90 H90       -51.7381  -27.6045    5.4675 H         1 UNK         0.0814 
     91 H91       -51.7754  -25.1682    6.8005 H         1 UNK         0.1469 
     92 H92       -55.3581  -24.7580    9.1203 H         1 UNK         0.1381 
     93 H93       -54.0868  -28.6352    7.8033 H         1 UNK         0.1206 
     94 H94       -56.4407  -28.2325    8.6204 H         1 UNK         0.0813 
     95 H95       -56.8901  -26.6624    9.2274 H         1 UNK         0.0813 
     96 H96       -55.1590  -29.9223    9.7210 H         1 UNK         0.0638 
     97 H97       -53.7143  -29.1393   10.3189 H         1 UNK         0.0638 
     98 H98       -55.7711  -30.5446   12.1016 H         1 UNK         0.0568 
     99 H99       -55.8519  -32.3505   10.5091 H         1 UNK         0.3450 
    100 H100      -54.5412  -33.5008   10.5105 H         1 UNK         0.3450 
    101 H101      -53.5406  -28.9023   12.7701 H         1 UNK         0.2987 
    102 H102      -53.8862  -29.5487   16.2419 H         1 UNK         0.0766 
    103 H103      -51.4254  -29.3835   16.2613 H         1 UNK         0.0798 
    104 H104      -51.3478  -29.6819   14.5219 H         1 UNK         0.0798 
    105 H105      -51.8908  -30.9467   15.6161 H         1 UNK         0.0798 
    106 H106      -52.5110  -27.5342   14.7235 H         1 UNK         0.3198 
    107 H107      -53.8258  -25.7143   13.6341 H         1 UNK         0.0843 
    108 H108      -56.0381  -24.8197   15.5531 H         1 UNK         0.0831 
    109 H109      -56.2357  -25.2796   13.8704 H         1 UNK         0.0831 
    110 H110      -55.3261  -23.8327   14.2762 H         1 UNK         0.0831 
    111 H111      -52.3477  -24.8636   15.0301 H         1 UNK         0.3133 
    112 H112      -52.0862  -23.1618   17.2358 H         1 UNK         0.0566 
    113 H113      -51.1554  -23.8676   19.4486 H         1 UNK         0.0814 
    114 H114      -52.9102  -23.8636   19.4505 H         1 UNK         0.0814 
    115 H115      -52.0430  -25.3875   19.3397 H         1 UNK         0.0814 
    116 H116      -50.1866  -23.9889   16.5027 H         1 UNK         0.3091 
    117 H117      -48.2299  -26.3172   16.9637 H         1 UNK         0.0702 
    118 H118      -49.2000  -28.4122   16.0591 H         1 UNK         0.0785 
    119 H119      -49.7647  -27.5647   14.6202 H         1 UNK         0.0785 
    120 H120      -48.0388  -27.7558   14.9249 H         1 UNK         0.0785 
    121 H121      -49.3498  -24.9695   14.5384 H         1 UNK         0.2998 
    122 H122      -46.9993  -22.3565   14.8456 H         1 UNK         0.0697 
    123 H123      -47.0776  -24.4272   12.5805 H         1 UNK         0.0825 
    124 H124      -45.6369  -23.8984   13.4351 H         1 UNK         0.0825 
    125 H125      -46.5146  -22.7629   12.4231 H         1 UNK         0.0825 
    126 H126      -48.9697  -22.7915   12.8720 H         1 UNK         0.3029 
    127 H127      -51.9174  -22.2056   14.6998 H         1 UNK         0.0897 
    128 H128      -50.5543  -20.1964   12.8261 H         1 UNK         0.0792 
    129 H129      -51.1043  -19.8480   14.4596 H         1 UNK         0.0792 
    130 H130      -52.2738  -20.2563   13.2167 H         1 UNK         0.0792 
    131 H131      -51.6953  -22.2950   11.9415 H         1 UNK         0.3086 
    132 H132      -52.6882  -25.0876   11.3384 H         1 UNK         0.0583 
    133 H133      -50.5559  -23.1596   10.2759 H         1 UNK         0.1020 
    134 H134      -51.1908  -24.3818    9.2453 H         1 UNK         0.1020 
    135 H135      -54.2093  -22.7711    7.7554 H         1 UNK         0.0694 
    136 H136      -52.5114  -22.9825    7.4051 H         1 UNK         0.0694 
    137 H137      -49.9241  -25.8473   10.7460 H         1 UNK         0.2989 
    138 H138      -49.7804  -28.7282   12.2911 H         1 UNK         0.1055 
    139 H139      -51.5534  -29.9450   11.1586 H         1 UNK         0.0806 
    140 H140      -50.0649  -30.2533   10.2863 H         1 UNK         0.0806 
    141 H141      -51.2553  -29.1241    9.6356 H         1 UNK         0.0806 
    142 H142      -49.0598  -27.7962    9.5619 H         1 UNK         0.3061 
    143 H143      -46.1113  -26.2045   10.7242 H         1 UNK         0.0734 
    144 H144      -45.0112  -27.6834    9.0332 H         1 UNK         0.0832 
    145 H145      -45.3236  -28.5441   10.5327 H         1 UNK         0.0832 
    146 H146      -46.3587  -28.8161    9.1393 H         1 UNK         0.0832 
    147 H147      -47.0362  -26.5772    8.0864 H         1 UNK         0.3156 
    148 H148      -49.5116  -24.5190    7.7394 H         1 UNK         0.0589 
    149 H149      -47.1089  -22.6306    7.8736 H         1 UNK         0.0808 
    150 H150      -48.5388  -22.3863    6.8704 H         1 UNK         0.0808 
    151 H151      -48.6771  -22.3799    8.6191 H         1 UNK         0.0808 
    152 H152      -48.6501  -25.4992    6.0093 H         1 UNK         0.3098 
    153 H153      -46.8520  -25.2316    3.9450 H         1 UNK         0.0720 
    154 H154      -44.9432  -26.8166    3.5605 H         1 UNK         0.0791 
    155 H155      -44.6047  -26.8253    5.2907 H         1 UNK         0.0791 
    156 H156      -44.4292  -25.3436    4.3650 H         1 UNK         0.0791 
    157 H157      -48.0673  -27.0878    4.0006 H         1 UNK         0.3028 
@<TRIPOS>BOND
     1    1    2 1    
     2    1   82 1    
     3    1   83 1    
     4    1   84 1    
     5    2    3 2    
     6    2    4 am   BACKBONE|DICT|INTERRES
     7    4    5 1    
     8    4   85 1    
     9    5    6 1    
    10    5   80 1    
    11    5   86 1    
    12    6    7 1    
    13    6   87 1    
    14    6   88 1    
    15    7    8 1    
    16    8    9 1    
    17    8   89 1    
    18    8   90 1    
    19    9   10 ar   
    20    9   14 ar   
    21   10   11 ar   
    22   10   91 1    
    23   11   12 ar   
    24   11   58 1    
    25   12   13 ar   
    26   12   92 1    
    27   13   14 ar   
    28   13   15 1    
    29   14   93 1    
    30   15   16 1    
    31   15   94 1    
    32   15   95 1    
    33   16   17 1    
    34   17   18 1    
    35   17   96 1    
    36   17   97 1    
    37   18   19 1    
    38   18   22 1    
    39   18   98 1    
    40   19   20 am   BACKBONE|DICT|INTERRES
    41   19   21 2    
    42   20   99 1    
    43   20  100 1    
    44   22   23 am   BACKBONE|DICT|INTERRES
    45   22  101 1    
    46   23   24 2    
    47   23   25 1    
    48   25   26 1    
    49   25   27 1    
    50   25  102 1    
    51   26  103 1    
    52   26  104 1    
    53   26  105 1    
    54   27   28 am   BACKBONE|DICT|INTERRES
    55   27  106 1    
    56   28   29 2    
    57   28   30 1    
    58   30   31 1    
    59   30   32 1    
    60   30  107 1    
    61   31  108 1    
    62   31  109 1    
    63   31  110 1    
    64   32   33 am   BACKBONE|DICT|INTERRES
    65   32  111 1    
    66   33   34 2    
    67   33   35 1    
    68   35   36 1    
    69   35   37 1    
    70   35  112 1    
    71   36  113 1    
    72   36  114 1    
    73   36  115 1    
    74   37   38 am   BACKBONE|DICT|INTERRES
    75   37  116 1    
    76   38   39 2    
    77   38   40 1    
    78   40   41 1    
    79   40   42 1    
    80   40  117 1    
    81   41  118 1    
    82   41  119 1    
    83   41  120 1    
    84   42   43 am   BACKBONE|DICT|INTERRES
    85   42  121 1    
    86   43   44 2    
    87   43   45 1    
    88   45   46 1    
    89   45   47 1    
    90   45  122 1    
    91   46  123 1    
    92   46  124 1    
    93   46  125 1    
    94   47   48 am   BACKBONE|DICT|INTERRES
    95   47  126 1    
    96   48   49 2    
    97   48   50 1    
    98   50   51 1    
    99   50   52 1    
   100   50  127 1    
   101   51  128 1    
   102   51  129 1    
   103   51  130 1    
   104   52   53 am   BACKBONE|DICT|INTERRES
   105   52  131 1    
   106   53   54 2    
   107   53   55 1    
   108   55   56 1    
   109   55   59 1    
   110   55  132 1    
   111   56   57 1    
   112   56  133 1    
   113   56  134 1    
   114   57   58 1    
   115   58  135 1    
   116   58  136 1    
   117   59   60 am   BACKBONE|DICT|INTERRES
   118   59  137 1    
   119   60   61 2    
   120   60   62 1    
   121   62   63 1    
   122   62   64 1    
   123   62  138 1    
   124   63  139 1    
   125   63  140 1    
   126   63  141 1    
   127   64   65 am   BACKBONE|DICT|INTERRES
   128   64  142 1    
   129   65   66 2    
   130   65   67 1    
   131   67   68 1    
   132   67   69 1    
   133   67  143 1    
   134   68  144 1    
   135   68  145 1    
   136   68  146 1    
   137   69   70 am   BACKBONE|DICT|INTERRES
   138   69  147 1    
   139   70   71 2    
   140   70   72 1    
   141   72   73 1    
   142   72   74 1    
   143   72  148 1    
   144   73  149 1    
   145   73  150 1    
   146   73  151 1    
   147   74   75 am   BACKBONE|DICT|INTERRES
   148   74  152 1    
   149   75   76 2    
   150   75   77 1    
   151   77   78 1    
   152   77   79 1    
   153   77  153 1    
   154   78  154 1    
   155   78  155 1    
   156   78  156 1    
   157   79   80 am   BACKBONE|DICT|INTERRES
   158   79  157 1    
   159   80   81 2    
@<TRIPOS>SUBSTRUCTURE
     1 UNK         1 GROUP             0       ****    0 ROOT    
