@<TRIPOS>MOLECULE
3R207
157   159    1
SMALL
USER_CHARGES


@<TRIPOS>ATOM
      1 CA        -50.0478  -27.8157    3.0165 C.3       0 UNK        -0.1975 
      2 C         -50.0864  -27.5726    4.5180 C.2       0 UNK         0.4852 
      3 O         -50.4882  -26.4892    4.9444 O.2       0 UNK        -0.5216 
      4 N         -49.6681  -28.5733    5.3079 N.am      1 UNK        -0.4461 
      5 CA        -49.6136  -28.6045    6.7772 C.3       1 UNK         0.0864 
      6 C6        -48.9427  -29.9168    7.2691 C.3       14 UNK        -0.0898 
      7 S7        -50.1820  -31.2443    7.4586 S.3       14 UNK        -0.2598 
      8 C8        -50.3861  -31.3401    9.2724 C.3       14 UNK         0.0286 
      9 C9        -50.5851  -29.9714    9.9112 C.ar      14 UNK        -0.0844 
     10 C10       -49.5331  -29.3677   10.6061 C.ar      14 UNK        -0.0881 
     11 C11       -49.6759  -28.0862   11.1405 C.ar      14 UNK        -0.0643 
     12 C12       -50.8861  -27.4076   10.9794 C.ar      14 UNK        -0.0930 
     13 C13       -51.9654  -28.0209   10.3348 C.ar      14 UNK        -0.0827 
     14 C14       -51.8072  -29.3023    9.7972 C.ar      14 UNK        -0.1249 
     15 C15       -53.2981  -27.2947   10.2130 C.3       14 UNK         0.0141 
     16 S16       -54.0181  -26.9008   11.8397 S.3       14 UNK        -0.2313 
     17 C17       -54.5399  -28.5403   12.4488 C.3       14 UNK        -0.0915 
     18 CA        -56.0774  -28.7454   12.3869 C.3       13 UNK         0.0968 
     19 C         -56.4748  -30.1655   12.8884 C.2       13 UNK         0.5732 
     20 N         -57.2871  -30.3132   13.9303 N.am      13 UNK        -0.7310 
     21 O         -56.0425  -31.1594   12.3102 O.2       13 UNK        -0.5035 
     22 N         -56.8108  -27.6536   13.0470 N.am      13 UNK        -0.4233 
     23 C         -58.0776  -27.3166   12.7667 C.2       13 UNK         0.4989 
     24 O         -58.7300  -27.8318   11.8565 O.2       13 UNK        -0.4996 
     25 CA        -58.7300  -26.2254   13.6457 C.3       12 UNK         0.0216 
     26 CB        -60.2686  -26.3475   13.6932 C.3       12 UNK        -0.1964 
     27 N         -58.1812  -26.1458   15.0072 N.am      12 UNK        -0.4276 
     28 C         -58.1286  -27.1320   15.9137 C.2       12 UNK         0.5020 
     29 O         -58.5646  -28.2717   15.7313 O.2       12 UNK        -0.5489 
     30 CA        -57.4017  -26.8048   17.2291 C.3       11 UNK         0.0294 
     31 CB        -58.3602  -26.9129   18.4265 C.3       11 UNK        -0.2019 
     32 N         -56.2559  -27.6943   17.4372 N.am      11 UNK        -0.4493 
     33 C         -55.2199  -27.8150   16.5971 C.2       11 UNK         0.4932 
     34 O         -55.0828  -27.1425   15.5689 O.2       11 UNK        -0.5029 
     35 CA        -54.1737  -28.8776   16.9538 C.3       10 UNK         0.0280 
     36 CB        -54.7432  -30.2984   16.7661 C.3       10 UNK        -0.1976 
     37 N         -53.0291  -28.6733   16.0763 N.am      10 UNK        -0.4242 
     38 C         -51.8125  -29.2170   16.1814 C.2       10 UNK         0.5072 
     39 O         -51.4695  -29.9657   17.0972 O.2       10 UNK        -0.5224 
     40 CA        -50.8103  -28.8818   15.0626 C.3       9 UNK         0.0343 
     41 CB        -50.7816  -30.0178   14.0265 C.3       9 UNK        -0.2003 
     42 N         -51.1254  -27.6172   14.3891 N.am      9 UNK        -0.4272 
     43 C         -50.7800  -26.4111   14.8574 C.2       9 UNK         0.4988 
     44 O         -50.0616  -26.2296   15.8416 O.2       9 UNK        -0.5108 
     45 CA        -51.3551  -25.2019   14.1182 C.3       8 UNK         0.0248 
     46 CB        -52.3173  -24.4056   15.0194 C.3       8 UNK        -0.2001 
     47 N         -50.2652  -24.3504   13.6491 N.am      8 UNK        -0.4140 
     48 C         -50.3474  -23.5203   12.6040 C.2       8 UNK         0.5028 
     49 O         -51.3593  -23.3944   11.9147 O.2       8 UNK        -0.5428 
     50 CA        -49.1087  -22.6775   12.2562 C.3       7 UNK         0.0264 
     51 CB        -48.8506  -21.5865   13.3150 C.3       7 UNK        -0.1988 
     52 N         -47.8963  -23.4543   11.9664 N.am      7 UNK        -0.4454 
     53 C         -47.1459  -24.1941   12.7990 C.2       7 UNK         0.5027 
     54 O         -47.4233  -24.3805   13.9847 O.2       7 UNK        -0.5083 
     55 CA        -45.8651  -24.8395   12.2176 C.3       6 UNK         0.0844 
     56 C56       -45.9710  -26.3818   12.1348 C.3       14 UNK        -0.0967 
     57 S57       -47.1430  -26.9867   10.8708 S.3       14 UNK        -0.2604 
     58 C58       -48.5375  -27.4645   11.9321 C.3       14 UNK         0.0134 
     59 N         -45.4661  -24.2556   10.9334 N.am      6 UNK        -0.4116 
     60 C         -44.8473  -23.0773   10.7788 C.2       5 UNK         0.5034 
     61 O         -44.4807  -22.3729   11.7205 O.2       5 UNK        -0.5045 
     62 CA        -44.6495  -22.5775    9.3362 C.3       5 UNK         0.0224 
     63 CB        -43.3377  -21.7856    9.1449 C.3       5 UNK        -0.1978 
     64 N         -44.8204  -23.6247    8.3192 N.am      5 UNK        -0.4737 
     65 C         -43.9845  -24.6247    7.9965 C.2       4 UNK         0.5027 
     66 O         -42.8982  -24.8072    8.5456 O.2       4 UNK        -0.5211 
     67 CA        -44.4329  -25.6094    6.8923 C.3       4 UNK         0.0297 
     68 CB        -44.4443  -27.0517    7.4281 C.3       4 UNK        -0.1993 
     69 N         -45.7517  -25.3072    6.3240 N.am      4 UNK        -0.4486 
     70 C         -46.0232  -24.2909    5.4893 C.2       3 UNK         0.4961 
     71 O         -45.1559  -23.5679    4.9989 O.2       3 UNK        -0.5105 
     72 CA        -47.5057  -23.9889    5.1792 C.3       3 UNK         0.0299 
     73 CB        -47.8738  -24.5239    3.7867 C.3       3 UNK        -0.1972 
     74 N         -48.4548  -24.5204    6.1647 N.am      3 UNK        -0.4305 
     75 C         -48.4578  -24.2496    7.4803 C.2       2 UNK         0.5006 
     76 O         -47.7221  -23.4153    8.0094 O.2       2 UNK        -0.5106 
     77 CA        -49.3848  -25.0895    8.3773 C.3       2 UNK         0.0296 
     78 CB        -50.6619  -24.2992    8.6987 C.3       2 UNK        -0.2002 
     79 N         -49.7553  -26.4032    7.8373 N.am      2 UNK        -0.4032 
     80 C         -48.9301  -27.3544    7.3688 C.2       1 UNK         0.5000 
     81 O         -47.7024  -27.2499    7.3245 O.2       1 UNK        -0.5238 
     82 H82       -51.0569  -27.7789    2.6070 H         1 UNK         0.0889 
     83 H83       -49.6162  -28.7856    2.7697 H         1 UNK         0.0889 
     84 H84       -49.4539  -27.0460    2.5248 H         1 UNK         0.0889 
     85 H85       -49.3532  -29.4247    4.8656 H         1 UNK         0.3028 
     86 H86       -50.6477  -28.5891    7.1279 H         1 UNK         0.0864 
     87 H87       -48.1735  -30.2487    6.5697 H         1 UNK         0.0720 
     88 H88       -48.4135  -29.7858    8.2131 H         1 UNK         0.0720 
     89 H89       -49.5145  -31.8387    9.6994 H         1 UNK         0.0814 
     90 H90       -51.2418  -31.9769    9.5011 H         1 UNK         0.0814 
     91 H91       -48.5910  -29.8865   10.7201 H         1 UNK         0.1469 
     92 H92       -50.9985  -26.4083   11.3732 H         1 UNK         0.1381 
     93 H93       -52.6275  -29.7763    9.2755 H         1 UNK         0.1206 
     94 H94       -53.1480  -26.3659    9.6621 H         1 UNK         0.0813 
     95 H95       -54.0162  -27.8804    9.6369 H         1 UNK         0.0813 
     96 H96       -54.1869  -28.6461   13.4742 H         1 UNK         0.0638 
     97 H97       -54.0270  -29.3143   11.8751 H         1 UNK         0.0638 
     98 H98       -56.3499  -28.7262   11.3301 H         1 UNK         0.0568 
     99 H99       -57.5351  -31.2433   14.2256 H         1 UNK         0.3450 
    100 H100      -57.6715  -29.5130   14.4219 H         1 UNK         0.3450 
    101 H101      -56.3340  -27.2104   13.8233 H         1 UNK         0.2987 
    102 H102      -58.4898  -25.2760   13.1649 H         1 UNK         0.0766 
    103 H103      -60.7112  -25.5577   14.3002 H         1 UNK         0.0798 
    104 H104      -60.5845  -27.3056   14.1075 H         1 UNK         0.0798 
    105 H105      -60.7016  -26.2660   12.6954 H         1 UNK         0.0798 
    106 H106      -57.7534  -25.2615   15.2475 H         1 UNK         0.3198 
    107 H107      -57.0227  -25.7814   17.1860 H         1 UNK         0.0843 
    108 H108      -58.7507  -27.9251   18.5413 H         1 UNK         0.0831 
    109 H109      -59.2155  -26.2474   18.3014 H         1 UNK         0.0831 
    110 H110      -57.8678  -26.6338   19.3582 H         1 UNK         0.0831 
    111 H111      -56.3015  -28.3056   18.2396 H         1 UNK         0.3133 
    112 H112      -53.8622  -28.7297   17.9896 H         1 UNK         0.0566 
    113 H113      -55.0233  -30.4832   15.7287 H         1 UNK         0.0814 
    114 H114      -54.0200  -31.0610   17.0549 H         1 UNK         0.0814 
    115 H115      -55.6326  -30.4568   17.3770 H         1 UNK         0.0814 
    116 H116      -53.2197  -28.0157   15.3304 H         1 UNK         0.3091 
    117 H117      -49.8199  -28.8124   15.5180 H         1 UNK         0.0702 
    118 H118      -49.9487  -29.8987   13.3366 H         1 UNK         0.0785 
    119 H119      -51.7013  -30.0625   13.4416 H         1 UNK         0.0785 
    120 H120      -50.6536  -30.9879   14.5090 H         1 UNK         0.0785 
    121 H121      -51.6911  -27.6790   13.5538 H         1 UNK         0.2998 
    122 H122      -51.9208  -25.5567   13.2578 H         1 UNK         0.0697 
    123 H123      -51.8043  -23.9868   15.8859 H         1 UNK         0.0825 
    124 H124      -53.1222  -25.0425   15.3894 H         1 UNK         0.0825 
    125 H125      -52.7823  -23.5835   14.4751 H         1 UNK         0.0825 
    126 H126      -49.3753  -24.4361   14.1362 H         1 UNK         0.3029 
    127 H127      -49.3450  -22.1616   11.3238 H         1 UNK         0.0897 
    128 H128      -48.6053  -22.0065   14.2907 H         1 UNK         0.0792 
    129 H129      -49.7329  -20.9589   13.4475 H         1 UNK         0.0792 
    130 H130      -48.0305  -20.9331   13.0171 H         1 UNK         0.0792 
    131 H131      -47.5896  -23.4089   11.0048 H         1 UNK         0.3086 
    132 H132      -45.0720  -24.6197   12.9358 H         1 UNK         0.0583 
    133 H133      -44.9899  -26.7936   11.8926 H         1 UNK         0.1020 
    134 H134      -46.2197  -26.8015   13.1118 H         1 UNK         0.1020 
    135 H135      -48.1950  -28.1777   12.6832 H         1 UNK         0.0694 
    136 H136      -48.8867  -26.5878   12.4763 H         1 UNK         0.0694 
    137 H137      -45.7210  -24.7777   10.1076 H         1 UNK         0.2989 
    138 H138      -45.4693  -21.8778    9.1641 H         1 UNK         0.1055 
    139 H139      -43.3239  -20.8964    9.7764 H         1 UNK         0.0806 
    140 H140      -43.2223  -21.4504    8.1142 H         1 UNK         0.0806 
    141 H141      -42.4609  -22.3777    9.4076 H         1 UNK         0.0806 
    142 H142      -45.7189  -23.5977    7.8458 H         1 UNK         0.3061 
    143 H143      -43.6944  -25.5503    6.0903 H         1 UNK         0.0734 
    144 H144      -43.4547  -27.3505    7.7760 H         1 UNK         0.0832 
    145 H145      -44.7429  -27.7612    6.6562 H         1 UNK         0.0832 
    146 H146      -45.1317  -27.1634    8.2679 H         1 UNK         0.0832 
    147 H147      -46.5213  -25.8829    6.6615 H         1 UNK         0.3156 
    148 H148      -47.6220  -22.9035    5.1727 H         1 UNK         0.0589 
    149 H149      -47.7507  -25.6058    3.7294 H         1 UNK         0.0808 
    150 H150      -48.9060  -24.2873    3.5270 H         1 UNK         0.0808 
    151 H151      -47.2373  -24.0831    3.0182 H         1 UNK         0.0808 
    152 H152      -49.1175  -25.2110    5.8243 H         1 UNK         0.3098 
    153 H153      -48.8525  -25.2646    9.3121 H         1 UNK         0.0720 
    154 H154      -51.2703  -24.8101    9.4440 H         1 UNK         0.0791 
    155 H155      -51.2754  -24.1439    7.8104 H         1 UNK         0.0791 
    156 H156      -50.4230  -23.3157    9.1063 H         1 UNK         0.0791 
    157 H157      -50.7469  -26.5819    7.7778 H         1 UNK         0.3028 
@<TRIPOS>BOND
     1    1    2 1    
     2    1   82 1    
     3    1   83 1    
     4    1   84 1    
     5    2    3 2    
     6    2    4 am   BACKBONE|DICT|INTERRES
     7    4    5 1    
     8    4   85 1    
     9    5    6 1    
    10    5   80 1    
    11    5   86 1    
    12    6    7 1    
    13    6   87 1    
    14    6   88 1    
    15    7    8 1    
    16    8    9 1    
    17    8   89 1    
    18    8   90 1    
    19    9   10 ar   
    20    9   14 ar   
    21   10   11 ar   
    22   10   91 1    
    23   11   12 ar   
    24   11   58 1    
    25   12   13 ar   
    26   12   92 1    
    27   13   14 ar   
    28   13   15 1    
    29   14   93 1    
    30   15   16 1    
    31   15   94 1    
    32   15   95 1    
    33   16   17 1    
    34   17   18 1    
    35   17   96 1    
    36   17   97 1    
    37   18   19 1    
    38   18   22 1    
    39   18   98 1    
    40   19   20 am   BACKBONE|DICT|INTERRES
    41   19   21 2    
    42   20   99 1    
    43   20  100 1    
    44   22   23 am   BACKBONE|DICT|INTERRES
    45   22  101 1    
    46   23   24 2    
    47   23   25 1    
    48   25   26 1    
    49   25   27 1    
    50   25  102 1    
    51   26  103 1    
    52   26  104 1    
    53   26  105 1    
    54   27   28 am   BACKBONE|DICT|INTERRES
    55   27  106 1    
    56   28   29 2    
    57   28   30 1    
    58   30   31 1    
    59   30   32 1    
    60   30  107 1    
    61   31  108 1    
    62   31  109 1    
    63   31  110 1    
    64   32   33 am   BACKBONE|DICT|INTERRES
    65   32  111 1    
    66   33   34 2    
    67   33   35 1    
    68   35   36 1    
    69   35   37 1    
    70   35  112 1    
    71   36  113 1    
    72   36  114 1    
    73   36  115 1    
    74   37   38 am   BACKBONE|DICT|INTERRES
    75   37  116 1    
    76   38   39 2    
    77   38   40 1    
    78   40   41 1    
    79   40   42 1    
    80   40  117 1    
    81   41  118 1    
    82   41  119 1    
    83   41  120 1    
    84   42   43 am   BACKBONE|DICT|INTERRES
    85   42  121 1    
    86   43   44 2    
    87   43   45 1    
    88   45   46 1    
    89   45   47 1    
    90   45  122 1    
    91   46  123 1    
    92   46  124 1    
    93   46  125 1    
    94   47   48 am   BACKBONE|DICT|INTERRES
    95   47  126 1    
    96   48   49 2    
    97   48   50 1    
    98   50   51 1    
    99   50   52 1    
   100   50  127 1    
   101   51  128 1    
   102   51  129 1    
   103   51  130 1    
   104   52   53 am   BACKBONE|DICT|INTERRES
   105   52  131 1    
   106   53   54 2    
   107   53   55 1    
   108   55   56 1    
   109   55   59 1    
   110   55  132 1    
   111   56   57 1    
   112   56  133 1    
   113   56  134 1    
   114   57   58 1    
   115   58  135 1    
   116   58  136 1    
   117   59   60 am   BACKBONE|DICT|INTERRES
   118   59  137 1    
   119   60   61 2    
   120   60   62 1    
   121   62   63 1    
   122   62   64 1    
   123   62  138 1    
   124   63  139 1    
   125   63  140 1    
   126   63  141 1    
   127   64   65 am   BACKBONE|DICT|INTERRES
   128   64  142 1    
   129   65   66 2    
   130   65   67 1    
   131   67   68 1    
   132   67   69 1    
   133   67  143 1    
   134   68  144 1    
   135   68  145 1    
   136   68  146 1    
   137   69   70 am   BACKBONE|DICT|INTERRES
   138   69  147 1    
   139   70   71 2    
   140   70   72 1    
   141   72   73 1    
   142   72   74 1    
   143   72  148 1    
   144   73  149 1    
   145   73  150 1    
   146   73  151 1    
   147   74   75 am   BACKBONE|DICT|INTERRES
   148   74  152 1    
   149   75   76 2    
   150   75   77 1    
   151   77   78 1    
   152   77   79 1    
   153   77  153 1    
   154   78  154 1    
   155   78  155 1    
   156   78  156 1    
   157   79   80 am   BACKBONE|DICT|INTERRES
   158   79  157 1    
   159   80   81 2    
@<TRIPOS>SUBSTRUCTURE
     1 UNK         1 GROUP             0       ****    0 ROOT    
