@<TRIPOS>MOLECULE
3R207
157   159    1
SMALL
USER_CHARGES


@<TRIPOS>ATOM
      1 CA        -52.3371  -32.0945    9.1791 C.3       0 UNK        -0.1975 
      2 C         -51.1528  -31.5968    8.3638 C.2       0 UNK         0.4852 
      3 O         -50.9954  -31.9925    7.2081 O.2       0 UNK        -0.5216 
      4 N         -50.3262  -30.7314    8.9568 N.am      1 UNK        -0.4461 
      5 CA        -49.1373  -30.1290    8.3524 C.3       1 UNK         0.0864 
      6 C6        -49.4569  -29.0858    7.2406 C.3       14 UNK        -0.0898 
      7 S7        -50.5018  -27.6987    7.8019 S.3       14 UNK        -0.2598 
      8 C8        -52.0694  -28.0745    6.9659 C.3       14 UNK         0.0286 
      9 C9        -53.1674  -27.1373    7.4377 C.ar      14 UNK        -0.0844 
     10 C10       -53.3354  -25.8871    6.8355 C.ar      14 UNK        -0.0881 
     11 C11       -54.3371  -25.0148    7.2753 C.ar      14 UNK        -0.0643 
     12 C12       -55.1812  -25.4097    8.3184 C.ar      14 UNK        -0.0930 
     13 C13       -55.0345  -26.6668    8.9126 C.ar      14 UNK        -0.0827 
     14 C14       -54.0215  -27.5234    8.4738 C.ar      14 UNK        -0.1249 
     15 C15       -55.9908  -27.1208   10.0024 C.3       14 UNK         0.0141 
     16 S16       -55.2300  -27.0114   11.6485 S.3       14 UNK        -0.2313 
     17 C17       -56.5453  -27.7594   12.6709 C.3       14 UNK        -0.0915 
     18 CA        -56.2371  -29.2091   13.1306 C.3       13 UNK         0.0968 
     19 C         -56.2426  -30.2246   11.9471 C.2       13 UNK         0.5732 
     20 N         -55.1390  -30.8883   11.6184 N.am      13 UNK        -0.7310 
     21 O         -57.2805  -30.4201   11.3192 O.2       13 UNK        -0.5035 
     22 N         -55.0457  -29.2567   13.9871 N.am      13 UNK        -0.4233 
     23 C         -54.7233  -30.2761   14.7920 C.2       13 UNK         0.4989 
     24 O         -55.4648  -31.2367   15.0082 O.2       13 UNK        -0.4996 
     25 CA        -53.3344  -30.2116   15.4555 C.3       12 UNK         0.0216 
     26 CB        -52.8118  -31.5998   15.8815 C.3       12 UNK        -0.1964 
     27 N         -52.3300  -29.5147   14.6416 N.am      12 UNK        -0.4276 
     28 C         -51.9064  -29.8244   13.4061 C.2       12 UNK         0.5020 
     29 O         -52.3727  -30.7436   12.7317 O.2       12 UNK        -0.5489 
     30 CA        -50.7897  -28.9504   12.8047 C.3       11 UNK         0.0294 
     31 CB        -51.3430  -28.0564   11.6809 C.3       11 UNK        -0.2019 
     32 N         -50.0983  -28.1157   13.7939 N.am      11 UNK        -0.4493 
     33 C         -49.2465  -28.5728   14.7248 C.2       11 UNK         0.4932 
     34 O         -48.9289  -29.7561   14.8419 O.2       11 UNK        -0.5029 
     35 CA        -48.6737  -27.5425   15.7092 C.3       10 UNK         0.0280 
     36 CB        -47.4867  -26.7900   15.0868 C.3       10 UNK        -0.1976 
     37 N         -49.6966  -26.5800   16.1190 N.am      10 UNK        -0.4242 
     38 C         -50.4475  -26.6820   17.2244 C.2       10 UNK         0.5072 
     39 O         -50.3294  -27.5856   18.0528 O.2       10 UNK        -0.5224 
     40 CA        -51.5149  -25.5943   17.4556 C.3       9 UNK         0.0343 
     41 CB        -50.9515  -24.4703   18.3400 C.3       9 UNK        -0.2003 
     42 N         -52.0398  -25.0145   16.2167 N.am      9 UNK        -0.4272 
     43 C         -52.7984  -25.6764   15.3327 C.2       9 UNK         0.4988 
     44 O         -53.1869  -26.8328   15.4942 O.2       9 UNK        -0.5108 
     45 CA        -53.1538  -24.9484   14.0257 C.3       8 UNK         0.0248 
     46 CB        -54.5083  -24.2351   14.1557 C.3       8 UNK        -0.2001 
     47 N         -52.1474  -24.0051   13.5223 N.am      8 UNK        -0.4140 
     48 C         -50.8558  -24.2806   13.2948 C.2       8 UNK         0.5028 
     49 O         -50.3161  -25.3425   13.6087 O.2       8 UNK        -0.5428 
     50 CA        -50.0524  -23.2087   12.5441 C.3       7 UNK         0.0264 
     51 CB        -48.5342  -23.3695   12.7437 C.3       7 UNK        -0.1988 
     52 N         -50.3523  -23.3071   11.1188 N.am      7 UNK        -0.4454 
     53 C         -51.4470  -22.8362   10.5123 C.2       7 UNK         0.5027 
     54 O         -52.2809  -22.1453   11.1032 O.2       7 UNK        -0.5083 
     55 CA        -51.6681  -23.2050    9.0215 C.3       6 UNK         0.0844 
     56 C56       -52.7723  -22.3213    8.3751 C.3       14 UNK        -0.0967 
     57 S57       -53.0266  -22.6430    6.5936 S.3       14 UNK        -0.2604 
     58 C58       -54.5358  -23.6627    6.6013 C.3       14 UNK         0.0134 
     59 N         -50.4519  -23.2270    8.1962 N.am      6 UNK        -0.4116 
     60 C         -49.4202  -24.0782    8.2599 C.2       5 UNK         0.5034 
     61 O         -49.2446  -24.8823    9.1743 O.2       5 UNK        -0.5045 
     62 CA        -48.4117  -24.0467    7.0990 C.3       5 UNK         0.0224 
     63 CB        -48.9422  -23.3760    5.8100 C.3       5 UNK        -0.1978 
     64 N         -47.1293  -23.4691    7.5076 N.am      5 UNK        -0.4737 
     65 C         -46.8938  -22.2273    7.9599 C.2       4 UNK         0.5027 
     66 O         -47.7613  -21.3585    8.0610 O.2       4 UNK        -0.5211 
     67 CA        -45.4314  -21.8925    8.3295 C.3       4 UNK         0.0297 
     68 CB        -45.3224  -20.7763    9.3915 C.3       4 UNK        -0.1993 
     69 N         -44.6413  -23.0748    8.7054 N.am      4 UNK        -0.4486 
     70 C         -44.8403  -23.8662    9.7685 C.2       3 UNK         0.4961 
     71 O         -45.6539  -23.6405   10.6662 O.2       3 UNK        -0.5105 
     72 CA        -43.9857  -25.1433    9.8280 C.3       3 UNK         0.0299 
     73 CB        -42.8050  -24.9623   10.7954 C.3       3 UNK        -0.1972 
     74 N         -44.7938  -26.2871   10.2534 N.am      3 UNK        -0.4305 
     75 C         -45.8109  -26.8039    9.5505 C.2       2 UNK         0.5006 
     76 O         -46.0966  -26.4676    8.3963 O.2       2 UNK        -0.5106 
     77 CA        -46.6510  -27.8641   10.2721 C.3       2 UNK         0.0296 
     78 CB        -47.4504  -27.2372   11.4310 C.3       2 UNK        -0.2002 
     79 N         -47.5576  -28.4898    9.3146 N.am      2 UNK        -0.4032 
     80 C         -48.2197  -29.6383    9.4922 C.2       1 UNK         0.5000 
     81 O         -48.1257  -30.3218   10.5155 O.2       1 UNK        -0.5238 
     82 H82       -52.3019  -33.1796    9.2708 H         1 UNK         0.0889 
     83 H83       -53.2707  -31.8221    8.6877 H         1 UNK         0.0889 
     84 H84       -52.3471  -31.6698   10.1827 H         1 UNK         0.0889 
     85 H85       -50.4613  -30.4882    9.9288 H         1 UNK         0.3028 
     86 H86       -48.5767  -30.9379    7.8789 H         1 UNK         0.0864 
     87 H87       -48.5396  -28.6798    6.8116 H         1 UNK         0.0720 
     88 H88       -49.9511  -29.5858    6.4067 H         1 UNK         0.0720 
     89 H89       -51.9369  -27.9875    5.8864 H         1 UNK         0.0814 
     90 H90       -52.3508  -29.1099    7.1615 H         1 UNK         0.0814 
     91 H91       -52.6797  -25.5872    6.0294 H         1 UNK         0.1469 
     92 H92       -55.9661  -24.7467    8.6558 H         1 UNK         0.1381 
     93 H93       -53.9011  -28.4923    8.9397 H         1 UNK         0.1206 
     94 H94       -56.9026  -26.5217    9.9873 H         1 UNK         0.0813 
     95 H95       -56.2954  -28.1494    9.8057 H         1 UNK         0.0813 
     96 H96       -56.6806  -27.1232   13.5468 H         1 UNK         0.0638 
     97 H97       -57.4967  -27.7209   12.1373 H         1 UNK         0.0638 
     98 H98       -57.0752  -29.5124   13.7608 H         1 UNK         0.0568 
     99 H99       -54.2686  -30.7534   12.1227 H         1 UNK         0.3450 
    100 H100      -55.1783  -31.5470   10.8587 H         1 UNK         0.3450 
    101 H101      -54.3859  -28.5002   13.8765 H         1 UNK         0.2987 
    102 H102      -53.4604  -29.6124   16.3585 H         1 UNK         0.0766 
    103 H103      -51.8349  -31.5254   16.3594 H         1 UNK         0.0798 
    104 H104      -53.4861  -32.0719   16.5970 H         1 UNK         0.0798 
    105 H105      -52.7173  -32.2734   15.0289 H         1 UNK         0.0798 
    106 H106      -51.9540  -28.6724   15.0587 H         1 UNK         0.3198 
    107 H107      -50.0555  -29.6304   12.3683 H         1 UNK         0.0843 
    108 H108      -51.8523  -28.6472   10.9182 H         1 UNK         0.0831 
    109 H109      -50.5467  -27.5051   11.1800 H         1 UNK         0.0831 
    110 H110      -52.0618  -27.3308   12.0591 H         1 UNK         0.0831 
    111 H111      -50.2518  -27.1086   13.7302 H         1 UNK         0.3133 
    112 H112      -48.3026  -28.0842   16.5819 H         1 UNK         0.0566 
    113 H113      -47.0084  -26.1373   15.8170 H         1 UNK         0.0814 
    114 H114      -47.7965  -26.1724   14.2436 H         1 UNK         0.0814 
    115 H115      -46.7274  -27.4849   14.7256 H         1 UNK         0.0814 
    116 H116      -49.9103  -25.8484   15.4477 H         1 UNK         0.3091 
    117 H117      -52.3475  -26.0610   17.9866 H         1 UNK         0.0702 
    118 H118      -51.7177  -23.7334   18.5821 H         1 UNK         0.0785 
    119 H119      -50.1244  -23.9500   17.8550 H         1 UNK         0.0785 
    120 H120      -50.5773  -24.8679   19.2845 H         1 UNK         0.0785 
    121 H121      -51.7682  -24.0664   16.0009 H         1 UNK         0.2998 
    122 H122      -53.2528  -25.7194   13.2631 H         1 UNK         0.0697 
    123 H123      -54.4639  -23.4085   14.8658 H         1 UNK         0.0825 
    124 H124      -55.2804  -24.9240   14.5018 H         1 UNK         0.0825 
    125 H125      -54.8410  -23.8395   13.1957 H         1 UNK         0.0825 
    126 H126      -52.4987  -23.1238   13.1688 H         1 UNK         0.3029 
    127 H127      -50.3456  -22.2251   12.9172 H         1 UNK         0.0897 
    128 H128      -47.9825  -22.5725   12.2445 H         1 UNK         0.0792 
    129 H129      -48.2715  -23.3357   13.8016 H         1 UNK         0.0792 
    130 H130      -48.1700  -24.3179   12.3463 H         1 UNK         0.0792 
    131 H131      -49.7559  -23.9243   10.5679 H         1 UNK         0.3086 
    132 H132      -52.0433  -24.2305    9.0330 H         1 UNK         0.0583 
    133 H133      -53.7211  -22.4539    8.8991 H         1 UNK         0.1020 
    134 H134      -52.5188  -21.2647    8.4823 H         1 UNK         0.1020 
    135 H135      -55.3407  -23.1003    7.0772 H         1 UNK         0.0694 
    136 H136      -54.8482  -23.8306    5.5699 H         1 UNK         0.0694 
    137 H137      -50.4620  -22.5804    7.4215 H         1 UNK         0.2989 
    138 H138      -48.2119  -25.0932    6.8605 H         1 UNK         0.1055 
    139 H139      -48.2359  -23.5006    4.9892 H         1 UNK         0.0806 
    140 H140      -49.1143  -22.3064    5.9323 H         1 UNK         0.0806 
    141 H141      -49.8825  -23.8285    5.4909 H         1 UNK         0.0806 
    142 H142      -46.3608  -24.1266    7.5349 H         1 UNK         0.3061 
    143 H143      -44.9779  -21.5108    7.4135 H         1 UNK         0.0734 
    144 H144      -45.7611  -19.8470    9.0262 H         1 UNK         0.0832 
    145 H145      -45.8454  -21.0377   10.3117 H         1 UNK         0.0832 
    146 H146      -44.2831  -20.5653    9.6427 H         1 UNK         0.0832 
    147 H147      -43.9340  -23.3503    8.0367 H         1 UNK         0.3156 
    148 H148      -43.5909  -25.3606    8.8332 H         1 UNK         0.0589 
    149 H149      -43.1436  -24.7521   11.8109 H         1 UNK         0.0808 
    150 H150      -42.1761  -25.8523   10.8273 H         1 UNK         0.0808 
    151 H151      -42.1714  -24.1300   10.4855 H         1 UNK         0.0808 
    152 H152      -44.6519  -26.6057   11.2006 H         1 UNK         0.3098 
    153 H153      -45.9712  -28.6238   10.6635 H         1 UNK         0.0720 
    154 H154      -47.9682  -28.0008   12.0085 H         1 UNK         0.0791 
    155 H155      -46.8002  -26.6998   12.1209 H         1 UNK         0.0791 
    156 H156      -48.1958  -26.5288   11.0680 H         1 UNK         0.0791 
    157 H157      -47.6695  -27.9647    8.4555 H         1 UNK         0.3028 
@<TRIPOS>BOND
     1    1    2 1    
     2    1   82 1    
     3    1   83 1    
     4    1   84 1    
     5    2    3 2    
     6    2    4 am   BACKBONE|DICT|INTERRES
     7    4    5 1    
     8    4   85 1    
     9    5    6 1    
    10    5   80 1    
    11    5   86 1    
    12    6    7 1    
    13    6   87 1    
    14    6   88 1    
    15    7    8 1    
    16    8    9 1    
    17    8   89 1    
    18    8   90 1    
    19    9   10 ar   
    20    9   14 ar   
    21   10   11 ar   
    22   10   91 1    
    23   11   12 ar   
    24   11   58 1    
    25   12   13 ar   
    26   12   92 1    
    27   13   14 ar   
    28   13   15 1    
    29   14   93 1    
    30   15   16 1    
    31   15   94 1    
    32   15   95 1    
    33   16   17 1    
    34   17   18 1    
    35   17   96 1    
    36   17   97 1    
    37   18   19 1    
    38   18   22 1    
    39   18   98 1    
    40   19   20 am   BACKBONE|DICT|INTERRES
    41   19   21 2    
    42   20   99 1    
    43   20  100 1    
    44   22   23 am   BACKBONE|DICT|INTERRES
    45   22  101 1    
    46   23   24 2    
    47   23   25 1    
    48   25   26 1    
    49   25   27 1    
    50   25  102 1    
    51   26  103 1    
    52   26  104 1    
    53   26  105 1    
    54   27   28 am   BACKBONE|DICT|INTERRES
    55   27  106 1    
    56   28   29 2    
    57   28   30 1    
    58   30   31 1    
    59   30   32 1    
    60   30  107 1    
    61   31  108 1    
    62   31  109 1    
    63   31  110 1    
    64   32   33 am   BACKBONE|DICT|INTERRES
    65   32  111 1    
    66   33   34 2    
    67   33   35 1    
    68   35   36 1    
    69   35   37 1    
    70   35  112 1    
    71   36  113 1    
    72   36  114 1    
    73   36  115 1    
    74   37   38 am   BACKBONE|DICT|INTERRES
    75   37  116 1    
    76   38   39 2    
    77   38   40 1    
    78   40   41 1    
    79   40   42 1    
    80   40  117 1    
    81   41  118 1    
    82   41  119 1    
    83   41  120 1    
    84   42   43 am   BACKBONE|DICT|INTERRES
    85   42  121 1    
    86   43   44 2    
    87   43   45 1    
    88   45   46 1    
    89   45   47 1    
    90   45  122 1    
    91   46  123 1    
    92   46  124 1    
    93   46  125 1    
    94   47   48 am   BACKBONE|DICT|INTERRES
    95   47  126 1    
    96   48   49 2    
    97   48   50 1    
    98   50   51 1    
    99   50   52 1    
   100   50  127 1    
   101   51  128 1    
   102   51  129 1    
   103   51  130 1    
   104   52   53 am   BACKBONE|DICT|INTERRES
   105   52  131 1    
   106   53   54 2    
   107   53   55 1    
   108   55   56 1    
   109   55   59 1    
   110   55  132 1    
   111   56   57 1    
   112   56  133 1    
   113   56  134 1    
   114   57   58 1    
   115   58  135 1    
   116   58  136 1    
   117   59   60 am   BACKBONE|DICT|INTERRES
   118   59  137 1    
   119   60   61 2    
   120   60   62 1    
   121   62   63 1    
   122   62   64 1    
   123   62  138 1    
   124   63  139 1    
   125   63  140 1    
   126   63  141 1    
   127   64   65 am   BACKBONE|DICT|INTERRES
   128   64  142 1    
   129   65   66 2    
   130   65   67 1    
   131   67   68 1    
   132   67   69 1    
   133   67  143 1    
   134   68  144 1    
   135   68  145 1    
   136   68  146 1    
   137   69   70 am   BACKBONE|DICT|INTERRES
   138   69  147 1    
   139   70   71 2    
   140   70   72 1    
   141   72   73 1    
   142   72   74 1    
   143   72  148 1    
   144   73  149 1    
   145   73  150 1    
   146   73  151 1    
   147   74   75 am   BACKBONE|DICT|INTERRES
   148   74  152 1    
   149   75   76 2    
   150   75   77 1    
   151   77   78 1    
   152   77   79 1    
   153   77  153 1    
   154   78  154 1    
   155   78  155 1    
   156   78  156 1    
   157   79   80 am   BACKBONE|DICT|INTERRES
   158   79  157 1    
   159   80   81 2    
@<TRIPOS>SUBSTRUCTURE
     1 UNK         1 GROUP             0       ****    0 ROOT    
