@<TRIPOS>MOLECULE
3R207
157   159    1
SMALL
USER_CHARGES


@<TRIPOS>ATOM
      1 CA        -49.5716  -31.7249    8.4059 C.3       0 UNK        -0.1975 
      2 C         -49.9849  -31.0807    7.0910 C.2       0 UNK         0.4852 
      3 O         -49.4654  -31.4510    6.0380 O.2       0 UNK        -0.5216 
      4 N         -50.9215  -30.1251    7.1498 N.am      1 UNK        -0.4461 
      5 CA        -51.4443  -29.3648    6.0086 C.3       1 UNK         0.0864 
      6 C6        -52.6882  -28.5548    6.4445 C.3       14 UNK        -0.0898 
      7 S7        -53.5777  -27.7105    5.0905 S.3       14 UNK        -0.2598 
      8 C8        -55.1282  -27.2158    5.9190 C.3       14 UNK         0.0286 
      9 C9        -54.8703  -26.5738    7.2753 C.ar      14 UNK        -0.0844 
     10 C10       -54.3475  -25.2795    7.3597 C.ar      14 UNK        -0.0881 
     11 C11       -54.0257  -24.7258    8.6030 C.ar      14 UNK        -0.0643 
     12 C12       -54.2490  -25.4675    9.7658 C.ar      14 UNK        -0.0930 
     13 C13       -54.7791  -26.7586    9.6918 C.ar      14 UNK        -0.0827 
     14 C14       -55.0983  -27.3030    8.4462 C.ar      14 UNK        -0.1249 
     15 C15       -54.9702  -27.5731   10.9591 C.3       14 UNK         0.0141 
     16 S16       -53.3772  -28.2039   11.5631 S.3       14 UNK        -0.2313 
     17 C17       -53.1429  -29.7249   10.5779 C.3       14 UNK        -0.0915 
     18 CA        -53.2590  -31.0254   11.4302 C.3       13 UNK         0.0968 
     19 C         -53.0178  -32.3134   10.5862 C.2       13 UNK         0.5732 
     20 N         -52.4786  -33.3837   11.1568 N.am      13 UNK        -0.7310 
     21 O         -53.3447  -32.3556    9.4025 O.2       13 UNK        -0.5035 
     22 N         -52.5024  -30.9555   12.6950 N.am      13 UNK        -0.4233 
     23 C         -51.1777  -30.8193   12.8281 C.2       13 UNK         0.4989 
     24 O         -50.3851  -30.9040   11.8897 O.2       13 UNK        -0.4996 
     25 CA        -50.6563  -30.5102   14.2481 C.3       12 UNK         0.0216 
     26 CB        -49.1702  -30.1052   14.2544 C.3       12 UNK        -0.1964 
     27 N         -51.4311  -29.4610   14.9253 N.am      12 UNK        -0.4276 
     28 C         -52.6083  -29.6440   15.5395 C.2       12 UNK         0.5020 
     29 O         -53.2090  -30.7196   15.5395 O.2       12 UNK        -0.5489 
     30 CA        -53.2301  -28.4394   16.2576 C.3       11 UNK         0.0294 
     31 CB        -52.6735  -28.3230   17.6860 C.3       11 UNK        -0.2019 
     32 N         -52.9820  -27.1878   15.5425 N.am      11 UNK        -0.4493 
     33 C         -53.8685  -26.5804   14.7387 C.2       11 UNK         0.4932 
     34 O         -54.9896  -27.0320   14.4988 O.2       11 UNK        -0.5029 
     35 CA        -53.4378  -25.2323   14.1160 C.3       10 UNK         0.0280 
     36 CB        -54.6282  -24.3461   13.6923 C.3       10 UNK        -0.1976 
     37 N         -52.5062  -24.4874   14.9719 N.am      10 UNK        -0.4242 
     38 C         -52.7196  -24.0852   16.2354 C.2       10 UNK         0.5072 
     39 O         -53.8218  -24.1234   16.7855 O.2       10 UNK        -0.5224 
     40 CA        -51.5015  -23.5909   17.0453 C.3       9 UNK         0.0343 
     41 CB        -51.5714  -24.0570   18.5151 C.3       9 UNK        -0.2003 
     42 N         -50.1872  -23.9333   16.4847 N.am      9 UNK        -0.4272 
     43 C         -49.6842  -25.1399   16.1828 C.2       9 UNK         0.4988 
     44 O         -50.3259  -26.1903   16.2671 O.2       9 UNK        -0.5108 
     45 CA        -48.2247  -25.1577   15.6771 C.3       8 UNK         0.0248 
     46 CB        -47.7600  -26.5707   15.2800 C.3       8 UNK        -0.2001 
     47 N         -48.0113  -24.2457   14.5464 N.am      8 UNK        -0.4140 
     48 C         -47.9493  -22.9078   14.6208 C.2       8 UNK         0.5028 
     49 O         -47.9876  -22.2855   15.6836 O.2       8 UNK        -0.5428 
     50 CA        -47.9089  -22.1245   13.2982 C.3       7 UNK         0.0264 
     51 CB        -46.4656  -21.9912   12.7885 C.3       7 UNK        -0.1988 
     52 N         -48.7525  -22.7110   12.2531 N.am      7 UNK        -0.4454 
     53 C         -50.0873  -22.8487   12.3201 C.2       7 UNK         0.5027 
     54 O         -50.7733  -22.4527   13.2629 O.2       7 UNK        -0.5083 
     55 CA        -50.7621  -23.5957   11.1504 C.3       6 UNK         0.0844 
     56 C56       -50.9415  -22.6456    9.9374 C.3       14 UNK        -0.0967 
     57 S57       -51.5961  -23.4635    8.4445 S.3       14 UNK        -0.2604 
     58 C58       -53.3951  -23.3463    8.6874 C.3       14 UNK         0.0134 
     59 N         -50.0379  -24.8301   10.8288 N.am      6 UNK        -0.4116 
     60 C         -49.8586  -25.8560   11.6758 C.2       5 UNK         0.5034 
     61 O         -50.3552  -25.9218   12.7998 O.2       5 UNK        -0.5045 
     62 CA        -48.9103  -26.9702   11.2141 C.3       5 UNK         0.0224 
     63 CB        -49.6576  -28.0055   10.3644 C.3       5 UNK        -0.1978 
     64 N         -47.7665  -26.4344   10.4749 N.am      5 UNK        -0.4737 
     65 C         -46.7420  -25.7913   11.0530 C.2       4 UNK         0.5027 
     66 O         -46.6390  -25.6346   12.2686 O.2       4 UNK        -0.5211 
     67 CA        -45.6713  -25.1904   10.1244 C.3       4 UNK         0.0297 
     68 CB        -44.5761  -26.2266    9.8282 C.3       4 UNK        -0.1993 
     69 N         -46.2204  -24.6860    8.8637 N.am      4 UNK        -0.4486 
     70 C         -47.0876  -23.6686    8.7643 C.2       3 UNK         0.4961 
     71 O         -47.4623  -22.9958    9.7238 O.2       3 UNK        -0.5105 
     72 CA        -47.6796  -23.3869    7.3708 C.3       3 UNK         0.0299 
     73 CB        -46.8352  -22.3356    6.6342 C.3       3 UNK        -0.1972 
     74 N         -47.8338  -24.5769    6.5218 N.am      3 UNK        -0.4305 
     75 C         -48.5288  -25.6745    6.8524 C.2       2 UNK         0.5006 
     76 O         -49.0796  -25.8352    7.9442 O.2       2 UNK        -0.5106 
     77 CA        -48.5671  -26.8028    5.8173 C.3       2 UNK         0.0296 
     78 CB        -47.2202  -27.5468    5.7589 C.3       2 UNK        -0.2002 
     79 N         -49.6205  -27.7368    6.1994 N.am      2 UNK        -0.4032 
     80 C         -50.3585  -28.4743    5.3624 C.2       1 UNK         0.5000 
     81 O         -50.1990  -28.4903    4.1396 O.2       1 UNK        -0.5238 
     82 H82       -50.1311  -31.3232    9.2502 H         1 UNK         0.0889 
     83 H83       -48.5114  -31.5554    8.5918 H         1 UNK         0.0889 
     84 H84       -49.7455  -32.8000    8.3692 H         1 UNK         0.0889 
     85 H85       -51.3199  -29.8913    8.0465 H         1 UNK         0.3028 
     86 H86       -51.7603  -30.0895    5.2551 H         1 UNK         0.0864 
     87 H87       -52.4080  -27.8099    7.1925 H         1 UNK         0.0720 
     88 H88       -53.3986  -29.2231    6.9346 H         1 UNK         0.0720 
     89 H89       -55.7682  -28.0931    6.0255 H         1 UNK         0.0814 
     90 H90       -55.6701  -26.5183    5.2788 H         1 UNK         0.0814 
     91 H91       -54.1501  -24.7204    6.4552 H         1 UNK         0.1469 
     92 H92       -53.9811  -25.0535   10.7278 H         1 UNK         0.1381 
     93 H93       -55.4895  -28.3093    8.3857 H         1 UNK         0.1206 
     94 H94       -55.6646  -28.3996   10.8016 H         1 UNK         0.0813 
     95 H95       -55.4167  -26.9444   11.7297 H         1 UNK         0.0813 
     96 H96       -53.8688  -29.7381    9.7637 H         1 UNK         0.0638 
     97 H97       -52.1654  -29.6722   10.1004 H         1 UNK         0.0638 
     98 H98       -54.3019  -31.1007   11.7389 H         1 UNK         0.0568 
     99 H99       -52.2054  -33.3614   12.1258 H         1 UNK         0.3450 
    100 H100      -52.3340  -34.2159   10.6078 H         1 UNK         0.3450 
    101 H101      -53.0570  -30.9109   13.5432 H         1 UNK         0.2987 
    102 H102      -50.7467  -31.4339   14.8235 H         1 UNK         0.0766 
    103 H103      -48.9984  -29.2078   13.6610 H         1 UNK         0.0798 
    104 H104      -48.5458  -30.8963   13.8370 H         1 UNK         0.0798 
    105 H105      -48.8126  -29.9133   15.2663 H         1 UNK         0.0798 
    106 H106      -51.0298  -28.5335   14.9303 H         1 UNK         0.3198 
    107 H107      -54.3049  -28.6184   16.3338 H         1 UNK         0.0843 
    108 H108      -53.1350  -27.4940   18.2231 H         1 UNK         0.0831 
    109 H109      -51.5944  -28.1640   17.6912 H         1 UNK         0.0831 
    110 H110      -52.8724  -29.2309   18.2571 H         1 UNK         0.0831 
    111 H111      -52.0831  -26.7392   15.7075 H         1 UNK         0.3133 
    112 H112      -52.8873  -25.4854   13.2104 H         1 UNK         0.0566 
    113 H113      -55.2529  -24.8519   12.9562 H         1 UNK         0.0814 
    114 H114      -55.2678  -24.0943   14.5385 H         1 UNK         0.0814 
    115 H115      -54.2860  -23.4152   13.2402 H         1 UNK         0.0814 
    116 H116      -51.5673  -24.3928   14.6052 H         1 UNK         0.3091 
    117 H117      -51.5580  -22.5016   17.0359 H         1 UNK         0.0702 
    118 H118      -50.7248  -23.6833   19.0910 H         1 UNK         0.0785 
    119 H119      -51.5747  -25.1451   18.5909 H         1 UNK         0.0785 
    120 H120      -52.4762  -23.6935   19.0038 H         1 UNK         0.0785 
    121 H121      -49.5618  -23.1450   16.3320 H         1 UNK         0.2998 
    122 H122      -47.5976  -24.8262   16.5070 H         1 UNK         0.0697 
    123 H123      -46.7157  -26.5734   14.9674 H         1 UNK         0.0825 
    124 H124      -47.8506  -27.2647   16.1166 H         1 UNK         0.0825 
    125 H125      -48.3559  -26.9686   14.4595 H         1 UNK         0.0825 
    126 H126      -47.9228  -24.6798   13.6340 H         1 UNK         0.3029 
    127 H127      -48.2918  -21.1219   13.5004 H         1 UNK         0.0897 
    128 H128      -46.4179  -21.3828   11.8850 H         1 UNK         0.0792 
    129 H129      -45.8306  -21.5132   13.5356 H         1 UNK         0.0792 
    130 H130      -46.0264  -22.9625   12.5609 H         1 UNK         0.0792 
    131 H131      -48.2770  -23.0058   11.4019 H         1 UNK         0.3086 
    132 H132      -51.7572  -23.8950   11.4860 H         1 UNK         0.0583 
    133 H133      -51.5908  -21.8085   10.2011 H         1 UNK         0.1020 
    134 H134      -49.9874  -22.1956    9.6587 H         1 UNK         0.1020 
    135 H135      -53.6272  -22.8863    9.6490 H         1 UNK         0.0694 
    136 H136      -53.8180  -22.6921    7.9235 H         1 UNK         0.0694 
    137 H137      -49.6311  -24.8895    9.9030 H         1 UNK         0.2989 
    138 H138      -48.5317  -27.4769   12.1033 H         1 UNK         0.1055 
    139 H139      -50.4345  -28.4717   10.9662 H         1 UNK         0.0806 
    140 H140      -50.1497  -27.5599    9.5009 H         1 UNK         0.0806 
    141 H141      -48.9954  -28.7985   10.0170 H         1 UNK         0.0806 
    142 H142      -47.8417  -26.4356    9.4644 H         1 UNK         0.3061 
    143 H143      -45.2131  -24.3494   10.6489 H         1 UNK         0.0734 
    144 H144      -43.7670  -25.7935    9.2399 H         1 UNK         0.0832 
    145 H145      -44.1361  -26.6018   10.7534 H         1 UNK         0.0832 
    146 H146      -44.9677  -27.0862    9.2825 H         1 UNK         0.0832 
    147 H147      -45.9653  -25.1790    8.0208 H         1 UNK         0.3156 
    148 H148      -48.6772  -22.9715    7.5242 H         1 UNK         0.0589 
    149 H149      -47.3008  -22.0389    5.6942 H         1 UNK         0.0808 
    150 H150      -46.7249  -21.4326    7.2366 H         1 UNK         0.0808 
    151 H151      -45.8326  -22.7039    6.4129 H         1 UNK         0.0808 
    152 H152      -47.4021  -24.5363    5.6094 H         1 UNK         0.3098 
    153 H153      -48.7963  -26.3664    4.8428 H         1 UNK         0.0720 
    154 H154      -46.4103  -26.8808    5.4592 H         1 UNK         0.0791 
    155 H155      -46.9541  -27.9743    6.7267 H         1 UNK         0.0791 
    156 H156      -47.2507  -28.3609    5.0343 H         1 UNK         0.0791 
    157 H157      -49.8498  -27.7159    7.1843 H         1 UNK         0.3028 
@<TRIPOS>BOND
     1    1    2 1    
     2    1   82 1    
     3    1   83 1    
     4    1   84 1    
     5    2    3 2    
     6    2    4 am   BACKBONE|DICT|INTERRES
     7    4    5 1    
     8    4   85 1    
     9    5    6 1    
    10    5   80 1    
    11    5   86 1    
    12    6    7 1    
    13    6   87 1    
    14    6   88 1    
    15    7    8 1    
    16    8    9 1    
    17    8   89 1    
    18    8   90 1    
    19    9   10 ar   
    20    9   14 ar   
    21   10   11 ar   
    22   10   91 1    
    23   11   12 ar   
    24   11   58 1    
    25   12   13 ar   
    26   12   92 1    
    27   13   14 ar   
    28   13   15 1    
    29   14   93 1    
    30   15   16 1    
    31   15   94 1    
    32   15   95 1    
    33   16   17 1    
    34   17   18 1    
    35   17   96 1    
    36   17   97 1    
    37   18   19 1    
    38   18   22 1    
    39   18   98 1    
    40   19   20 am   BACKBONE|DICT|INTERRES
    41   19   21 2    
    42   20   99 1    
    43   20  100 1    
    44   22   23 am   BACKBONE|DICT|INTERRES
    45   22  101 1    
    46   23   24 2    
    47   23   25 1    
    48   25   26 1    
    49   25   27 1    
    50   25  102 1    
    51   26  103 1    
    52   26  104 1    
    53   26  105 1    
    54   27   28 am   BACKBONE|DICT|INTERRES
    55   27  106 1    
    56   28   29 2    
    57   28   30 1    
    58   30   31 1    
    59   30   32 1    
    60   30  107 1    
    61   31  108 1    
    62   31  109 1    
    63   31  110 1    
    64   32   33 am   BACKBONE|DICT|INTERRES
    65   32  111 1    
    66   33   34 2    
    67   33   35 1    
    68   35   36 1    
    69   35   37 1    
    70   35  112 1    
    71   36  113 1    
    72   36  114 1    
    73   36  115 1    
    74   37   38 am   BACKBONE|DICT|INTERRES
    75   37  116 1    
    76   38   39 2    
    77   38   40 1    
    78   40   41 1    
    79   40   42 1    
    80   40  117 1    
    81   41  118 1    
    82   41  119 1    
    83   41  120 1    
    84   42   43 am   BACKBONE|DICT|INTERRES
    85   42  121 1    
    86   43   44 2    
    87   43   45 1    
    88   45   46 1    
    89   45   47 1    
    90   45  122 1    
    91   46  123 1    
    92   46  124 1    
    93   46  125 1    
    94   47   48 am   BACKBONE|DICT|INTERRES
    95   47  126 1    
    96   48   49 2    
    97   48   50 1    
    98   50   51 1    
    99   50   52 1    
   100   50  127 1    
   101   51  128 1    
   102   51  129 1    
   103   51  130 1    
   104   52   53 am   BACKBONE|DICT|INTERRES
   105   52  131 1    
   106   53   54 2    
   107   53   55 1    
   108   55   56 1    
   109   55   59 1    
   110   55  132 1    
   111   56   57 1    
   112   56  133 1    
   113   56  134 1    
   114   57   58 1    
   115   58  135 1    
   116   58  136 1    
   117   59   60 am   BACKBONE|DICT|INTERRES
   118   59  137 1    
   119   60   61 2    
   120   60   62 1    
   121   62   63 1    
   122   62   64 1    
   123   62  138 1    
   124   63  139 1    
   125   63  140 1    
   126   63  141 1    
   127   64   65 am   BACKBONE|DICT|INTERRES
   128   64  142 1    
   129   65   66 2    
   130   65   67 1    
   131   67   68 1    
   132   67   69 1    
   133   67  143 1    
   134   68  144 1    
   135   68  145 1    
   136   68  146 1    
   137   69   70 am   BACKBONE|DICT|INTERRES
   138   69  147 1    
   139   70   71 2    
   140   70   72 1    
   141   72   73 1    
   142   72   74 1    
   143   72  148 1    
   144   73  149 1    
   145   73  150 1    
   146   73  151 1    
   147   74   75 am   BACKBONE|DICT|INTERRES
   148   74  152 1    
   149   75   76 2    
   150   75   77 1    
   151   77   78 1    
   152   77   79 1    
   153   77  153 1    
   154   78  154 1    
   155   78  155 1    
   156   78  156 1    
   157   79   80 am   BACKBONE|DICT|INTERRES
   158   79  157 1    
   159   80   81 2    
@<TRIPOS>SUBSTRUCTURE
     1 UNK         1 GROUP             0       ****    0 ROOT    
