@<TRIPOS>MOLECULE
3R207
157   159    1
SMALL
USER_CHARGES


@<TRIPOS>ATOM
      1 CA        -48.7723  -29.5538    0.1913 C.3       0 UNK        -0.1975 
      2 C         -48.8455  -28.6046    1.3787 C.2       0 UNK         0.4852 
      3 O         -47.9648  -27.7578    1.5396 O.2       0 UNK        -0.5216 
      4 N         -49.8928  -28.7337    2.2027 N.am      1 UNK        -0.4461 
      5 CA        -50.0959  -27.9633    3.4336 C.3       1 UNK         0.0864 
      6 C6        -51.6023  -27.8276    3.7793 C.3       14 UNK        -0.0898 
      7 S7        -52.4779  -29.4116    4.0183 S.3       14 UNK        -0.2598 
      8 C8        -54.0926  -28.8222    4.6204 C.3       14 UNK         0.0286 
      9 C9        -54.1135  -28.6558    6.1340 C.ar      14 UNK        -0.0844 
     10 C10       -53.7509  -27.4392    6.7262 C.ar      14 UNK        -0.0881 
     11 C11       -53.7915  -27.2924    8.1162 C.ar      14 UNK        -0.0643 
     12 C12       -54.2364  -28.3521    8.9054 C.ar      14 UNK        -0.0930 
     13 C13       -54.5676  -29.5813    8.3338 C.ar      14 UNK        -0.0827 
     14 C14       -54.5093  -29.7262    6.9448 C.ar      14 UNK        -0.1249 
     15 C15       -54.9937  -30.7418    9.2217 C.3       14 UNK         0.0141 
     16 S16       -53.6081  -31.8347    9.7009 S.3       14 UNK        -0.2313 
     17 C17       -52.3853  -30.7478   10.5250 C.3       14 UNK        -0.0915 
     18 CA        -52.6759  -30.4879   12.0302 C.3       13 UNK         0.0968 
     19 C         -51.4507  -29.8347   12.7387 C.2       13 UNK         0.5732 
     20 N         -51.5633  -28.6571   13.3432 N.am      13 UNK        -0.7310 
     21 O         -50.3721  -30.4213   12.7502 O.2       13 UNK        -0.5035 
     22 N         -53.9248  -29.7376   12.1971 N.am      13 UNK        -0.4233 
     23 C         -54.7017  -29.7340   13.2817 C.2       13 UNK         0.4989 
     24 O         -54.5097  -30.4213   14.2867 O.2       13 UNK        -0.4996 
     25 CA        -55.9124  -28.7868   13.2154 C.3       12 UNK         0.0216 
     26 CB        -57.2275  -29.5834   13.1995 C.3       12 UNK        -0.1964 
     27 N         -55.9340  -27.8256   14.3194 N.am      12 UNK        -0.4276 
     28 C         -54.9548  -26.9606   14.6159 C.2       12 UNK         0.5020 
     29 O         -53.8975  -26.8640   13.9816 O.2       12 UNK        -0.5489 
     30 CA        -55.2026  -26.0587   15.8320 C.3       11 UNK         0.0294 
     31 CB        -55.2217  -26.8825   17.1365 C.3       11 UNK        -0.2019 
     32 N         -54.1378  -25.0653   15.8904 N.am      11 UNK        -0.4493 
     33 C         -54.1239  -23.9454   16.6228 C.2       11 UNK         0.4932 
     34 O         -55.0886  -23.5410   17.2745 O.2       11 UNK        -0.5029 
     35 CA        -52.7865  -23.1756   16.6484 C.3       10 UNK         0.0280 
     36 CB        -52.6965  -22.1394   17.7885 C.3       10 UNK        -0.1976 
     37 N         -51.6369  -24.0905   16.6671 N.am      10 UNK        -0.4242 
     38 C         -51.3596  -25.0186   17.5988 C.2       10 UNK         0.5072 
     39 O         -51.9552  -25.1296   18.6714 O.2       10 UNK        -0.5224 
     40 CA        -50.2586  -26.0332   17.2563 C.3       9 UNK         0.0343 
     41 CB        -50.8598  -27.2079   16.4681 C.3       9 UNK        -0.2003 
     42 N         -49.1550  -25.4449   16.4961 N.am      9 UNK        -0.4272 
     43 C         -48.2318  -24.6340   17.0324 C.2       9 UNK         0.4988 
     44 O         -48.2033  -24.3187   18.2230 O.2       9 UNK        -0.5108 
     45 CA        -47.1521  -24.0837   16.0875 C.3       8 UNK         0.0248 
     46 CB        -46.0757  -25.1480   15.8215 C.3       8 UNK        -0.2001 
     47 N         -47.6947  -23.5863   14.8202 N.am      8 UNK        -0.4140 
     48 C         -48.5021  -22.5196   14.7133 C.2       8 UNK         0.5028 
     49 O         -48.8575  -21.8289   15.6688 O.2       8 UNK        -0.5428 
     50 CA        -49.0075  -22.1571   13.3071 C.3       7 UNK         0.0264 
     51 CB        -47.9360  -21.3749   12.5306 C.3       7 UNK        -0.1988 
     52 N         -49.4301  -23.3196   12.5246 N.am      7 UNK        -0.4454 
     53 C         -50.4590  -24.1220   12.8379 C.2       7 UNK         0.5027 
     54 O         -51.1824  -23.9599   13.8211 O.2       7 UNK        -0.5083 
     55 CA        -50.6831  -25.3426   11.9248 C.3       6 UNK         0.0844 
     56 C56       -51.3700  -24.9204   10.5993 C.3       14 UNK        -0.0967 
     57 S57       -51.6495  -26.3416    9.4950 S.3       14 UNK        -0.2604 
     58 C58       -53.2985  -26.0268    8.7981 C.3       14 UNK         0.0134 
     59 N         -49.4297  -26.0805   11.7216 N.am      6 UNK        -0.4116 
     60 C         -48.6959  -26.6376   12.6973 C.2       5 UNK         0.5034 
     61 O         -49.0294  -26.6638   13.8819 O.2       5 UNK        -0.5045 
     62 CA        -47.3341  -27.2217   12.2983 C.3       5 UNK         0.0224 
     63 CB        -47.4786  -28.6704   11.8082 C.3       5 UNK        -0.1978 
     64 N         -46.6755  -26.4080   11.2755 N.am      5 UNK        -0.4737 
     65 C         -46.1180  -25.2124   11.5096 C.2       4 UNK         0.5027 
     66 O         -46.0701  -24.6883   12.6214 O.2       4 UNK        -0.5211 
     67 CA        -45.5552  -24.4560   10.2945 C.3       4 UNK         0.0297 
     68 CB        -44.1388  -24.9483    9.9586 C.3       4 UNK        -0.1993 
     69 N         -46.4102  -24.5648    9.1098 N.am      4 UNK        -0.4486 
     70 C         -47.6491  -24.0614    9.0302 C.2       3 UNK         0.4961 
     71 O         -48.1893  -23.4233    9.9337 O.2       3 UNK        -0.5105 
     72 CA        -48.4392  -24.3458    7.7418 C.3       3 UNK         0.0299 
     73 CB        -48.1089  -23.2951    6.6699 C.3       3 UNK        -0.1972 
     74 N         -48.2843  -25.6922    7.1722 N.am      3 UNK        -0.4305 
     75 C         -48.4202  -26.8565    7.8299 C.2       2 UNK         0.5006 
     76 O         -48.4582  -26.9448    9.0561 O.2       2 UNK        -0.5106 
     77 CA        -48.5797  -28.1266    6.9772 C.3       2 UNK         0.0296 
     78 CB        -49.2963  -29.2612    7.7423 C.3       2 UNK        -0.2002 
     79 N         -49.3087  -27.8144    5.7463 N.am      2 UNK        -0.4032 
     80 C         -49.2505  -28.5141    4.6069 C.2       1 UNK         0.5000 
     81 O         -48.5710  -29.5364    4.4685 O.2       1 UNK        -0.5238 
     82 H82       -47.8626  -30.1513    0.2451 H         1 UNK         0.0889 
     83 H83       -48.7555  -28.9891   -0.7405 H         1 UNK         0.0889 
     84 H84       -49.6234  -30.2340    0.1603 H         1 UNK         0.0889 
     85 H85       -50.5679  -29.4682    2.0436 H         1 UNK         0.3028 
     86 H86       -49.7254  -26.9518    3.2513 H         1 UNK         0.0864 
     87 H87       -52.1053  -27.2911    2.9731 H         1 UNK         0.0720 
     88 H88       -51.7371  -27.2069    4.6645 H         1 UNK         0.0720 
     89 H89       -54.8570  -29.5410    4.3212 H         1 UNK         0.0814 
     90 H90       -54.3572  -27.8846    4.1292 H         1 UNK         0.0814 
     91 H91       -53.4254  -26.6125    6.1111 H         1 UNK         0.1469 
     92 H92       -54.2732  -28.2203    9.9745 H         1 UNK         0.1381 
     93 H93       -54.7731  -30.6734    6.4941 H         1 UNK         0.1206 
     94 H94       -55.5044  -30.3758   10.1120 H         1 UNK         0.0813 
     95 H95       -55.7340  -31.3447    8.6936 H         1 UNK         0.0813 
     96 H96       -52.2739  -29.8124    9.9771 H         1 UNK         0.0638 
     97 H97       -51.4239  -31.2532   10.4169 H         1 UNK         0.0638 
     98 H98       -52.8066  -31.4586   12.5119 H         1 UNK         0.0568 
     99 H99       -50.7459  -28.2544   13.7753 H         1 UNK         0.3450 
    100 H100      -52.4482  -28.1643   13.3892 H         1 UNK         0.3450 
    101 H101      -54.1447  -29.1040   11.4482 H         1 UNK         0.2987 
    102 H102      -55.8600  -28.2077   12.2908 H         1 UNK         0.0766 
    103 H103      -58.0898  -28.9277   13.0761 H         1 UNK         0.0798 
    104 H104      -57.3660  -30.1524   14.1200 H         1 UNK         0.0798 
    105 H105      -57.2430  -30.2948   12.3726 H         1 UNK         0.0798 
    106 H106      -56.7497  -27.8483   14.9140 H         1 UNK         0.3198 
    107 H107      -56.1584  -25.5483   15.6966 H         1 UNK         0.0843 
    108 H108      -54.2776  -27.4065   17.2916 H         1 UNK         0.0831 
    109 H109      -56.0135  -27.6321   17.1260 H         1 UNK         0.0831 
    110 H110      -55.3957  -26.2502   18.0073 H         1 UNK         0.0831 
    111 H111      -53.3400  -25.2957   15.3081 H         1 UNK         0.3133 
    112 H112      -52.7281  -22.6317   15.7047 H         1 UNK         0.0566 
    113 H113      -51.7376  -21.6211   17.7756 H         1 UNK         0.0814 
    114 H114      -53.4757  -21.3829   17.6894 H         1 UNK         0.0814 
    115 H115      -52.8161  -22.6010   18.7690 H         1 UNK         0.0814 
    116 H116      -51.1107  -24.1138   15.7982 H         1 UNK         0.3091 
    117 H117      -49.8589  -26.4249   18.1942 H         1 UNK         0.0702 
    118 H118      -50.1069  -27.9627   16.2408 H         1 UNK         0.0785 
    119 H119      -51.2976  -26.8741   15.5266 H         1 UNK         0.0785 
    120 H120      -51.6505  -27.6981   17.0376 H         1 UNK         0.0785 
    121 H121      -49.0872  -25.7022   15.5138 H         1 UNK         0.2998 
    122 H122      -46.6720  -23.2422   16.5916 H         1 UNK         0.0697 
    123 H123      -46.4797  -26.0036   15.2801 H         1 UNK         0.0825 
    124 H124      -45.6556  -25.5217   16.7563 H         1 UNK         0.0825 
    125 H125      -45.2507  -24.7402   15.2373 H         1 UNK         0.0825 
    126 H126      -47.3867  -24.0593   13.9753 H         1 UNK         0.3029 
    127 H127      -49.8787  -21.5099   13.4294 H         1 UNK         0.0897 
    128 H128      -48.3174  -21.0289   11.5697 H         1 UNK         0.0792 
    129 H129      -47.6128  -20.4945   13.0877 H         1 UNK         0.0792 
    130 H130      -47.0520  -21.9842   12.3377 H         1 UNK         0.0792 
    131 H131      -48.9066  -23.5038   11.6705 H         1 UNK         0.3086 
    132 H132      -51.3653  -26.0134   12.4503 H         1 UNK         0.0583 
    133 H133      -52.3266  -24.4396   10.8123 H         1 UNK         0.1020 
    134 H134      -50.7720  -24.1831   10.0628 H         1 UNK         0.1020 
    135 H135      -53.9919  -25.7400    9.5902 H         1 UNK         0.0694 
    136 H136      -53.2491  -25.1929    8.0964 H         1 UNK         0.0694 
    137 H137      -49.1075  -26.1763   10.7630 H         1 UNK         0.2989 
    138 H138      -46.7008  -27.2289   13.1877 H         1 UNK         0.1055 
    139 H139      -47.8690  -29.3070   12.6031 H         1 UNK         0.0806 
    140 H140      -46.5189  -29.0866   11.5024 H         1 UNK         0.0806 
    141 H141      -48.1660  -28.7507   10.9659 H         1 UNK         0.0806 
    142 H142      -46.7929  -26.7111   10.3158 H         1 UNK         0.3061 
    143 H143      -45.4928  -23.3996   10.5651 H         1 UNK         0.0734 
    144 H144      -43.6943  -24.3618    9.1544 H         1 UNK         0.0832 
    145 H145      -43.4810  -24.8581   10.8244 H         1 UNK         0.0832 
    146 H146      -44.1343  -25.9957    9.6545 H         1 UNK         0.0832 
    147 H147      -46.0525  -25.0879    8.3239 H         1 UNK         0.3156 
    148 H148      -49.4964  -24.2409    7.9921 H         1 UNK         0.0589 
    149 H149      -47.0792  -23.3831    6.3210 H         1 UNK         0.0808 
    150 H150      -48.2345  -22.2844    7.0617 H         1 UNK         0.0808 
    151 H151      -48.7666  -23.3865    5.8054 H         1 UNK         0.0808 
    152 H152      -48.1731  -25.7314    6.1696 H         1 UNK         0.3098 
    153 H153      -47.5721  -28.4591    6.7199 H         1 UNK         0.0720 
    154 H154      -48.7452  -29.5410    8.6407 H         1 UNK         0.0791 
    155 H155      -49.3909  -30.1597    7.1328 H         1 UNK         0.0791 
    156 H156      -50.2986  -28.9618    8.0532 H         1 UNK         0.0791 
    157 H157      -49.9165  -27.0086    5.7968 H         1 UNK         0.3028 
@<TRIPOS>BOND
     1    1    2 1    
     2    1   82 1    
     3    1   83 1    
     4    1   84 1    
     5    2    3 2    
     6    2    4 am   BACKBONE|DICT|INTERRES
     7    4    5 1    
     8    4   85 1    
     9    5    6 1    
    10    5   80 1    
    11    5   86 1    
    12    6    7 1    
    13    6   87 1    
    14    6   88 1    
    15    7    8 1    
    16    8    9 1    
    17    8   89 1    
    18    8   90 1    
    19    9   10 ar   
    20    9   14 ar   
    21   10   11 ar   
    22   10   91 1    
    23   11   12 ar   
    24   11   58 1    
    25   12   13 ar   
    26   12   92 1    
    27   13   14 ar   
    28   13   15 1    
    29   14   93 1    
    30   15   16 1    
    31   15   94 1    
    32   15   95 1    
    33   16   17 1    
    34   17   18 1    
    35   17   96 1    
    36   17   97 1    
    37   18   19 1    
    38   18   22 1    
    39   18   98 1    
    40   19   20 am   BACKBONE|DICT|INTERRES
    41   19   21 2    
    42   20   99 1    
    43   20  100 1    
    44   22   23 am   BACKBONE|DICT|INTERRES
    45   22  101 1    
    46   23   24 2    
    47   23   25 1    
    48   25   26 1    
    49   25   27 1    
    50   25  102 1    
    51   26  103 1    
    52   26  104 1    
    53   26  105 1    
    54   27   28 am   BACKBONE|DICT|INTERRES
    55   27  106 1    
    56   28   29 2    
    57   28   30 1    
    58   30   31 1    
    59   30   32 1    
    60   30  107 1    
    61   31  108 1    
    62   31  109 1    
    63   31  110 1    
    64   32   33 am   BACKBONE|DICT|INTERRES
    65   32  111 1    
    66   33   34 2    
    67   33   35 1    
    68   35   36 1    
    69   35   37 1    
    70   35  112 1    
    71   36  113 1    
    72   36  114 1    
    73   36  115 1    
    74   37   38 am   BACKBONE|DICT|INTERRES
    75   37  116 1    
    76   38   39 2    
    77   38   40 1    
    78   40   41 1    
    79   40   42 1    
    80   40  117 1    
    81   41  118 1    
    82   41  119 1    
    83   41  120 1    
    84   42   43 am   BACKBONE|DICT|INTERRES
    85   42  121 1    
    86   43   44 2    
    87   43   45 1    
    88   45   46 1    
    89   45   47 1    
    90   45  122 1    
    91   46  123 1    
    92   46  124 1    
    93   46  125 1    
    94   47   48 am   BACKBONE|DICT|INTERRES
    95   47  126 1    
    96   48   49 2    
    97   48   50 1    
    98   50   51 1    
    99   50   52 1    
   100   50  127 1    
   101   51  128 1    
   102   51  129 1    
   103   51  130 1    
   104   52   53 am   BACKBONE|DICT|INTERRES
   105   52  131 1    
   106   53   54 2    
   107   53   55 1    
   108   55   56 1    
   109   55   59 1    
   110   55  132 1    
   111   56   57 1    
   112   56  133 1    
   113   56  134 1    
   114   57   58 1    
   115   58  135 1    
   116   58  136 1    
   117   59   60 am   BACKBONE|DICT|INTERRES
   118   59  137 1    
   119   60   61 2    
   120   60   62 1    
   121   62   63 1    
   122   62   64 1    
   123   62  138 1    
   124   63  139 1    
   125   63  140 1    
   126   63  141 1    
   127   64   65 am   BACKBONE|DICT|INTERRES
   128   64  142 1    
   129   65   66 2    
   130   65   67 1    
   131   67   68 1    
   132   67   69 1    
   133   67  143 1    
   134   68  144 1    
   135   68  145 1    
   136   68  146 1    
   137   69   70 am   BACKBONE|DICT|INTERRES
   138   69  147 1    
   139   70   71 2    
   140   70   72 1    
   141   72   73 1    
   142   72   74 1    
   143   72  148 1    
   144   73  149 1    
   145   73  150 1    
   146   73  151 1    
   147   74   75 am   BACKBONE|DICT|INTERRES
   148   74  152 1    
   149   75   76 2    
   150   75   77 1    
   151   77   78 1    
   152   77   79 1    
   153   77  153 1    
   154   78  154 1    
   155   78  155 1    
   156   78  156 1    
   157   79   80 am   BACKBONE|DICT|INTERRES
   158   79  157 1    
   159   80   81 2    
@<TRIPOS>SUBSTRUCTURE
     1 UNK         1 GROUP             0       ****    0 ROOT    
