@<TRIPOS>MOLECULE
3R207
157   159    1
SMALL
USER_CHARGES


@<TRIPOS>ATOM
      1 CA        -49.5279  -28.8998    3.8576 C.3       0 UNK        -0.1975 
      2 C         -48.9598  -28.0573    4.9896 C.2       0 UNK         0.4852 
      3 O         -49.2529  -26.8650    5.0688 O.2       0 UNK        -0.5216 
      4 N         -48.1545  -28.6715    5.8675 N.am      1 UNK        -0.4461 
      5 CA        -47.5315  -28.0277    7.0312 C.3       1 UNK         0.0864 
      6 C6        -46.8929  -29.0504    8.0060 C.3       14 UNK        -0.0898 
      7 S7        -47.9871  -30.4455    8.4537 S.3       14 UNK        -0.2598 
      8 C8        -48.5911  -29.9739   10.1128 C.3       14 UNK         0.0286 
      9 C9        -50.0313  -29.4611   10.1575 C.ar      14 UNK        -0.0844 
     10 C10       -50.6482  -28.8420    9.0611 C.ar      14 UNK        -0.0881 
     11 C11       -51.9509  -28.3454    9.1603 C.ar      14 UNK        -0.0643 
     12 C12       -52.6533  -28.4934   10.3584 C.ar      14 UNK        -0.0930 
     13 C13       -52.0478  -29.0924   11.4642 C.ar      14 UNK        -0.0827 
     14 C14       -50.7432  -29.5796   11.3564 C.ar      14 UNK        -0.1249 
     15 C15       -52.7924  -29.1554   12.7849 C.3       14 UNK         0.0141 
     16 S16       -54.0446  -30.4714   12.7891 S.3       14 UNK        -0.2313 
     17 C17       -54.9326  -30.1037   14.3401 C.3       14 UNK        -0.0915 
     18 CA        -56.2150  -29.2600   14.1039 C.3       13 UNK         0.0968 
     19 C         -57.1081  -29.2015   15.3782 C.2       13 UNK         0.5732 
     20 N         -57.4592  -28.0357   15.9109 N.am      13 UNK        -0.7310 
     21 O         -57.5053  -30.2441   15.8926 O.2       13 UNK        -0.5035 
     22 N         -55.8948  -27.9367   13.5498 N.am      13 UNK        -0.4233 
     23 C         -56.6881  -27.2376   12.7282 C.2       13 UNK         0.4989 
     24 O         -57.7431  -27.6748   12.2650 O.2       13 UNK        -0.4996 
     25 CA        -56.2272  -25.8089   12.3632 C.3       12 UNK         0.0216 
     26 CB        -57.4010  -24.8882   11.9677 C.3       12 UNK        -0.1964 
     27 N         -55.3983  -25.1711   13.3952 N.am      12 UNK        -0.4276 
     28 C         -55.7299  -24.9528   14.6763 C.2       12 UNK         0.5020 
     29 O         -56.8197  -25.2474   15.1727 O.2       12 UNK        -0.5489 
     30 CA        -54.6270  -24.3751   15.5787 C.3       11 UNK         0.0294 
     31 CB        -55.0993  -23.0873   16.2732 C.3       11 UNK        -0.2019 
     32 N         -54.1889  -25.3427   16.5926 N.am      11 UNK        -0.4493 
     33 C         -53.7031  -26.5635   16.3333 C.2       11 UNK         0.4932 
     34 O         -53.5675  -27.0232   15.1951 O.2       11 UNK        -0.5029 
     35 CA        -53.2899  -27.4211   17.5336 C.3       10 UNK         0.0280 
     36 CB        -54.5119  -28.1345   18.1428 C.3       10 UNK        -0.1976 
     37 N         -52.3175  -28.3860   17.0343 N.am      10 UNK        -0.4242 
     38 C         -51.5628  -29.2386   17.7341 C.2       10 UNK         0.5072 
     39 O         -51.5869  -29.3442   18.9607 O.2       10 UNK        -0.5224 
     40 CA        -50.6040  -30.1127   16.9093 C.3       9 UNK         0.0343 
     41 CB        -51.3633  -31.2544   16.2112 C.3       9 UNK        -0.2003 
     42 N         -49.8823  -29.3153   15.9129 N.am      9 UNK        -0.4272 
     43 C         -48.7684  -28.6178   16.1757 C.2       9 UNK         0.4988 
     44 O         -48.1806  -28.6381   17.2578 O.2       9 UNK        -0.5108 
     45 CA        -48.2258  -27.7372   15.0370 C.3       8 UNK         0.0248 
     46 CB        -47.6109  -28.5902   13.9137 C.3       8 UNK        -0.2001 
     47 N         -49.2360  -26.8351   14.4757 N.am      8 UNK        -0.4140 
     48 C         -49.8202  -25.8261   15.1433 C.2       8 UNK         0.5028 
     49 O         -49.6005  -25.5783   16.3293 O.2       8 UNK        -0.5428 
     50 CA        -50.7980  -24.9297   14.3634 C.3       7 UNK         0.0264 
     51 CB        -50.6743  -23.4416   14.7425 C.3       7 UNK        -0.1988 
     52 N         -50.6496  -25.0858   12.9186 N.am      7 UNK        -0.4454 
     53 C         -51.6388  -25.0420   12.0210 C.2       7 UNK         0.5027 
     54 O         -52.8159  -24.8203   12.3155 O.2       7 UNK        -0.5083 
     55 CA        -51.2310  -25.3016   10.5545 C.3       6 UNK         0.0844 
     56 C56       -52.4191  -25.2152    9.5592 C.3       14 UNK        -0.0967 
     57 S57       -51.9667  -25.8679    7.9111 S.3       14 UNK        -0.2604 
     58 C58       -52.5758  -27.5871    7.9981 C.3       14 UNK         0.0134 
     59 N         -50.1083  -24.4644   10.1244 N.am      6 UNK        -0.4116 
     60 C         -48.8169  -24.6431   10.4244 C.2       5 UNK         0.5034 
     61 O         -48.4189  -25.5013   11.2163 O.2       5 UNK        -0.5045 
     62 CA        -47.8177  -23.7082    9.7151 C.3       5 UNK         0.0224 
     63 CB        -46.3532  -24.0362   10.0608 C.3       5 UNK        -0.1978 
     64 N         -47.9853  -23.7467    8.2583 N.am      5 UNK        -0.4737 
     65 C         -48.9393  -23.1021    7.5721 C.2       4 UNK         0.5027 
     66 O         -49.7844  -22.3873    8.1158 O.2       4 UNK        -0.5211 
     67 CA        -48.9712  -23.3116    6.0451 C.3       4 UNK         0.0297 
     68 CB        -49.9077  -22.3186    5.3252 C.3       4 UNK        -0.1993 
     69 N         -47.6419  -23.3060    5.4234 N.am      4 UNK        -0.4486 
     70 C         -46.7153  -22.3370    5.4644 C.2       3 UNK         0.4961 
     71 O         -46.8701  -21.2655    6.0529 O.2       3 UNK        -0.5105 
     72 CA        -45.3889  -22.6181    4.7223 C.3       3 UNK         0.0299 
     73 CB        -44.3026  -21.5707    5.0328 C.3       3 UNK        -0.1972 
     74 N         -44.8536  -23.9517    5.0143 N.am      3 UNK        -0.4305 
     75 C         -45.2779  -25.0988    4.4690 C.2       2 UNK         0.5006 
     76 O         -46.1629  -25.1540    3.6136 O.2       2 UNK        -0.5106 
     77 CA        -44.6630  -26.4123    4.9877 C.3       2 UNK         0.0296 
     78 CB        -43.4763  -26.2242    5.9622 C.3       2 UNK        -0.2002 
     79 N         -45.6944  -27.2692    5.5844 N.am      2 UNK        -0.4032 
     80 C         -46.4917  -26.9654    6.6225 C.2       1 UNK         0.5000 
     81 O         -46.4423  -25.9017    7.2410 O.2       1 UNK        -0.5238 
     82 H82       -49.2152  -28.4940    2.8958 H         1 UNK         0.0889 
     83 H83       -50.6169  -28.8898    3.8943 H         1 UNK         0.0889 
     84 H84       -49.1961  -29.9364    3.9134 H         1 UNK         0.0889 
     85 H85       -47.9735  -29.6609    5.7702 H         1 UNK         0.3028 
     86 H86       -48.3165  -27.4938    7.5704 H         1 UNK         0.0864 
     87 H87       -45.9980  -29.4884    7.5593 H         1 UNK         0.0720 
     88 H88       -46.5503  -28.5456    8.9111 H         1 UNK         0.0720 
     89 H89       -48.5095  -30.8587   10.7459 H         1 UNK         0.0814 
     90 H90       -47.9384  -29.2244   10.5610 H         1 UNK         0.0814 
     91 H91       -50.1179  -28.7183    8.1298 H         1 UNK         0.1469 
     92 H92       -53.6596  -28.1074   10.4464 H         1 UNK         0.1381 
     93 H93       -50.2761  -30.0445   12.2133 H         1 UNK         0.1206 
     94 H94       -53.2685  -28.1905   12.9516 H         1 UNK         0.0813 
     95 H95       -52.1018  -29.3068   13.6138 H         1 UNK         0.0813 
     96 H96       -54.2639  -29.6091   15.0450 H         1 UNK         0.0638 
     97 H97       -55.1849  -31.0649   14.7913 H         1 UNK         0.0638 
     98 H98       -56.8142  -29.7973   13.3665 H         1 UNK         0.0568 
     99 H99       -58.0465  -28.0345   16.7287 H         1 UNK         0.3450 
    100 H100      -57.1709  -27.1515   15.5036 H         1 UNK         0.3450 
    101 H101      -55.0679  -27.4913   13.9329 H         1 UNK         0.2987 
    102 H102      -55.5842  -25.9183   11.4887 H         1 UNK         0.0766 
    103 H103      -57.9415  -25.2863   11.1080 H         1 UNK         0.0798 
    104 H104      -57.0495  -23.8936   11.6937 H         1 UNK         0.0798 
    105 H105      -58.1190  -24.7782   12.7812 H         1 UNK         0.0798 
    106 H106      -54.4458  -24.9531   13.0978 H         1 UNK         0.3198 
    107 H107      -53.7662  -24.1203   14.9588 H         1 UNK         0.0843 
    108 H108      -55.9385  -23.2744   16.9446 H         1 UNK         0.0831 
    109 H109      -55.4279  -22.3487   15.5407 H         1 UNK         0.0831 
    110 H110      -54.2976  -22.6309   16.8541 H         1 UNK         0.0831 
    111 H111      -54.2941  -25.0597   17.5563 H         1 UNK         0.3133 
    112 H112      -52.8107  -26.7854   18.2805 H         1 UNK         0.0566 
    113 H113      -54.9524  -28.8443   17.4428 H         1 UNK         0.0814 
    114 H114      -55.2902  -27.4216   18.4182 H         1 UNK         0.0814 
    115 H115      -54.2457  -28.6823   19.0465 H         1 UNK         0.0814 
    116 H116      -52.2274  -28.3507   16.0274 H         1 UNK         0.3091 
    117 H117      -49.8853  -30.5640   17.5972 H         1 UNK         0.0702 
    118 H118      -50.6808  -31.9084   15.6680 H         1 UNK         0.0785 
    119 H119      -52.1061  -30.8859   15.5040 H         1 UNK         0.0785 
    120 H120      -51.8895  -31.8721   16.9403 H         1 UNK         0.0785 
    121 H121      -50.2791  -29.2559   14.9887 H         1 UNK         0.2998 
    122 H122      -47.4307  -27.1159   15.4553 H         1 UNK         0.0697 
    123 H123      -48.3518  -29.2216   13.4240 H         1 UNK         0.0825 
    124 H124      -46.8329  -29.2468   14.3058 H         1 UNK         0.0825 
    125 H125      -47.1487  -27.9644   13.1495 H         1 UNK         0.0825 
    126 H126      -49.4768  -26.9751   13.5058 H         1 UNK         0.3029 
    127 H127      -51.7908  -25.2697   14.6464 H         1 UNK         0.0897 
    128 H128      -49.6842  -23.0500   14.5072 H         1 UNK         0.0792 
    129 H129      -50.8433  -23.2908   15.8095 H         1 UNK         0.0792 
    130 H130      -51.4098  -22.8351   14.2139 H         1 UNK         0.0792 
    131 H131      -49.7075  -25.2395   12.5641 H         1 UNK         0.3086 
    132 H132      -50.8691  -26.3293   10.5500 H         1 UNK         0.0583 
    133 H133      -53.2898  -25.7603    9.9262 H         1 UNK         0.1020 
    134 H134      -52.7462  -24.1799    9.4482 H         1 UNK         0.1020 
    135 H135      -53.6637  -27.5816    8.0809 H         1 UNK         0.0694 
    136 H136      -52.3413  -28.0937    7.0607 H         1 UNK         0.0694 
    137 H137      -50.3280  -23.7222    9.4675 H         1 UNK         0.2989 
    138 H138      -48.0219  -22.6941   10.0661 H         1 UNK         0.1055 
    139 H139      -46.0894  -25.0553    9.7755 H         1 UNK         0.0806 
    140 H140      -46.1741  -23.9420   11.1326 H         1 UNK         0.0806 
    141 H141      -45.6646  -23.3583    9.5563 H         1 UNK         0.0806 
    142 H142      -47.3685  -24.3855    7.7578 H         1 UNK         0.3061 
    143 H143      -49.3754  -24.3130    5.8917 H         1 UNK         0.0734 
    144 H144      -49.5917  -21.2855    5.4734 H         1 UNK         0.0832 
    145 H145      -49.9408  -22.5103    4.2528 H         1 UNK         0.0832 
    146 H146      -50.9288  -22.4039    5.6992 H         1 UNK         0.0832 
    147 H147      -47.3979  -24.1441    4.9049 H         1 UNK         0.3156 
    148 H148      -45.6068  -22.5569    3.6540 H         1 UNK         0.0589 
    149 H149      -43.3886  -21.7675    4.4721 H         1 UNK         0.0808 
    150 H150      -44.6351  -20.5680    4.7605 H         1 UNK         0.0808 
    151 H151      -44.0498  -21.5540    6.0938 H         1 UNK         0.0808 
    152 H152      -44.1655  -24.0070    5.7513 H         1 UNK         0.3098 
    153 H153      -44.2886  -26.9396    4.1090 H         1 UNK         0.0720 
    154 H154      -43.7672  -25.7165    6.8826 H         1 UNK         0.0791 
    155 H155      -42.6732  -25.6478    5.5008 H         1 UNK         0.0791 
    156 H156      -43.0507  -27.1875    6.2440 H         1 UNK         0.0791 
    157 H157      -45.8545  -28.1498    5.1161 H         1 UNK         0.3028 
@<TRIPOS>BOND
     1    1    2 1    
     2    1   82 1    
     3    1   83 1    
     4    1   84 1    
     5    2    3 2    
     6    2    4 am   BACKBONE|DICT|INTERRES
     7    4    5 1    
     8    4   85 1    
     9    5    6 1    
    10    5   80 1    
    11    5   86 1    
    12    6    7 1    
    13    6   87 1    
    14    6   88 1    
    15    7    8 1    
    16    8    9 1    
    17    8   89 1    
    18    8   90 1    
    19    9   10 ar   
    20    9   14 ar   
    21   10   11 ar   
    22   10   91 1    
    23   11   12 ar   
    24   11   58 1    
    25   12   13 ar   
    26   12   92 1    
    27   13   14 ar   
    28   13   15 1    
    29   14   93 1    
    30   15   16 1    
    31   15   94 1    
    32   15   95 1    
    33   16   17 1    
    34   17   18 1    
    35   17   96 1    
    36   17   97 1    
    37   18   19 1    
    38   18   22 1    
    39   18   98 1    
    40   19   20 am   BACKBONE|DICT|INTERRES
    41   19   21 2    
    42   20   99 1    
    43   20  100 1    
    44   22   23 am   BACKBONE|DICT|INTERRES
    45   22  101 1    
    46   23   24 2    
    47   23   25 1    
    48   25   26 1    
    49   25   27 1    
    50   25  102 1    
    51   26  103 1    
    52   26  104 1    
    53   26  105 1    
    54   27   28 am   BACKBONE|DICT|INTERRES
    55   27  106 1    
    56   28   29 2    
    57   28   30 1    
    58   30   31 1    
    59   30   32 1    
    60   30  107 1    
    61   31  108 1    
    62   31  109 1    
    63   31  110 1    
    64   32   33 am   BACKBONE|DICT|INTERRES
    65   32  111 1    
    66   33   34 2    
    67   33   35 1    
    68   35   36 1    
    69   35   37 1    
    70   35  112 1    
    71   36  113 1    
    72   36  114 1    
    73   36  115 1    
    74   37   38 am   BACKBONE|DICT|INTERRES
    75   37  116 1    
    76   38   39 2    
    77   38   40 1    
    78   40   41 1    
    79   40   42 1    
    80   40  117 1    
    81   41  118 1    
    82   41  119 1    
    83   41  120 1    
    84   42   43 am   BACKBONE|DICT|INTERRES
    85   42  121 1    
    86   43   44 2    
    87   43   45 1    
    88   45   46 1    
    89   45   47 1    
    90   45  122 1    
    91   46  123 1    
    92   46  124 1    
    93   46  125 1    
    94   47   48 am   BACKBONE|DICT|INTERRES
    95   47  126 1    
    96   48   49 2    
    97   48   50 1    
    98   50   51 1    
    99   50   52 1    
   100   50  127 1    
   101   51  128 1    
   102   51  129 1    
   103   51  130 1    
   104   52   53 am   BACKBONE|DICT|INTERRES
   105   52  131 1    
   106   53   54 2    
   107   53   55 1    
   108   55   56 1    
   109   55   59 1    
   110   55  132 1    
   111   56   57 1    
   112   56  133 1    
   113   56  134 1    
   114   57   58 1    
   115   58  135 1    
   116   58  136 1    
   117   59   60 am   BACKBONE|DICT|INTERRES
   118   59  137 1    
   119   60   61 2    
   120   60   62 1    
   121   62   63 1    
   122   62   64 1    
   123   62  138 1    
   124   63  139 1    
   125   63  140 1    
   126   63  141 1    
   127   64   65 am   BACKBONE|DICT|INTERRES
   128   64  142 1    
   129   65   66 2    
   130   65   67 1    
   131   67   68 1    
   132   67   69 1    
   133   67  143 1    
   134   68  144 1    
   135   68  145 1    
   136   68  146 1    
   137   69   70 am   BACKBONE|DICT|INTERRES
   138   69  147 1    
   139   70   71 2    
   140   70   72 1    
   141   72   73 1    
   142   72   74 1    
   143   72  148 1    
   144   73  149 1    
   145   73  150 1    
   146   73  151 1    
   147   74   75 am   BACKBONE|DICT|INTERRES
   148   74  152 1    
   149   75   76 2    
   150   75   77 1    
   151   77   78 1    
   152   77   79 1    
   153   77  153 1    
   154   78  154 1    
   155   78  155 1    
   156   78  156 1    
   157   79   80 am   BACKBONE|DICT|INTERRES
   158   79  157 1    
   159   80   81 2    
@<TRIPOS>SUBSTRUCTURE
     1 UNK         1 GROUP             0       ****    0 ROOT    
