@<TRIPOS>MOLECULE
3R207
157   159    1
SMALL
USER_CHARGES


@<TRIPOS>ATOM
      1 CA        -46.8096  -29.9151    8.2597 C.3       0 UNK        -0.1975 
      2 C         -47.6284  -28.9219    7.4503 C.2       0 UNK         0.4852 
      3 O         -47.6260  -27.7311    7.7654 O.2       0 UNK        -0.5216 
      4 N         -48.3108  -29.3956    6.3975 N.am      1 UNK        -0.4461 
      5 CA        -49.2147  -28.6263    5.5227 C.3       1 UNK         0.0864 
      6 C6        -50.4752  -28.1011    6.2677 C.3       14 UNK        -0.0898 
      7 S7        -51.4586  -29.4295    7.0410 S.3       14 UNK        -0.2598 
      8 C8        -53.1379  -28.7301    6.9414 C.3       14 UNK         0.0286 
      9 C9        -53.3519  -27.6228    7.9645 C.ar      14 UNK        -0.0844 
     10 C10       -53.0385  -26.2962    7.6537 C.ar      14 UNK        -0.0881 
     11 C11       -53.2391  -25.2782    8.5911 C.ar      14 UNK        -0.0643 
     12 C12       -53.7645  -25.5950    9.8470 C.ar      14 UNK        -0.0930 
     13 C13       -54.0909  -26.9164   10.1671 C.ar      14 UNK        -0.0827 
     14 C14       -53.8846  -27.9240    9.2205 C.ar      14 UNK        -0.1249 
     15 C15       -54.6983  -27.2444   11.5223 C.3       14 UNK         0.0141 
     16 S16       -53.4568  -27.8585   12.7039 S.3       14 UNK        -0.2313 
     17 C17       -53.1925  -29.6030   12.2133 C.3       14 UNK        -0.0915 
     18 CA        -54.4760  -30.4739   12.1167 C.3       13 UNK         0.0968 
     19 C         -54.1268  -31.9660   11.8651 C.2       13 UNK         0.5732 
     20 N         -53.7651  -32.3190   10.6389 N.am      13 UNK        -0.7310 
     21 O         -54.1462  -32.7980   12.7710 O.2       13 UNK        -0.5035 
     22 N         -55.3494  -30.2809   13.2794 N.am      13 UNK        -0.4233 
     23 C         -56.6577  -30.5573   13.3113 C.2       13 UNK         0.4989 
     24 O         -57.2802  -31.0434   12.3659 O.2       13 UNK        -0.4996 
     25 CA        -57.4150  -30.2165   14.6092 C.3       12 UNK         0.0216 
     26 CB        -57.6530  -31.4888   15.4395 C.3       12 UNK        -0.1964 
     27 N         -56.7539  -29.2101   15.4505 N.am      12 UNK        -0.4276 
     28 C         -56.5756  -27.9204   15.1282 C.2       12 UNK         0.5020 
     29 O         -56.9485  -27.4251   14.0639 O.2       12 UNK        -0.5489 
     30 CA        -55.8689  -27.0261   16.1578 C.3       11 UNK         0.0294 
     31 CB        -55.4202  -27.7525   17.4461 C.3       11 UNK        -0.2019 
     32 N         -54.7145  -26.3829   15.5324 N.am      11 UNK        -0.4493 
     33 C         -54.2533  -25.1674   15.8493 C.2       11 UNK         0.4932 
     34 O         -54.8163  -24.4135   16.6464 O.2       11 UNK        -0.5029 
     35 CA        -52.9241  -24.7390   15.1889 C.3       10 UNK         0.0280 
     36 CB        -52.3398  -23.4572   15.8195 C.3       10 UNK        -0.1976 
     37 N         -51.9023  -25.7955   15.1820 N.am      10 UNK        -0.4242 
     38 C         -51.4407  -26.4902   16.2354 C.2       10 UNK         0.5072 
     39 O         -51.8498  -26.3642   17.3902 O.2       10 UNK        -0.5224 
     40 CA        -50.2934  -27.4684   15.9606 C.3       9 UNK         0.0343 
     41 CB        -50.7194  -28.6213   15.0358 C.3       9 UNK        -0.2003 
     42 N         -49.1631  -26.7496   15.3744 N.am      9 UNK        -0.4272 
     43 C         -47.9899  -26.5524   15.9892 C.2       9 UNK         0.4988 
     44 O         -47.7091  -27.0025   17.1011 O.2       9 UNK        -0.5108 
     45 CA        -46.9341  -25.7229   15.2417 C.3       8 UNK         0.0248 
     46 CB        -46.0539  -26.6369   14.3731 C.3       8 UNK        -0.2001 
     47 N         -47.4915  -24.6507   14.4134 N.am      8 UNK        -0.4140 
     48 C         -48.0657  -23.5364   14.8918 C.2       8 UNK         0.5028 
     49 O         -48.2541  -23.3259   16.0902 O.2       8 UNK        -0.5428 
     50 CA        -48.4817  -22.4631   13.8745 C.3       7 UNK         0.0264 
     51 CB        -47.2648  -21.6213   13.4559 C.3       7 UNK        -0.1988 
     52 N         -49.0863  -23.0571   12.6827 N.am      7 UNK        -0.4454 
     53 C         -50.3612  -22.8876   12.3007 C.2       7 UNK         0.5027 
     54 O         -51.1578  -22.1468   12.8774 O.2       7 UNK        -0.5083 
     55 CA        -50.8397  -23.6625   11.0524 C.3       6 UNK         0.0844 
     56 C56       -50.8306  -22.7230    9.8180 C.3       14 UNK        -0.0967 
     57 S57       -51.1151  -23.5509    8.2142 S.3       14 UNK        -0.2604 
     58 C58       -52.9109  -23.8380    8.2263 C.3       14 UNK         0.0134 
     59 N         -50.0931  -24.8959   10.8075 N.am      6 UNK        -0.4116 
     60 C         -49.9401  -25.9265   11.6471 C.2       5 UNK         0.5034 
     61 O         -50.4246  -25.9870   12.7774 O.2       5 UNK        -0.5045 
     62 CA        -49.0062  -27.0452   11.1656 C.3       5 UNK         0.0224 
     63 CB        -49.8170  -28.1187   10.4253 C.3       5 UNK        -0.1978 
     64 N         -47.9084  -26.5713   10.3090 N.am      5 UNK        -0.4737 
     65 C         -47.0016  -25.6396   10.6432 C.2       4 UNK         0.5027 
     66 O         -47.0204  -25.0158   11.7047 O.2       4 UNK        -0.5211 
     67 CA        -45.9280  -25.3149    9.6008 C.3       4 UNK         0.0297 
     68 CB        -44.9130  -26.4621    9.4702 C.3       4 UNK        -0.1993 
     69 N         -46.5358  -25.0264    8.3011 N.am      4 UNK        -0.4486 
     70 C         -46.9342  -23.8054    7.9171 C.2       3 UNK         0.4961 
     71 O         -46.8411  -22.8119    8.6401 O.2       3 UNK        -0.5105 
     72 CA        -47.5514  -23.6433    6.5105 C.3       3 UNK         0.0299 
     73 CB        -47.1286  -22.3180    5.8422 C.3       3 UNK        -0.1972 
     74 N         -47.3406  -24.7695    5.5928 N.am      3 UNK        -0.4305 
     75 C         -46.1895  -25.2578    5.1083 C.2       2 UNK         0.5006 
     76 O         -45.0787  -24.8176    5.4084 O.2       2 UNK        -0.5106 
     77 CA        -46.3110  -26.4534    4.1338 C.3       2 UNK         0.0296 
     78 CB        -44.9427  -27.0554    3.7614 C.3       2 UNK        -0.2002 
     79 N         -47.1681  -27.5213    4.6616 N.am      2 UNK        -0.4032 
     80 C         -48.5066  -27.4862    4.7478 C.2       1 UNK         0.5000 
     81 O         -49.1736  -26.5635    4.2736 O.2       1 UNK        -0.5238 
     82 H82       -46.9999  -29.7814    9.3240 H         1 UNK         0.0889 
     83 H83       -45.7464  -29.7565    8.0820 H         1 UNK         0.0889 
     84 H84       -47.0502  -30.9459    8.0007 H         1 UNK         0.0889 
     85 H85       -48.2608  -30.3836    6.1896 H         1 UNK         0.3028 
     86 H86       -49.5541  -29.3233    4.7551 H         1 UNK         0.0864 
     87 H87       -51.1253  -27.5718    5.5695 H         1 UNK         0.0720 
     88 H88       -50.2025  -27.3764    7.0368 H         1 UNK         0.0720 
     89 H89       -53.8584  -29.5319    7.1096 H         1 UNK         0.0814 
     90 H90       -53.3322  -28.3620    5.9329 H         1 UNK         0.0814 
     91 H91       -52.6352  -26.0505    6.6812 H         1 UNK         0.1469 
     92 H92       -53.9348  -24.8115   10.5717 H         1 UNK         0.1381 
     93 H93       -54.1420  -28.9455    9.4570 H         1 UNK         0.1206 
     94 H94       -55.1506  -26.3483   11.9499 H         1 UNK         0.0813 
     95 H95       -55.5189  -27.9527   11.4144 H         1 UNK         0.0813 
     96 H96       -52.5031  -30.0341   12.9413 H         1 UNK         0.0638 
     97 H97       -52.6622  -29.6128   11.2607 H         1 UNK         0.0638 
     98 H98       -55.0394  -30.1476   11.2422 H         1 UNK         0.0568 
     99 H99       -53.7285  -31.6488    9.8879 H         1 UNK         0.3450 
    100 H100      -53.5228  -33.2811   10.4617 H         1 UNK         0.3450 
    101 H101      -54.9111  -29.9080   14.1061 H         1 UNK         0.2987 
    102 H102      -58.3868  -29.8138   14.3156 H         1 UNK         0.0766 
    103 H103      -58.1756  -32.2458   14.8527 H         1 UNK         0.0798 
    104 H104      -58.2669  -31.2832   16.3167 H         1 UNK         0.0798 
    105 H105      -56.7156  -31.9313   15.7790 H         1 UNK         0.0798 
    106 H106      -56.4209  -29.5239   16.3510 H         1 UNK         0.3198 
    107 H107      -56.5996  -26.2631   16.4350 H         1 UNK         0.0843 
    108 H108      -54.6781  -28.5258   17.2431 H         1 UNK         0.0831 
    109 H109      -56.2634  -28.2129   17.9628 H         1 UNK         0.0831 
    110 H110      -54.9696  -27.0515   18.1495 H         1 UNK         0.0831 
    111 H111      -54.2406  -26.9123   14.8110 H         1 UNK         0.3133 
    112 H112      -53.1487  -24.5250   14.1429 H         1 UNK         0.0566 
    113 H113      -52.1645  -23.5782   16.8891 H         1 UNK         0.0814 
    114 H114      -53.0178  -22.6128   15.6908 H         1 UNK         0.0814 
    115 H115      -51.3909  -23.1838   15.3591 H         1 UNK         0.0814 
    116 H116      -51.4828  -25.9817   14.2720 H         1 UNK         0.3091 
    117 H117      -50.0157  -27.9102   16.9200 H         1 UNK         0.0702 
    118 H118      -49.9574  -29.4001   15.0092 H         1 UNK         0.0785 
    119 H119      -50.8792  -28.2879   14.0116 H         1 UNK         0.0785 
    120 H120      -51.6446  -29.0841   15.3820 H         1 UNK         0.0785 
    121 H121      -49.3275  -26.3138   14.4740 H         1 UNK         0.2998 
    122 H122      -46.2933  -25.2577   15.9939 H         1 UNK         0.0697 
    123 H123      -45.2543  -26.0754   13.8894 H         1 UNK         0.0825 
    124 H124      -46.6318  -27.1336   13.5934 H         1 UNK         0.0825 
    125 H125      -45.5841  -27.4150   14.9763 H         1 UNK         0.0825 
    126 H126      -47.3372  -24.7396   13.4097 H         1 UNK         0.3029 
    127 H127      -49.1928  -21.8024   14.3753 H         1 UNK         0.0897 
    128 H128      -46.5155  -22.2214   12.9373 H         1 UNK         0.0792 
    129 H129      -46.7819  -21.1723   14.3250 H         1 UNK         0.0792 
    130 H130      -47.5581  -20.8079   12.7920 H         1 UNK         0.0792 
    131 H131      -48.5008  -23.6914   12.1491 H         1 UNK         0.3086 
    132 H132      -51.8698  -23.9601   11.2488 H         1 UNK         0.0583 
    133 H133      -51.5664  -21.9259    9.9415 H         1 UNK         0.1020 
    134 H134      -49.8639  -22.2205    9.7353 H         1 UNK         0.1020 
    135 H135      -53.4037  -23.1393    8.9038 H         1 UNK         0.0694 
    136 H136      -53.3046  -23.6237    7.2317 H         1 UNK         0.0694 
    137 H137      -49.6538  -24.9630    9.9013 H         1 UNK         0.2989 
    138 H138      -48.5610  -27.5003   12.0522 H         1 UNK         0.1055 
    139 H139      -49.2021  -28.9786   10.1638 H         1 UNK         0.0806 
    140 H140      -50.2628  -27.7303    9.5085 H         1 UNK         0.0806 
    141 H141      -50.6314  -28.4845   11.0502 H         1 UNK         0.0806 
    142 H142      -47.8272  -27.0057    9.3899 H         1 UNK         0.3061 
    143 H143      -45.3808  -24.4361    9.9495 H         1 UNK         0.0734 
    144 H144      -45.3781  -27.3910    9.1431 H         1 UNK         0.0832 
    145 H145      -44.1277  -26.2134    8.7562 H         1 UNK         0.0832 
    146 H146      -44.4294  -26.6618   10.4275 H         1 UNK         0.0832 
    147 H147      -46.7216  -25.8199    7.6981 H         1 UNK         0.3156 
    148 H148      -48.6287  -23.5970    6.6654 H         1 UNK         0.0589 
    149 H149      -47.5973  -22.1984    4.8654 H         1 UNK         0.0808 
    150 H150      -46.0482  -22.2614    5.7062 H         1 UNK         0.0808 
    151 H151      -47.4252  -21.4598    6.4465 H         1 UNK         0.0808 
    152 H152      -48.1875  -25.2260    5.2631 H         1 UNK         0.3098 
    153 H153      -46.7635  -26.0692    3.2172 H         1 UNK         0.0720 
    154 H154      -44.2951  -26.3048    3.3061 H         1 UNK         0.0791 
    155 H155      -45.0483  -27.8666    3.0408 H         1 UNK         0.0791 
    156 H156      -44.4230  -27.4478    4.6365 H         1 UNK         0.0791 
    157 H157      -46.6967  -28.2954    5.1060 H         1 UNK         0.3028 
@<TRIPOS>BOND
     1    1    2 1    
     2    1   82 1    
     3    1   83 1    
     4    1   84 1    
     5    2    3 2    
     6    2    4 am   BACKBONE|DICT|INTERRES
     7    4    5 1    
     8    4   85 1    
     9    5    6 1    
    10    5   80 1    
    11    5   86 1    
    12    6    7 1    
    13    6   87 1    
    14    6   88 1    
    15    7    8 1    
    16    8    9 1    
    17    8   89 1    
    18    8   90 1    
    19    9   10 ar   
    20    9   14 ar   
    21   10   11 ar   
    22   10   91 1    
    23   11   12 ar   
    24   11   58 1    
    25   12   13 ar   
    26   12   92 1    
    27   13   14 ar   
    28   13   15 1    
    29   14   93 1    
    30   15   16 1    
    31   15   94 1    
    32   15   95 1    
    33   16   17 1    
    34   17   18 1    
    35   17   96 1    
    36   17   97 1    
    37   18   19 1    
    38   18   22 1    
    39   18   98 1    
    40   19   20 am   BACKBONE|DICT|INTERRES
    41   19   21 2    
    42   20   99 1    
    43   20  100 1    
    44   22   23 am   BACKBONE|DICT|INTERRES
    45   22  101 1    
    46   23   24 2    
    47   23   25 1    
    48   25   26 1    
    49   25   27 1    
    50   25  102 1    
    51   26  103 1    
    52   26  104 1    
    53   26  105 1    
    54   27   28 am   BACKBONE|DICT|INTERRES
    55   27  106 1    
    56   28   29 2    
    57   28   30 1    
    58   30   31 1    
    59   30   32 1    
    60   30  107 1    
    61   31  108 1    
    62   31  109 1    
    63   31  110 1    
    64   32   33 am   BACKBONE|DICT|INTERRES
    65   32  111 1    
    66   33   34 2    
    67   33   35 1    
    68   35   36 1    
    69   35   37 1    
    70   35  112 1    
    71   36  113 1    
    72   36  114 1    
    73   36  115 1    
    74   37   38 am   BACKBONE|DICT|INTERRES
    75   37  116 1    
    76   38   39 2    
    77   38   40 1    
    78   40   41 1    
    79   40   42 1    
    80   40  117 1    
    81   41  118 1    
    82   41  119 1    
    83   41  120 1    
    84   42   43 am   BACKBONE|DICT|INTERRES
    85   42  121 1    
    86   43   44 2    
    87   43   45 1    
    88   45   46 1    
    89   45   47 1    
    90   45  122 1    
    91   46  123 1    
    92   46  124 1    
    93   46  125 1    
    94   47   48 am   BACKBONE|DICT|INTERRES
    95   47  126 1    
    96   48   49 2    
    97   48   50 1    
    98   50   51 1    
    99   50   52 1    
   100   50  127 1    
   101   51  128 1    
   102   51  129 1    
   103   51  130 1    
   104   52   53 am   BACKBONE|DICT|INTERRES
   105   52  131 1    
   106   53   54 2    
   107   53   55 1    
   108   55   56 1    
   109   55   59 1    
   110   55  132 1    
   111   56   57 1    
   112   56  133 1    
   113   56  134 1    
   114   57   58 1    
   115   58  135 1    
   116   58  136 1    
   117   59   60 am   BACKBONE|DICT|INTERRES
   118   59  137 1    
   119   60   61 2    
   120   60   62 1    
   121   62   63 1    
   122   62   64 1    
   123   62  138 1    
   124   63  139 1    
   125   63  140 1    
   126   63  141 1    
   127   64   65 am   BACKBONE|DICT|INTERRES
   128   64  142 1    
   129   65   66 2    
   130   65   67 1    
   131   67   68 1    
   132   67   69 1    
   133   67  143 1    
   134   68  144 1    
   135   68  145 1    
   136   68  146 1    
   137   69   70 am   BACKBONE|DICT|INTERRES
   138   69  147 1    
   139   70   71 2    
   140   70   72 1    
   141   72   73 1    
   142   72   74 1    
   143   72  148 1    
   144   73  149 1    
   145   73  150 1    
   146   73  151 1    
   147   74   75 am   BACKBONE|DICT|INTERRES
   148   74  152 1    
   149   75   76 2    
   150   75   77 1    
   151   77   78 1    
   152   77   79 1    
   153   77  153 1    
   154   78  154 1    
   155   78  155 1    
   156   78  156 1    
   157   79   80 am   BACKBONE|DICT|INTERRES
   158   79  157 1    
   159   80   81 2    
@<TRIPOS>SUBSTRUCTURE
     1 UNK         1 GROUP             0       ****    0 ROOT    
