@<TRIPOS>MOLECULE
3R207
157   159    1
SMALL
USER_CHARGES


@<TRIPOS>ATOM
      1 CA        -45.6292  -29.9387    9.6745 C.3       0 UNK        -0.1975 
      2 C         -46.1755  -29.2462    8.4354 C.2       0 UNK         0.4852 
      3 O         -45.4047  -28.6732    7.6636 O.2       0 UNK        -0.5216 
      4 N         -47.5003  -29.2928    8.2405 N.am      1 UNK        -0.4461 
      5 CA        -48.2361  -28.6459    7.1492 C.3       1 UNK         0.0864 
      6 C6        -49.7596  -28.9173    7.2011 C.3       14 UNK        -0.0898 
      7 S7        -50.2216  -30.6644    7.4607 S.3       14 UNK        -0.2598 
      8 C8        -51.7355  -30.8148    6.4530 C.3       14 UNK         0.0286 
      9 C9        -52.7743  -29.7560    6.8031 C.ar      14 UNK        -0.0844 
     10 C10       -52.8611  -28.5899    6.0384 C.ar      14 UNK        -0.0881 
     11 C11       -53.7763  -27.5884    6.3651 C.ar      14 UNK        -0.0643 
     12 C12       -54.6557  -27.7837    7.4339 C.ar      14 UNK        -0.0930 
     13 C13       -54.5889  -28.9511    8.2004 C.ar      14 UNK        -0.0827 
     14 C14       -53.6415  -29.9320    7.8859 C.ar      14 UNK        -0.1249 
     15 C15       -55.5510  -29.1539    9.3584 C.3       14 UNK         0.0141 
     16 S16       -54.9311  -28.3995   10.8939 S.3       14 UNK        -0.2313 
     17 C17       -56.2982  -28.8382   12.0204 C.3       14 UNK        -0.0915 
     18 CA        -56.6040  -27.7275   13.0570 C.3       13 UNK         0.0968 
     19 C         -57.9618  -27.9941   13.7713 C.2       13 UNK         0.5732 
     20 N         -57.9896  -28.3051   15.0623 N.am      13 UNK        -0.7310 
     21 O         -59.0124  -27.9083   13.1401 O.2       13 UNK        -0.5035 
     22 N         -55.4715  -27.5341   13.9732 N.am      13 UNK        -0.4233 
     23 C         -55.2577  -26.4516   14.7260 C.2       13 UNK         0.4989 
     24 O         -55.9602  -25.4418   14.6789 O.2       13 UNK        -0.4996 
     25 CA        -54.0566  -26.4742   15.6893 C.3       12 UNK         0.0216 
     26 CB        -54.4999  -26.8313   17.1214 C.3       12 UNK        -0.1964 
     27 N         -52.9140  -27.2963   15.2598 N.am      12 UNK        -0.4276 
     28 C         -52.8213  -28.6271   15.1320 C.2       12 UNK         0.5020 
     29 O         -53.7692  -29.3876   15.3331 O.2       12 UNK        -0.5489 
     30 CA        -51.4799  -29.2346   14.6878 C.3       11 UNK         0.0294 
     31 CB        -51.5791  -29.7955   13.2575 C.3       11 UNK        -0.2019 
     32 N         -50.3209  -28.3346   14.8165 N.am      11 UNK        -0.4493 
     33 C         -49.0842  -28.7639   15.1178 C.2       11 UNK         0.4932 
     34 O         -48.7997  -29.9554   15.2501 O.2       11 UNK        -0.5029 
     35 CA        -47.9602  -27.7275   15.3318 C.3       10 UNK         0.0280 
     36 CB        -46.8987  -27.7977   14.2220 C.3       10 UNK        -0.1976 
     37 N         -48.4223  -26.3457   15.4964 N.am      10 UNK        -0.4242 
     38 C         -48.9843  -25.8883   16.6241 C.2       10 UNK         0.5072 
     39 O         -49.1736  -26.5910   17.6186 O.2       10 UNK        -0.5224 
     40 CA        -49.4019  -24.4061   16.6904 C.3       9 UNK         0.0343 
     41 CB        -48.2181  -23.5534   17.1767 C.3       9 UNK        -0.2003 
     42 N         -49.9724  -23.7782   15.4904 N.am      9 UNK        -0.4272 
     43 C         -50.8090  -24.3046   14.5869 C.2       9 UNK         0.4988 
     44 O         -51.0676  -25.5052   14.4901 O.2       9 UNK        -0.5108 
     45 CA        -51.4941  -23.2980   13.6549 C.3       8 UNK         0.0248 
     46 CB        -50.5109  -22.6459   12.6659 C.3       8 UNK        -0.2001 
     47 N         -52.5656  -23.9447   12.9012 N.am      8 UNK        -0.4140 
     48 C         -53.7010  -23.3486   12.5142 C.2       8 UNK         0.5028 
     49 O         -54.0301  -22.2153   12.8720 O.2       8 UNK        -0.5428 
     50 CA        -54.5986  -24.1334   11.5305 C.3       7 UNK         0.0264 
     51 CB        -55.6023  -23.2318   10.7824 C.3       7 UNK        -0.1988 
     52 N         -53.8350  -24.9437   10.5733 N.am      7 UNK        -0.4454 
     53 C         -52.8584  -24.5280    9.7493 C.2       7 UNK         0.5027 
     54 O         -52.4986  -23.3552    9.6245 O.2       7 UNK        -0.5083 
     55 CA        -52.1148  -25.6383    8.9725 C.3       6 UNK         0.0844 
     56 C56       -51.8872  -25.2762    7.4771 C.3       14 UNK        -0.0967 
     57 S57       -53.4285  -24.8288    6.5853 S.3       14 UNK        -0.2604 
     58 C58       -53.7927  -26.2944    5.5650 C.3       14 UNK         0.0134 
     59 N         -50.8581  -25.9953    9.6484 N.am      6 UNK        -0.4116 
     60 C         -50.7529  -26.4315   10.9165 C.2       5 UNK         0.5034 
     61 O         -51.7106  -26.5854   11.6732 O.2       5 UNK        -0.5045 
     62 CA        -49.3512  -26.7384   11.4552 C.3       5 UNK         0.0224 
     63 CB        -48.8998  -28.1410   11.0273 C.3       5 UNK        -0.1978 
     64 N         -48.3704  -25.7375   11.0220 N.am      5 UNK        -0.4737 
     65 C         -47.7991  -24.8581   11.8583 C.2       4 UNK         0.5027 
     66 O         -47.9922  -24.8555   13.0756 O.2       4 UNK        -0.5211 
     67 CA        -46.8856  -23.7811   11.2426 C.3       4 UNK         0.0297 
     68 CB        -46.0528  -23.0343   12.3066 C.3       4 UNK        -0.1993 
     69 N         -46.0164  -24.2675   10.1676 N.am      4 UNK        -0.4486 
     70 C         -45.0998  -25.2440   10.2188 C.2       3 UNK         0.4961 
     71 O         -44.8960  -25.9537   11.2047 O.2       3 UNK        -0.5105 
     72 CA        -44.2711  -25.4449    8.9331 C.3       3 UNK         0.0299 
     73 CB        -43.2097  -26.5520    9.0721 C.3       3 UNK        -0.1972 
     74 N         -45.1262  -25.7276    7.7758 N.am      3 UNK        -0.4305 
     75 C         -45.8265  -24.8063    7.0943 C.2       2 UNK         0.5006 
     76 O         -45.7824  -23.6019    7.3507 O.2       2 UNK        -0.5106 
     77 CA        -46.7632  -25.2877    5.9711 C.3       2 UNK         0.0296 
     78 CB        -46.0866  -25.1233    4.6007 C.3       2 UNK        -0.2002 
     79 N         -47.2106  -26.6725    6.1264 N.am      2 UNK        -0.4032 
     80 C         -47.9775  -27.1241    7.1279 C.2       1 UNK         0.5000 
     81 O         -48.4441  -26.4083    8.0229 O.2       1 UNK        -0.5238 
     82 H82       -46.3930  -30.5274   10.1823 H         1 UNK         0.0889 
     83 H83       -45.2471  -29.1986   10.3775 H         1 UNK         0.0889 
     84 H84       -44.8121  -30.6064    9.4027 H         1 UNK         0.0889 
     85 H85       -48.0769  -29.8104    8.8877 H         1 UNK         0.3028 
     86 H86       -47.8571  -29.0788    6.2210 H         1 UNK         0.0864 
     87 H87       -50.2534  -28.3374    7.9822 H         1 UNK         0.0720 
     88 H88       -50.1869  -28.5774    6.2590 H         1 UNK         0.0720 
     89 H89       -52.1605  -31.8088    6.5995 H         1 UNK         0.0814 
     90 H90       -51.4689  -30.7531    5.3967 H         1 UNK         0.0814 
     91 H91       -52.1967  -28.4499    5.1970 H         1 UNK         0.1469 
     92 H92       -55.3747  -27.0149    7.6828 H         1 UNK         0.1381 
     93 H93       -53.5781  -30.8317    8.4829 H         1 UNK         0.1206 
     94 H94       -56.5221  -28.7237    9.1082 H         1 UNK         0.0813 
     95 H95       -55.7196  -30.2193    9.5236 H         1 UNK         0.0813 
     96 H96       -56.0473  -29.7742   12.5227 H         1 UNK         0.0638 
     97 H97       -57.1856  -29.0457   11.4193 H         1 UNK         0.0638 
     98 H98       -56.7432  -26.7947   12.5075 H         1 UNK         0.0568 
     99 H99       -57.1339  -28.3889   15.5865 H         1 UNK         0.3450 
    100 H100      -58.8768  -28.4702   15.5108 H         1 UNK         0.3450 
    101 H101      -54.8766  -28.3398   14.1373 H         1 UNK         0.2987 
    102 H102      -53.6768  -25.4515   15.7144 H         1 UNK         0.0766 
    103 H103      -53.6679  -26.7590   17.8218 H         1 UNK         0.0798 
    104 H104      -54.9049  -27.8415   17.1854 H         1 UNK         0.0798 
    105 H105      -55.2766  -26.1492   17.4699 H         1 UNK         0.0798 
    106 H106      -52.1167  -26.7302   14.9684 H         1 UNK         0.3198 
    107 H107      -51.3300  -30.0811   15.3617 H         1 UNK         0.0843 
    108 H108      -51.7116  -29.0049   12.5212 H         1 UNK         0.0831 
    109 H109      -52.4306  -30.4702   13.1589 H         1 UNK         0.0831 
    110 H110      -50.6895  -30.3660   12.9920 H         1 UNK         0.0831 
    111 H111      -50.4791  -27.3361   14.7157 H         1 UNK         0.3133 
    112 H112      -47.4574  -28.0179   16.2569 H         1 UNK         0.0566 
    113 H113      -46.0425  -27.1643   14.4541 H         1 UNK         0.0814 
    114 H114      -46.5244  -28.8145   14.0973 H         1 UNK         0.0814 
    115 H115      -47.2899  -27.4766   13.2612 H         1 UNK         0.0814 
    116 H116      -48.3157  -25.7184   14.6990 H         1 UNK         0.3091 
    117 H117      -50.1837  -24.3471   17.4500 H         1 UNK         0.0702 
    118 H118      -48.5286  -22.5353   17.4121 H         1 UNK         0.0785 
    119 H119      -47.4297  -23.4999   16.4245 H         1 UNK         0.0785 
    120 H120      -47.7769  -23.9711   18.0831 H         1 UNK         0.0785 
    121 H121      -49.8114  -22.7838   15.4265 H         1 UNK         0.2998 
    122 H122      -51.9177  -22.5221   14.2961 H         1 UNK         0.0697 
    123 H123      -49.6095  -22.2821   13.1601 H         1 UNK         0.0825 
    124 H124      -50.9715  -21.7940   12.1652 H         1 UNK         0.0825 
    125 H125      -50.2053  -23.3479   11.8913 H         1 UNK         0.0825 
    126 H126      -52.3724  -24.8997   12.6089 H         1 UNK         0.3029 
    127 H127      -55.1724  -24.8346   12.1360 H         1 UNK         0.0897 
    128 H128      -56.2358  -23.8140   10.1131 H         1 UNK         0.0792 
    129 H129      -55.0947  -22.4716   10.1875 H         1 UNK         0.0792 
    130 H130      -56.2608  -22.7143   11.4812 H         1 UNK         0.0792 
    131 H131      -53.9820  -25.9434   10.6433 H         1 UNK         0.3086 
    132 H132      -52.7349  -26.5357    8.9974 H         1 UNK         0.0583 
    133 H133      -51.1983  -24.4331    7.3981 H         1 UNK         0.1020 
    134 H134      -51.3984  -26.1038    6.9615 H         1 UNK         0.1020 
    135 H135      -54.7747  -26.1708    5.1067 H         1 UNK         0.0694 
    136 H136      -53.0740  -26.3327    4.7450 H         1 UNK         0.0694 
    137 H137      -50.0138  -25.9332    9.0888 H         1 UNK         0.2989 
    138 H138      -49.4322  -26.7407   12.5434 H         1 UNK         0.1055 
    139 H139      -49.3850  -28.9046   11.6328 H         1 UNK         0.0806 
    140 H140      -47.8239  -28.2756   11.1344 H         1 UNK         0.0806 
    141 H141      -49.1651  -28.3412    9.9940 H         1 UNK         0.0806 
    142 H142      -48.1532  -25.7021   10.0321 H         1 UNK         0.3061 
    143 H143      -47.5557  -23.0531   10.7831 H         1 UNK         0.0734 
    144 H144      -45.4420  -22.2514   11.8575 H         1 UNK         0.0832 
    145 H145      -46.6974  -22.5561   13.0454 H         1 UNK         0.0832 
    146 H146      -45.3894  -23.7120   12.8453 H         1 UNK         0.0832 
    147 H147      -46.0972  -23.7804    9.2787 H         1 UNK         0.3156 
    148 H148      -43.7366  -24.5104    8.7492 H         1 UNK         0.0589 
    149 H149      -43.6561  -27.5166    9.3117 H         1 UNK         0.0808 
    150 H150      -42.6328  -26.6681    8.1546 H         1 UNK         0.0808 
    151 H151      -42.5046  -26.3158    9.8701 H         1 UNK         0.0808 
    152 H152      -45.2487  -26.7102    7.5443 H         1 UNK         0.3098 
    153 H153      -47.6495  -24.6500    5.9940 H         1 UNK         0.0720 
    154 H154      -46.7678  -25.3763    3.7879 H         1 UNK         0.0791 
    155 H155      -45.2018  -25.7546    4.5084 H         1 UNK         0.0791 
    156 H156      -45.7683  -24.0915    4.4439 H         1 UNK         0.0791 
    157 H157      -46.8433  -27.3386    5.4618 H         1 UNK         0.3028 
@<TRIPOS>BOND
     1    1    2 1    
     2    1   82 1    
     3    1   83 1    
     4    1   84 1    
     5    2    3 2    
     6    2    4 am   BACKBONE|DICT|INTERRES
     7    4    5 1    
     8    4   85 1    
     9    5    6 1    
    10    5   80 1    
    11    5   86 1    
    12    6    7 1    
    13    6   87 1    
    14    6   88 1    
    15    7    8 1    
    16    8    9 1    
    17    8   89 1    
    18    8   90 1    
    19    9   10 ar   
    20    9   14 ar   
    21   10   11 ar   
    22   10   91 1    
    23   11   12 ar   
    24   11   58 1    
    25   12   13 ar   
    26   12   92 1    
    27   13   14 ar   
    28   13   15 1    
    29   14   93 1    
    30   15   16 1    
    31   15   94 1    
    32   15   95 1    
    33   16   17 1    
    34   17   18 1    
    35   17   96 1    
    36   17   97 1    
    37   18   19 1    
    38   18   22 1    
    39   18   98 1    
    40   19   20 am   BACKBONE|DICT|INTERRES
    41   19   21 2    
    42   20   99 1    
    43   20  100 1    
    44   22   23 am   BACKBONE|DICT|INTERRES
    45   22  101 1    
    46   23   24 2    
    47   23   25 1    
    48   25   26 1    
    49   25   27 1    
    50   25  102 1    
    51   26  103 1    
    52   26  104 1    
    53   26  105 1    
    54   27   28 am   BACKBONE|DICT|INTERRES
    55   27  106 1    
    56   28   29 2    
    57   28   30 1    
    58   30   31 1    
    59   30   32 1    
    60   30  107 1    
    61   31  108 1    
    62   31  109 1    
    63   31  110 1    
    64   32   33 am   BACKBONE|DICT|INTERRES
    65   32  111 1    
    66   33   34 2    
    67   33   35 1    
    68   35   36 1    
    69   35   37 1    
    70   35  112 1    
    71   36  113 1    
    72   36  114 1    
    73   36  115 1    
    74   37   38 am   BACKBONE|DICT|INTERRES
    75   37  116 1    
    76   38   39 2    
    77   38   40 1    
    78   40   41 1    
    79   40   42 1    
    80   40  117 1    
    81   41  118 1    
    82   41  119 1    
    83   41  120 1    
    84   42   43 am   BACKBONE|DICT|INTERRES
    85   42  121 1    
    86   43   44 2    
    87   43   45 1    
    88   45   46 1    
    89   45   47 1    
    90   45  122 1    
    91   46  123 1    
    92   46  124 1    
    93   46  125 1    
    94   47   48 am   BACKBONE|DICT|INTERRES
    95   47  126 1    
    96   48   49 2    
    97   48   50 1    
    98   50   51 1    
    99   50   52 1    
   100   50  127 1    
   101   51  128 1    
   102   51  129 1    
   103   51  130 1    
   104   52   53 am   BACKBONE|DICT|INTERRES
   105   52  131 1    
   106   53   54 2    
   107   53   55 1    
   108   55   56 1    
   109   55   59 1    
   110   55  132 1    
   111   56   57 1    
   112   56  133 1    
   113   56  134 1    
   114   57   58 1    
   115   58  135 1    
   116   58  136 1    
   117   59   60 am   BACKBONE|DICT|INTERRES
   118   59  137 1    
   119   60   61 2    
   120   60   62 1    
   121   62   63 1    
   122   62   64 1    
   123   62  138 1    
   124   63  139 1    
   125   63  140 1    
   126   63  141 1    
   127   64   65 am   BACKBONE|DICT|INTERRES
   128   64  142 1    
   129   65   66 2    
   130   65   67 1    
   131   67   68 1    
   132   67   69 1    
   133   67  143 1    
   134   68  144 1    
   135   68  145 1    
   136   68  146 1    
   137   69   70 am   BACKBONE|DICT|INTERRES
   138   69  147 1    
   139   70   71 2    
   140   70   72 1    
   141   72   73 1    
   142   72   74 1    
   143   72  148 1    
   144   73  149 1    
   145   73  150 1    
   146   73  151 1    
   147   74   75 am   BACKBONE|DICT|INTERRES
   148   74  152 1    
   149   75   76 2    
   150   75   77 1    
   151   77   78 1    
   152   77   79 1    
   153   77  153 1    
   154   78  154 1    
   155   78  155 1    
   156   78  156 1    
   157   79   80 am   BACKBONE|DICT|INTERRES
   158   79  157 1    
   159   80   81 2    
@<TRIPOS>SUBSTRUCTURE
     1 UNK         1 GROUP             0       ****    0 ROOT    
