@<TRIPOS>MOLECULE
3R207
157   159    1
SMALL
USER_CHARGES


@<TRIPOS>ATOM
      1 CA        -48.1267  -30.7954    6.5013 C.3       0 UNK        -0.1975 
      2 C         -49.4094  -30.1842    7.0590 C.2       0 UNK         0.4852 
      3 O         -49.7272  -30.4210    8.2206 O.2       0 UNK        -0.5216 
      4 N         -50.1784  -29.4064    6.2831 N.am      1 UNK        -0.4461 
      5 CA        -49.9813  -29.1262    4.8564 C.3       1 UNK         0.0864 
      6 C6        -51.3318  -28.9404    4.1194 C.3       14 UNK        -0.0898 
      7 S7        -52.2929  -27.4635    4.5990 S.3       14 UNK        -0.2598 
      8 C8        -53.4707  -28.1125    5.8326 C.3       14 UNK         0.0286 
      9 C9        -53.1181  -27.6353    7.2339 C.ar      14 UNK        -0.0844 
     10 C10       -53.1656  -26.2690    7.5281 C.ar      14 UNK        -0.0881 
     11 C11       -52.8239  -25.8000    8.7981 C.ar      14 UNK        -0.0643 
     12 C12       -52.4458  -26.7128    9.7850 C.ar      14 UNK        -0.0930 
     13 C13       -52.4155  -28.0821    9.5128 C.ar      14 UNK        -0.0827 
     14 C14       -52.7529  -28.5415    8.2354 C.ar      14 UNK        -0.1249 
     15 C15       -51.9847  -29.0516   10.5998 C.3       14 UNK         0.0141 
     16 S16       -53.3940  -29.6400   11.5804 S.3       14 UNK        -0.2313 
     17 C17       -52.4713  -30.4522   12.9280 C.3       14 UNK        -0.0915 
     18 CA        -53.3786  -31.0133   14.0527 C.3       13 UNK         0.0968 
     19 C         -52.5291  -31.7786   15.1104 C.2       13 UNK         0.5732 
     20 N         -52.4715  -31.3468   16.3647 N.am      13 UNK        -0.7310 
     21 O         -51.9155  -32.7925   14.7854 O.2       13 UNK        -0.5035 
     22 N         -54.2711  -29.9787   14.6001 N.am      13 UNK        -0.4233 
     23 C         -55.3755  -30.2286   15.3163 C.2       13 UNK         0.4989 
     24 O         -55.7495  -31.3592   15.6311 O.2       13 UNK        -0.4996 
     25 CA        -56.2224  -29.0186   15.7429 C.3       12 UNK         0.0216 
     26 CB        -55.6743  -28.3917   17.0347 C.3       12 UNK        -0.1964 
     27 N         -56.3140  -27.9908   14.7064 N.am      12 UNK        -0.4276 
     28 C         -56.9384  -28.1195   13.5299 C.2       12 UNK         0.5020 
     29 O         -57.5629  -29.1281   13.1984 O.2       12 UNK        -0.5489 
     30 CA        -56.8663  -26.9329   12.5476 C.3       11 UNK         0.0294 
     31 CB        -58.0646  -25.9833   12.7422 C.3       11 UNK        -0.2019 
     32 N         -55.5925  -26.1955   12.5471 N.am      11 UNK        -0.4493 
     33 C         -55.0449  -25.4564   13.5221 C.2       11 UNK         0.4932 
     34 O         -55.5609  -25.2636   14.6249 O.2       11 UNK        -0.5029 
     35 CA        -53.6652  -24.8504   13.2183 C.3       10 UNK         0.0280 
     36 CB        -53.7973  -23.3255   13.0642 C.3       10 UNK        -0.1976 
     37 N         -52.6488  -25.1720   14.2322 N.am      10 UNK        -0.4242 
     38 C         -52.3821  -26.4003   14.7051 C.2       10 UNK         0.5072 
     39 O         -52.9236  -27.4259   14.2868 O.2       10 UNK        -0.5224 
     40 CA        -51.3603  -26.5029   15.8487 C.3       9 UNK         0.0343 
     41 CB        -51.3642  -27.9063   16.5000 C.3       9 UNK        -0.2003 
     42 N         -50.0109  -26.1680   15.3876 N.am      9 UNK        -0.4272 
     43 C         -48.9894  -25.8859   16.2115 C.2       9 UNK         0.4988 
     44 O         -49.1077  -25.7758   17.4332 O.2       9 UNK        -0.5108 
     45 CA        -47.5926  -25.7193   15.5882 C.3       8 UNK         0.0248 
     46 CB        -47.0905  -27.0390   14.9778 C.3       8 UNK        -0.2001 
     47 N         -47.5444  -24.6498   14.5936 N.am      8 UNK        -0.4140 
     48 C         -47.6428  -23.3427   14.8781 C.2       8 UNK         0.5028 
     49 O         -47.6986  -22.8886   16.0218 O.2       8 UNK        -0.5428 
     50 CA        -47.7104  -22.3717   13.6851 C.3       7 UNK         0.0264 
     51 CB        -46.3003  -21.9598   13.2333 C.3       7 UNK        -0.1988 
     52 N         -48.4529  -22.9134   12.5444 N.am      7 UNK        -0.4454 
     53 C         -49.7483  -23.2603   12.5766 C.2       7 UNK         0.5027 
     54 O         -50.4738  -23.1055   13.5594 O.2       7 UNK        -0.5083 
     55 CA        -50.3129  -23.9360   11.3123 C.3       6 UNK         0.0844 
     56 C56       -50.6912  -22.8732   10.2492 C.3       14 UNK        -0.0967 
     57 S57       -51.2407  -23.5629    8.6541 S.3       14 UNK        -0.2604 
     58 C58       -52.8422  -24.3074    9.0840 C.3       14 UNK         0.0134 
     59 N         -49.4078  -24.9792   10.8198 N.am      6 UNK        -0.4116 
     60 C         -49.1045  -26.0994   11.4939 C.2       5 UNK         0.5034 
     61 O         -49.6322  -26.4234   12.5577 O.2       5 UNK        -0.5045 
     62 CA        -47.9820  -26.9782   10.9218 C.3       5 UNK         0.0224 
     63 CB        -48.5335  -28.0190    9.9395 C.3       5 UNK        -0.1978 
     64 N         -46.9538  -26.1736   10.2626 N.am      5 UNK        -0.4737 
     65 C         -46.0371  -25.4514   10.9220 C.2       4 UNK         0.5027 
     66 O         -45.9388  -25.4372   12.1481 O.2       4 UNK        -0.5211 
     67 CA        -45.1033  -24.5653   10.0784 C.3       4 UNK         0.0297 
     68 CB        -43.8493  -25.3499    9.6630 C.3       4 UNK        -0.1993 
     69 N         -45.7574  -24.0215    8.8854 N.am      4 UNK        -0.4486 
     70 C         -46.7973  -23.1760    8.9093 C.2       3 UNK         0.4961 
     71 O         -47.2635  -22.7009    9.9445 O.2       3 UNK        -0.5105 
     72 CA        -47.4622  -22.8428    7.5615 C.3       3 UNK         0.0299 
     73 CB        -46.8699  -21.5500    6.9797 C.3       3 UNK        -0.1972 
     74 N         -47.3760  -23.9158    6.5615 N.am      3 UNK        -0.4305 
     75 C         -47.8642  -25.1558    6.7104 C.2       2 UNK         0.5006 
     76 O         -48.4099  -25.5646    7.7374 O.2       2 UNK        -0.5106 
     77 CA        -47.6376  -26.1187    5.5419 C.3       2 UNK         0.0296 
     78 CB        -46.2091  -26.6959    5.5901 C.3       2 UNK        -0.2002 
     79 N         -48.6135  -27.2040    5.6117 N.am      2 UNK        -0.4032 
     80 C         -48.9806  -27.9797    4.5823 C.2       1 UNK         0.5000 
     81 O         -48.5344  -27.8440    3.4412 O.2       1 UNK        -0.5238 
     82 H82       -47.5475  -31.2547    7.3021 H         1 UNK         0.0889 
     83 H83       -47.4945  -30.0416    6.0337 H         1 UNK         0.0889 
     84 H84       -48.3549  -31.5709    5.7708 H         1 UNK         0.0889 
     85 H85       -51.0005  -28.9816    6.6911 H         1 UNK         0.3028 
     86 H86       -49.5291  -30.0107    4.4045 H         1 UNK         0.0864 
     87 H87       -51.9472  -29.8321    4.2464 H         1 UNK         0.0720 
     88 H88       -51.1540  -28.8748    3.0443 H         1 UNK         0.0720 
     89 H89       -54.4706  -27.7559    5.5815 H         1 UNK         0.0814 
     90 H90       -53.5198  -29.2013    5.7895 H         1 UNK         0.0814 
     91 H91       -53.4457  -25.5652    6.7560 H         1 UNK         0.1469 
     92 H92       -52.1558  -26.3660   10.7645 H         1 UNK         0.1381 
     93 H93       -52.7231  -29.6024    8.0260 H         1 UNK         0.1206 
     94 H94       -51.4654  -29.9061   10.1646 H         1 UNK         0.0813 
     95 H95       -51.2739  -28.5602   11.2658 H         1 UNK         0.0813 
     96 H96       -51.7637  -29.7326   13.3447 H         1 UNK         0.0638 
     97 H97       -51.8736  -31.2510   12.4849 H         1 UNK         0.0638 
     98 H98       -54.0206  -31.7687   13.5958 H         1 UNK         0.0568 
     99 H99       -51.9217  -31.8570   17.0373 H         1 UNK         0.3450 
    100 H100      -52.9814  -30.5259   16.6437 H         1 UNK         0.3450 
    101 H101      -53.9976  -29.0187   14.4048 H         1 UNK         0.2987 
    102 H102      -57.2331  -29.3807   15.9429 H         1 UNK         0.0766 
    103 H103      -55.5597  -29.1415   17.8188 H         1 UNK         0.0798 
    104 H104      -56.3488  -27.6252   17.4171 H         1 UNK         0.0798 
    105 H105      -54.7012  -27.9271   16.8763 H         1 UNK         0.0798 
    106 H106      -55.8654  -27.0968   14.8903 H         1 UNK         0.3198 
    107 H107      -56.9506  -27.3625   11.5478 H         1 UNK         0.0843 
    108 H108      -58.0678  -25.5251   13.7315 H         1 UNK         0.0831 
    109 H109      -59.0072  -26.5217   12.6339 H         1 UNK         0.0831 
    110 H110      -58.0619  -25.1837   12.0015 H         1 UNK         0.0831 
    111 H111      -55.0436  -26.3263   11.7083 H         1 UNK         0.3133 
    112 H112      -53.3160  -25.2613   12.2737 H         1 UNK         0.0566 
    113 H113      -54.0470  -22.8472   14.0122 H         1 UNK         0.0814 
    114 H114      -54.5860  -23.0699   12.3549 H         1 UNK         0.0814 
    115 H115      -52.8819  -22.8713   12.6917 H         1 UNK         0.0814 
    116 H116      -52.1127  -24.3917   14.5900 H         1 UNK         0.3091 
    117 H117      -51.6626  -25.7750   16.6044 H         1 UNK         0.0702 
    118 H118      -50.7273  -27.9472   17.3831 H         1 UNK         0.0785 
    119 H119      -51.0180  -28.6708   15.8034 H         1 UNK         0.0785 
    120 H120      -52.3661  -28.1871   16.8225 H         1 UNK         0.0785 
    121 H121      -49.8520  -26.2291   14.3819 H         1 UNK         0.2998 
    122 H122      -46.9035  -25.4508   16.3919 H         1 UNK         0.0697 
    123 H123      -46.0785  -26.9347   14.5860 H         1 UNK         0.0825 
    124 H124      -47.7284  -27.3853   14.1658 H         1 UNK         0.0825 
    125 H125      -47.0672  -27.8291   15.7294 H         1 UNK         0.0825 
    126 H126      -47.4174  -24.9260   13.6273 H         1 UNK         0.3029 
    127 H127      -48.2364  -21.4758   14.0218 H         1 UNK         0.0897 
    128 H128      -45.7206  -22.8158   12.8877 H         1 UNK         0.0792 
    129 H129      -45.7469  -21.5016   14.0540 H         1 UNK         0.0792 
    130 H130      -46.3395  -21.2328   12.4217 H         1 UNK         0.0792 
    131 H131      -47.9445  -23.0085   11.6672 H         1 UNK         0.3086 
    132 H132      -51.2295  -24.4395   11.6145 H         1 UNK         0.0583 
    133 H133      -51.4777  -22.2188   10.6301 H         1 UNK         0.1020 
    134 H134      -49.8435  -22.2190   10.0392 H         1 UNK         0.1020 
    135 H135      -53.0920  -24.1210   10.1282 H         1 UNK         0.0694 
    136 H136      -53.6244  -23.8237    8.4970 H         1 UNK         0.0694 
    137 H137      -48.9666  -24.8144    9.9243 H         1 UNK         0.2989 
    138 H138      -47.5148  -27.5143   11.7506 H         1 UNK         0.1055 
    139 H139      -49.0879  -28.7908   10.4720 H         1 UNK         0.0806 
    140 H140      -47.7344  -28.5238    9.3966 H         1 UNK         0.0806 
    141 H141      -49.2120  -27.5794    9.2074 H         1 UNK         0.0806 
    142 H142      -47.0367  -26.0722    9.2580 H         1 UNK         0.3061 
    143 H143      -44.7917  -23.7249   10.7022 H         1 UNK         0.0734 
    144 H144      -44.0943  -26.1946    9.0177 H         1 UNK         0.0832 
    145 H145      -43.1399  -24.7145    9.1326 H         1 UNK         0.0832 
    146 H146      -43.3330  -25.7481   10.5378 H         1 UNK         0.0832 
    147 H147      -45.4321  -24.3540    7.9897 H         1 UNK         0.3156 
    148 H148      -48.5211  -22.6690    7.7591 H         1 UNK         0.0589 
    149 H149      -47.4014  -21.2385    6.0803 H         1 UNK         0.0808 
    150 H150      -45.8154  -21.6656    6.7259 H         1 UNK         0.0808 
    151 H151      -46.9444  -20.7304    7.6963 H         1 UNK         0.0808 
    152 H152      -46.9278  -23.6774    5.6880 H         1 UNK         0.3098 
    153 H153      -47.7829  -25.5672    4.6105 H         1 UNK         0.0720 
    154 H154      -45.4597  -25.9048    5.5464 H         1 UNK         0.0791 
    155 H155      -46.0193  -27.3609    4.7475 H         1 UNK         0.0791 
    156 H156      -46.0357  -27.2622    6.5063 H         1 UNK         0.0791 
    157 H157      -49.0540  -27.3198    6.5162 H         1 UNK         0.3028 
@<TRIPOS>BOND
     1    1    2 1    
     2    1   82 1    
     3    1   83 1    
     4    1   84 1    
     5    2    3 2    
     6    2    4 am   BACKBONE|DICT|INTERRES
     7    4    5 1    
     8    4   85 1    
     9    5    6 1    
    10    5   80 1    
    11    5   86 1    
    12    6    7 1    
    13    6   87 1    
    14    6   88 1    
    15    7    8 1    
    16    8    9 1    
    17    8   89 1    
    18    8   90 1    
    19    9   10 ar   
    20    9   14 ar   
    21   10   11 ar   
    22   10   91 1    
    23   11   12 ar   
    24   11   58 1    
    25   12   13 ar   
    26   12   92 1    
    27   13   14 ar   
    28   13   15 1    
    29   14   93 1    
    30   15   16 1    
    31   15   94 1    
    32   15   95 1    
    33   16   17 1    
    34   17   18 1    
    35   17   96 1    
    36   17   97 1    
    37   18   19 1    
    38   18   22 1    
    39   18   98 1    
    40   19   20 am   BACKBONE|DICT|INTERRES
    41   19   21 2    
    42   20   99 1    
    43   20  100 1    
    44   22   23 am   BACKBONE|DICT|INTERRES
    45   22  101 1    
    46   23   24 2    
    47   23   25 1    
    48   25   26 1    
    49   25   27 1    
    50   25  102 1    
    51   26  103 1    
    52   26  104 1    
    53   26  105 1    
    54   27   28 am   BACKBONE|DICT|INTERRES
    55   27  106 1    
    56   28   29 2    
    57   28   30 1    
    58   30   31 1    
    59   30   32 1    
    60   30  107 1    
    61   31  108 1    
    62   31  109 1    
    63   31  110 1    
    64   32   33 am   BACKBONE|DICT|INTERRES
    65   32  111 1    
    66   33   34 2    
    67   33   35 1    
    68   35   36 1    
    69   35   37 1    
    70   35  112 1    
    71   36  113 1    
    72   36  114 1    
    73   36  115 1    
    74   37   38 am   BACKBONE|DICT|INTERRES
    75   37  116 1    
    76   38   39 2    
    77   38   40 1    
    78   40   41 1    
    79   40   42 1    
    80   40  117 1    
    81   41  118 1    
    82   41  119 1    
    83   41  120 1    
    84   42   43 am   BACKBONE|DICT|INTERRES
    85   42  121 1    
    86   43   44 2    
    87   43   45 1    
    88   45   46 1    
    89   45   47 1    
    90   45  122 1    
    91   46  123 1    
    92   46  124 1    
    93   46  125 1    
    94   47   48 am   BACKBONE|DICT|INTERRES
    95   47  126 1    
    96   48   49 2    
    97   48   50 1    
    98   50   51 1    
    99   50   52 1    
   100   50  127 1    
   101   51  128 1    
   102   51  129 1    
   103   51  130 1    
   104   52   53 am   BACKBONE|DICT|INTERRES
   105   52  131 1    
   106   53   54 2    
   107   53   55 1    
   108   55   56 1    
   109   55   59 1    
   110   55  132 1    
   111   56   57 1    
   112   56  133 1    
   113   56  134 1    
   114   57   58 1    
   115   58  135 1    
   116   58  136 1    
   117   59   60 am   BACKBONE|DICT|INTERRES
   118   59  137 1    
   119   60   61 2    
   120   60   62 1    
   121   62   63 1    
   122   62   64 1    
   123   62  138 1    
   124   63  139 1    
   125   63  140 1    
   126   63  141 1    
   127   64   65 am   BACKBONE|DICT|INTERRES
   128   64  142 1    
   129   65   66 2    
   130   65   67 1    
   131   67   68 1    
   132   67   69 1    
   133   67  143 1    
   134   68  144 1    
   135   68  145 1    
   136   68  146 1    
   137   69   70 am   BACKBONE|DICT|INTERRES
   138   69  147 1    
   139   70   71 2    
   140   70   72 1    
   141   72   73 1    
   142   72   74 1    
   143   72  148 1    
   144   73  149 1    
   145   73  150 1    
   146   73  151 1    
   147   74   75 am   BACKBONE|DICT|INTERRES
   148   74  152 1    
   149   75   76 2    
   150   75   77 1    
   151   77   78 1    
   152   77   79 1    
   153   77  153 1    
   154   78  154 1    
   155   78  155 1    
   156   78  156 1    
   157   79   80 am   BACKBONE|DICT|INTERRES
   158   79  157 1    
   159   80   81 2    
@<TRIPOS>SUBSTRUCTURE
     1 UNK         1 GROUP             0       ****    0 ROOT    
