@<TRIPOS>MOLECULE
3R207
157   159    1
SMALL
USER_CHARGES


@<TRIPOS>ATOM
      1 CA        -44.5564  -27.4256    7.6005 C.3       0 UNK        -0.1975 
      2 C         -45.3182  -28.6573    7.1353 C.2       0 UNK         0.4852 
      3 O         -44.7080  -29.5852    6.6033 O.2       0 UNK        -0.5216 
      4 N         -46.6461  -28.6693    7.3162 N.am      1 UNK        -0.4461 
      5 CA        -47.5403  -29.7277    6.8237 C.3       1 UNK         0.0864 
      6 C6        -48.8019  -29.8689    7.7187 C.3       14 UNK        -0.0898 
      7 S7        -49.9523  -28.4474    7.6502 S.3       14 UNK        -0.2598 
      8 C8        -50.3438  -28.1751    9.4068 C.3       14 UNK         0.0286 
      9 C9        -51.4717  -27.1657    9.5659 C.ar      14 UNK        -0.0844 
     10 C10       -51.3165  -25.8588    9.0962 C.ar      14 UNK        -0.0881 
     11 C11       -52.3439  -24.9206    9.2376 C.ar      14 UNK        -0.0643 
     12 C12       -53.5362  -25.3012    9.8577 C.ar      14 UNK        -0.0930 
     13 C13       -53.7010  -26.6011   10.3430 C.ar      14 UNK        -0.0827 
     14 C14       -52.6661  -27.5295   10.1940 C.ar      14 UNK        -0.1249 
     15 C15       -54.9824  -26.9796   11.0659 C.3       14 UNK         0.0141 
     16 S16       -56.1393  -27.9041   10.0089 S.3       14 UNK        -0.2313 
     17 C17       -55.7230  -29.6358   10.4108 C.3       14 UNK        -0.0915 
     18 CA        -56.7641  -30.3042   11.3604 C.3       13 UNK         0.0968 
     19 C         -56.5564  -31.8455   11.4910 C.2       13 UNK         0.5732 
     20 N         -56.8598  -32.4599   12.6285 N.am      13 UNK        -0.7310 
     21 O         -56.1507  -32.5067   10.5376 O.2       13 UNK        -0.5035 
     22 N         -56.9253  -29.5917   12.6446 N.am      13 UNK        -0.4233 
     23 C         -55.9811  -29.4363   13.5818 C.2       13 UNK         0.4989 
     24 O         -54.8369  -29.8847   13.4937 O.2       13 UNK        -0.4996 
     25 CA        -56.3751  -28.6244   14.8218 C.3       12 UNK         0.0216 
     26 CB        -56.1558  -29.4341   16.1114 C.3       12 UNK        -0.1964 
     27 N         -55.5658  -27.4070   14.8678 N.am      12 UNK        -0.4276 
     28 C         -55.9621  -26.2162   14.3928 C.2       12 UNK         0.5020 
     29 O         -57.0745  -26.0341   13.8947 O.2       12 UNK        -0.5489 
     30 CA        -54.9670  -25.0314   14.4379 C.3       11 UNK         0.0294 
     31 CB        -55.6707  -23.6853   14.7088 C.3       11 UNK        -0.2019 
     32 N         -53.8315  -25.2106   15.3481 N.am      11 UNK        -0.4493 
     33 C         -53.8649  -25.4227   16.6729 C.2       11 UNK         0.4932 
     34 O         -54.8939  -25.3947   17.3496 O.2       11 UNK        -0.5029 
     35 CA        -52.5160  -25.7689   17.3367 C.3       10 UNK         0.0280 
     36 CB        -52.6858  -26.5256   18.6704 C.3       10 UNK        -0.1976 
     37 N         -51.6053  -26.5027   16.4462 N.am      10 UNK        -0.4242 
     38 C         -51.8436  -27.6583   15.8021 C.2       10 UNK         0.5072 
     39 O         -52.8986  -28.2836   15.9051 O.2       10 UNK        -0.5224 
     40 CA        -50.7599  -28.1890   14.8412 C.3       9 UNK         0.0343 
     41 CB        -51.2614  -28.1263   13.3877 C.3       9 UNK        -0.2003 
     42 N         -49.4914  -27.4637   14.9283 N.am      9 UNK        -0.4272 
     43 C         -48.6160  -27.5504   15.9391 C.2       9 UNK         0.4988 
     44 O         -48.7196  -28.3448   16.8737 O.2       9 UNK        -0.5108 
     45 CA        -47.4636  -26.5317   15.9321 C.3       8 UNK         0.0248 
     46 CB        -46.2876  -27.0352   15.0799 C.3       8 UNK        -0.2001 
     47 N         -47.8941  -25.2097   15.4608 N.am      8 UNK        -0.4140 
     48 C         -48.7333  -24.4034   16.1287 C.2       8 UNK         0.5028 
     49 O         -49.2069  -24.6748   17.2312 O.2       8 UNK        -0.5428 
     50 CA        -49.1494  -23.0937   15.4404 C.3       7 UNK         0.0264 
     51 CB        -48.1069  -21.9930   15.6937 C.3       7 UNK        -0.1988 
     52 N         -49.3552  -23.2526   14.0000 N.am      7 UNK        -0.4454 
     53 C         -50.3855  -23.9076   13.4433 C.2       7 UNK         0.5027 
     54 O         -51.3004  -24.4277   14.0852 O.2       7 UNK        -0.5083 
     55 CA        -50.3613  -24.0309   11.9070 C.3       6 UNK         0.0844 
     56 C56       -50.9976  -22.7817   11.2352 C.3       14 UNK        -0.0967 
     57 S57       -50.6977  -22.6775    9.4301 S.3       14 UNK        -0.2604 
     58 C58       -52.1701  -23.4932    8.7359 C.3       14 UNK         0.0134 
     59 N         -49.0233  -24.3206   11.3823 N.am      6 UNK        -0.4116 
     60 C         -48.2659  -25.3855   11.6672 C.2       5 UNK         0.5034 
     61 O         -48.5753  -26.2263   12.5110 O.2       5 UNK        -0.5045 
     62 CA        -46.9444  -25.5353   10.8863 C.3       5 UNK         0.0224 
     63 CB        -46.5336  -27.0088   10.7026 C.3       5 UNK        -0.1978 
     64 N         -46.9645  -24.8713    9.5752 N.am      5 UNK        -0.4737 
     65 C         -46.6998  -23.5804    9.3491 C.2       4 UNK         0.5027 
     66 O         -46.4394  -22.7819   10.2482 O.2       4 UNK        -0.5211 
     67 CA        -46.7606  -23.0785    7.8942 C.3       4 UNK         0.0297 
     68 CB        -45.4417  -23.3728    7.1536 C.3       4 UNK        -0.1993 
     69 N         -47.9242  -23.5245    7.1103 N.am      4 UNK        -0.4486 
     70 C         -48.2436  -24.7567    6.6909 C.2       3 UNK         0.4961 
     71 O         -47.6190  -25.7748    7.0105 O.2       3 UNK        -0.5105 
     72 CA        -49.4879  -24.8864    5.7831 C.3       3 UNK         0.0299 
     73 CB        -49.8277  -23.6106    4.9790 C.3       3 UNK        -0.1972 
     74 N         -49.3682  -26.0689    4.9240 N.am      3 UNK        -0.4305 
     75 C         -48.4853  -26.2612    3.9305 C.2       2 UNK         0.5006 
     76 O         -47.8320  -25.3690    3.3874 O.2       2 UNK        -0.5106 
     77 CA        -48.2009  -27.7325    3.6023 C.3       2 UNK         0.0296 
     78 CB        -47.1784  -27.9340    2.4675 C.3       2 UNK        -0.2002 
     79 N         -47.6907  -28.2959    4.8447 N.am      2 UNK        -0.4032 
     80 C         -47.9130  -29.5190    5.3357 C.2       1 UNK         0.5000 
     81 O         -48.4225  -30.4379    4.6916 O.2       1 UNK        -0.5238 
     82 H82       -45.2232  -26.6543    7.9813 H         1 UNK         0.0889 
     83 H83       -43.9905  -27.0000    6.7724 H         1 UNK         0.0889 
     84 H84       -43.8559  -27.6927    8.3911 H         1 UNK         0.0889 
     85 H85       -47.1066  -27.8550    7.7040 H         1 UNK         0.3028 
     86 H86       -47.0061  -30.6791    6.8749 H         1 UNK         0.0864 
     87 H87       -49.3608  -30.7620    7.4332 H         1 UNK         0.0720 
     88 H88       -48.4948  -30.0362    8.7523 H         1 UNK         0.0720 
     89 H89       -50.6138  -29.1278    9.8650 H         1 UNK         0.0814 
     90 H90       -49.4623  -27.8131    9.9342 H         1 UNK         0.0814 
     91 H91       -50.3827  -25.5692    8.6389 H         1 UNK         0.1469 
     92 H92       -54.3338  -24.5805    9.9756 H         1 UNK         0.1381 
     93 H93       -52.7860  -28.5328   10.5766 H         1 UNK         0.1206 
     94 H94       -54.7327  -27.5504   11.9580 H         1 UNK         0.0813 
     95 H95       -55.4940  -26.0815   11.4135 H         1 UNK         0.0813 
     96 H96       -55.6776  -30.1693    9.4601 H         1 UNK         0.0638 
     97 H97       -54.7201  -29.6979   10.8322 H         1 UNK         0.0638 
     98 H98       -57.7339  -30.2165   10.8699 H         1 UNK         0.0568 
     99 H99       -56.7338  -33.4573   12.6980 H         1 UNK         0.3450 
    100 H100      -57.2065  -31.9378   13.4164 H         1 UNK         0.3450 
    101 H101      -57.8359  -29.1837   12.7997 H         1 UNK         0.2987 
    102 H102      -57.4361  -28.3705   14.7692 H         1 UNK         0.0766 
    103 H103      -56.4185  -28.8502   16.9938 H         1 UNK         0.0798 
    104 H104      -55.1188  -29.7540   16.2212 H         1 UNK         0.0798 
    105 H105      -56.7752  -30.3317   16.1181 H         1 UNK         0.0798 
    106 H106      -54.6191  -27.5209   15.2218 H         1 UNK         0.3198 
    107 H107      -54.5301  -24.9742   13.4399 H         1 UNK         0.0843 
    108 H108      -56.1860  -23.6854   15.6697 H         1 UNK         0.0831 
    109 H109      -56.4152  -23.4691   13.9417 H         1 UNK         0.0831 
    110 H110      -54.9600  -22.8589   14.7082 H         1 UNK         0.0831 
    111 H111      -52.9146  -25.1866   14.9065 H         1 UNK         0.3133 
    112 H112      -52.0300  -24.8165   17.5525 H         1 UNK         0.0566 
    113 H113      -53.2164  -27.4687   18.5343 H         1 UNK         0.0814 
    114 H114      -51.7201  -26.7461   19.1254 H         1 UNK         0.0814 
    115 H115      -53.2532  -25.9330   19.3890 H         1 UNK         0.0814 
    116 H116      -50.7107  -26.0553   16.2928 H         1 UNK         0.3091 
    117 H117      -50.5787  -29.2343   15.0989 H         1 UNK         0.0702 
    118 H118      -52.1855  -28.6935   13.2649 H         1 UNK         0.0785 
    119 H119      -51.4647  -27.1014   13.0747 H         1 UNK         0.0785 
    120 H120      -50.5301  -28.5451   12.6962 H         1 UNK         0.0785 
    121 H121      -49.2729  -26.8424   14.1526 H         1 UNK         0.2998 
    122 H122      -47.1128  -26.4221   16.9606 H         1 UNK         0.0697 
    123 H123      -46.5704  -27.1708   14.0364 H         1 UNK         0.0825 
    124 H124      -45.9283  -27.9981   15.4455 H         1 UNK         0.0825 
    125 H125      -45.4464  -26.3428   15.1137 H         1 UNK         0.0825 
    126 H126      -47.5824  -24.9299   14.5430 H         1 UNK         0.3029 
    127 H127      -50.0953  -22.7748   15.8846 H         1 UNK         0.0897 
    128 H128      -48.4301  -21.0379   15.2791 H         1 UNK         0.0792 
    129 H129      -47.1390  -22.2396   15.2553 H         1 UNK         0.0792 
    130 H130      -47.9513  -21.8432   16.7631 H         1 UNK         0.0792 
    131 H131      -48.6542  -22.8561   13.3903 H         1 UNK         0.3086 
    132 H132      -50.9792  -24.8968   11.6671 H         1 UNK         0.0583 
    133 H133      -50.5960  -21.8649   11.6717 H         1 UNK         0.1020 
    134 H134      -52.0721  -22.7559   11.4271 H         1 UNK         0.1020 
    135 H135      -53.0472  -22.8870    8.9680 H         1 UNK         0.0694 
    136 H136      -52.0853  -23.5087    7.6487 H         1 UNK         0.0694 
    137 H137      -48.6852  -23.6796   10.6788 H         1 UNK         0.2989 
    138 H138      -46.1798  -25.0620   11.5065 H         1 UNK         0.1055 
    139 H139      -46.5598  -27.5578   11.6443 H         1 UNK         0.0806 
    140 H140      -45.5126  -27.0847   10.3315 H         1 UNK         0.0806 
    141 H141      -47.1856  -27.5309   10.0044 H         1 UNK         0.0806 
    142 H142      -47.2132  -25.4312    8.7628 H         1 UNK         0.3061 
    143 H143      -46.8567  -21.9931    7.9546 H         1 UNK         0.0734 
    144 H144      -45.4290  -22.9046    6.1694 H         1 UNK         0.0832 
    145 H145      -44.5871  -22.9830    7.7082 H         1 UNK         0.0832 
    146 H146      -45.2772  -24.4408    7.0149 H         1 UNK         0.0832 
    147 H147      -48.5449  -22.7783    6.8288 H         1 UNK         0.3156 
    148 H148      -50.3343  -25.0880    6.4379 H         1 UNK         0.0589 
    149 H149      -50.1662  -22.8077    5.6347 H         1 UNK         0.0808 
    150 H150      -48.9711  -23.2377    4.4162 H         1 UNK         0.0808 
    151 H151      -50.6335  -23.7973    4.2691 H         1 UNK         0.0808 
    152 H152      -49.8112  -26.8961    5.3014 H         1 UNK         0.3098 
    153 H153      -49.1443  -28.2102    3.3290 H         1 UNK         0.0720 
    154 H154      -46.2171  -27.4759    2.7037 H         1 UNK         0.0791 
    155 H155      -47.5358  -27.4891    1.5381 H         1 UNK         0.0791 
    156 H156      -47.0053  -28.9932    2.2767 H         1 UNK         0.0791 
    157 H157      -47.2902  -27.6148    5.4789 H         1 UNK         0.3028 
@<TRIPOS>BOND
     1    1    2 1    
     2    1   82 1    
     3    1   83 1    
     4    1   84 1    
     5    2    3 2    
     6    2    4 am   BACKBONE|DICT|INTERRES
     7    4    5 1    
     8    4   85 1    
     9    5    6 1    
    10    5   80 1    
    11    5   86 1    
    12    6    7 1    
    13    6   87 1    
    14    6   88 1    
    15    7    8 1    
    16    8    9 1    
    17    8   89 1    
    18    8   90 1    
    19    9   10 ar   
    20    9   14 ar   
    21   10   11 ar   
    22   10   91 1    
    23   11   12 ar   
    24   11   58 1    
    25   12   13 ar   
    26   12   92 1    
    27   13   14 ar   
    28   13   15 1    
    29   14   93 1    
    30   15   16 1    
    31   15   94 1    
    32   15   95 1    
    33   16   17 1    
    34   17   18 1    
    35   17   96 1    
    36   17   97 1    
    37   18   19 1    
    38   18   22 1    
    39   18   98 1    
    40   19   20 am   BACKBONE|DICT|INTERRES
    41   19   21 2    
    42   20   99 1    
    43   20  100 1    
    44   22   23 am   BACKBONE|DICT|INTERRES
    45   22  101 1    
    46   23   24 2    
    47   23   25 1    
    48   25   26 1    
    49   25   27 1    
    50   25  102 1    
    51   26  103 1    
    52   26  104 1    
    53   26  105 1    
    54   27   28 am   BACKBONE|DICT|INTERRES
    55   27  106 1    
    56   28   29 2    
    57   28   30 1    
    58   30   31 1    
    59   30   32 1    
    60   30  107 1    
    61   31  108 1    
    62   31  109 1    
    63   31  110 1    
    64   32   33 am   BACKBONE|DICT|INTERRES
    65   32  111 1    
    66   33   34 2    
    67   33   35 1    
    68   35   36 1    
    69   35   37 1    
    70   35  112 1    
    71   36  113 1    
    72   36  114 1    
    73   36  115 1    
    74   37   38 am   BACKBONE|DICT|INTERRES
    75   37  116 1    
    76   38   39 2    
    77   38   40 1    
    78   40   41 1    
    79   40   42 1    
    80   40  117 1    
    81   41  118 1    
    82   41  119 1    
    83   41  120 1    
    84   42   43 am   BACKBONE|DICT|INTERRES
    85   42  121 1    
    86   43   44 2    
    87   43   45 1    
    88   45   46 1    
    89   45   47 1    
    90   45  122 1    
    91   46  123 1    
    92   46  124 1    
    93   46  125 1    
    94   47   48 am   BACKBONE|DICT|INTERRES
    95   47  126 1    
    96   48   49 2    
    97   48   50 1    
    98   50   51 1    
    99   50   52 1    
   100   50  127 1    
   101   51  128 1    
   102   51  129 1    
   103   51  130 1    
   104   52   53 am   BACKBONE|DICT|INTERRES
   105   52  131 1    
   106   53   54 2    
   107   53   55 1    
   108   55   56 1    
   109   55   59 1    
   110   55  132 1    
   111   56   57 1    
   112   56  133 1    
   113   56  134 1    
   114   57   58 1    
   115   58  135 1    
   116   58  136 1    
   117   59   60 am   BACKBONE|DICT|INTERRES
   118   59  137 1    
   119   60   61 2    
   120   60   62 1    
   121   62   63 1    
   122   62   64 1    
   123   62  138 1    
   124   63  139 1    
   125   63  140 1    
   126   63  141 1    
   127   64   65 am   BACKBONE|DICT|INTERRES
   128   64  142 1    
   129   65   66 2    
   130   65   67 1    
   131   67   68 1    
   132   67   69 1    
   133   67  143 1    
   134   68  144 1    
   135   68  145 1    
   136   68  146 1    
   137   69   70 am   BACKBONE|DICT|INTERRES
   138   69  147 1    
   139   70   71 2    
   140   70   72 1    
   141   72   73 1    
   142   72   74 1    
   143   72  148 1    
   144   73  149 1    
   145   73  150 1    
   146   73  151 1    
   147   74   75 am   BACKBONE|DICT|INTERRES
   148   74  152 1    
   149   75   76 2    
   150   75   77 1    
   151   77   78 1    
   152   77   79 1    
   153   77  153 1    
   154   78  154 1    
   155   78  155 1    
   156   78  156 1    
   157   79   80 am   BACKBONE|DICT|INTERRES
   158   79  157 1    
   159   80   81 2    
@<TRIPOS>SUBSTRUCTURE
     1 UNK         1 GROUP             0       ****    0 ROOT    
