@<TRIPOS>MOLECULE
3R207
157   159    1
SMALL
USER_CHARGES


@<TRIPOS>ATOM
      1 CA        -51.9668  -25.4207    3.6495 C.3       0 UNK        -0.1975 
      2 C         -51.1642  -26.3286    4.5688 C.2       0 UNK         0.4852 
      3 O         -50.7082  -25.8834    5.6233 O.2       0 UNK        -0.5216 
      4 N         -50.9858  -27.5987    4.1812 N.am      1 UNK        -0.4461 
      5 CA        -50.2239  -28.6015    4.9325 C.3       1 UNK         0.0864 
      6 C6        -50.3501  -30.0217    4.3267 C.3       14 UNK        -0.0898 
      7 S7        -52.0778  -30.5907    4.1693 S.3       14 UNK        -0.2598 
      8 C8        -52.2624  -31.6745    5.6215 C.3       14 UNK         0.0286 
      9 C9        -52.4829  -30.8728    6.8956 C.ar      14 UNK        -0.0844 
     10 C10       -51.4094  -30.5665    7.7374 C.ar      14 UNK        -0.0881 
     11 C11       -51.6115  -29.8193    8.9022 C.ar      14 UNK        -0.0643 
     12 C12       -52.9010  -29.3969    9.2346 C.ar      14 UNK        -0.0930 
     13 C13       -53.9844  -29.7145    8.4097 C.ar      14 UNK        -0.0827 
     14 C14       -53.7693  -30.4461    7.2386 C.ar      14 UNK        -0.1249 
     15 C15       -55.3871  -29.2797    8.7982 C.3       14 UNK         0.0141 
     16 S16       -56.1565  -30.5315    9.8692 S.3       14 UNK        -0.2313 
     17 C17       -57.4538  -29.5611   10.7108 C.3       14 UNK        -0.0915 
     18 CA        -56.9108  -28.5534   11.7651 C.3       13 UNK         0.0968 
     19 C         -58.0667  -27.8713   12.5515 C.2       13 UNK         0.5732 
     20 N         -58.0774  -27.8863   13.8804 N.am      13 UNK        -0.7310 
     21 O         -58.9693  -27.3015   11.9426 O.2       13 UNK        -0.5035 
     22 N         -55.8956  -29.1556   12.6424 N.am      13 UNK        -0.4233 
     23 C         -54.6796  -28.6489   12.8648 C.2       13 UNK         0.4989 
     24 O         -54.2341  -27.6369   12.3202 O.2       13 UNK        -0.4996 
     25 CA        -53.8237  -29.3885   13.9055 C.3       12 UNK         0.0216 
     26 CB        -52.3526  -29.4879   13.4631 C.3       12 UNK        -0.1964 
     27 N         -53.8927  -28.7107   15.1986 N.am      12 UNK        -0.4276 
     28 C         -54.9873  -28.6005   15.9652 C.2       12 UNK         0.5020 
     29 O         -56.0703  -29.1237   15.6957 O.2       12 UNK        -0.5489 
     30 CA        -54.8562  -27.7543   17.2429 C.3       11 UNK         0.0294 
     31 CB        -54.5401  -28.6498   18.4511 C.3       11 UNK        -0.2019 
     32 N         -53.8302  -26.7147   17.1308 N.am      11 UNK        -0.4493 
     33 C         -53.9281  -25.6146   16.3752 C.2       11 UNK         0.4932 
     34 O         -54.9337  -25.3195   15.7297 O.2       11 UNK        -0.5029 
     35 CA        -52.7011  -24.6899   16.3146 C.3       10 UNK         0.0280 
     36 CB        -52.6517  -23.7501   17.5345 C.3       10 UNK        -0.1976 
     37 N         -51.4163  -25.3742   16.1122 N.am      10 UNK        -0.4242 
     38 C         -50.7441  -26.1945   16.9340 C.2       10 UNK         0.5072 
     39 O         -51.1830  -26.6110   18.0071 O.2       10 UNK        -0.5224 
     40 CA        -49.3328  -26.6140   16.4848 C.3       9 UNK         0.0343 
     41 CB        -49.3957  -27.8398   15.5593 C.3       9 UNK        -0.2003 
     42 N         -48.6048  -25.5251   15.8243 N.am      9 UNK        -0.4272 
     43 C         -48.2178  -24.3942   16.4365 C.2       9 UNK         0.4988 
     44 O         -48.3383  -24.1933   17.6457 O.2       9 UNK        -0.5108 
     45 CA        -47.6096  -23.2898   15.5556 C.3       8 UNK         0.0248 
     46 CB        -46.1116  -23.5441   15.3238 C.3       8 UNK        -0.2001 
     47 N         -48.2987  -23.1400   14.2706 N.am      8 UNK        -0.4140 
     48 C         -49.5625  -22.7112   14.1282 C.2       8 UNK         0.5028 
     49 O         -50.2622  -22.3183   15.0615 O.2       8 UNK        -0.5428 
     50 CA        -50.1657  -22.7563   12.7122 C.3       7 UNK         0.0264 
     51 CB        -49.7686  -21.5090   11.9078 C.3       7 UNK        -0.1988 
     52 N         -49.7953  -23.9638   11.9693 N.am      7 UNK        -0.4454 
     53 C         -50.1259  -25.2132   12.3317 C.2       7 UNK         0.5027 
     54 O         -50.8299  -25.4774   13.3062 O.2       7 UNK        -0.5083 
     55 CA        -49.5114  -26.3603   11.5081 C.3       6 UNK         0.0844 
     56 C56       -50.3571  -26.6703   10.2474 C.3       14 UNK        -0.0967 
     57 S57       -49.5951  -27.9717    9.2212 S.3       14 UNK        -0.2604 
     58 C58       -50.4329  -29.4760    9.7973 C.3       14 UNK         0.0134 
     59 N         -48.1065  -26.0749   11.2027 N.am      6 UNK        -0.4116 
     60 C         -47.1134  -26.0940   12.1014 C.2       5 UNK         0.5034 
     61 O         -47.2690  -26.3818   13.2881 O.2       5 UNK        -0.5045 
     62 CA        -45.7205  -25.6759   11.6009 C.3       5 UNK         0.0224 
     63 CB        -44.9803  -26.8682   10.9794 C.3       5 UNK        -0.1978 
     64 N         -45.7779  -24.5725   10.6375 N.am      5 UNK        -0.4737 
     65 C         -46.1396  -23.3245   10.9675 C.2       4 UNK         0.5027 
     66 O         -46.4185  -22.9801   12.1141 O.2       4 UNK        -0.5211 
     67 CA        -46.2567  -22.2951    9.8325 C.3       4 UNK         0.0297 
     68 CB        -44.9097  -21.5913    9.6075 C.3       4 UNK        -0.1993 
     69 N         -46.7330  -22.8546    8.5659 N.am      4 UNK        -0.4486 
     70 C         -47.8838  -23.5169    8.3822 C.2       3 UNK         0.4961 
     71 O         -48.6851  -23.7655    9.2845 O.2       3 UNK        -0.5105 
     72 CA        -48.1918  -23.9927    6.9522 C.3       3 UNK         0.0299 
     73 CB        -47.4286  -23.2168    5.8550 C.3       3 UNK        -0.1972 
     74 N         -47.9974  -25.4353    6.7772 N.am      3 UNK        -0.4305 
     75 C         -46.8839  -26.1519    7.0135 C.2       2 UNK         0.5006 
     76 O         -45.8697  -25.6821    7.5336 O.2       2 UNK        -0.5106 
     77 CA        -46.8803  -27.6365    6.5883 C.3       2 UNK         0.0296 
     78 CB        -46.2501  -28.5470    7.6573 C.3       2 UNK        -0.2002 
     79 N         -48.2209  -28.1320    6.2668 N.am      2 UNK        -0.4032 
     80 C         -48.7419  -28.1873    5.0353 C.2       1 UNK         0.5000 
     81 O         -48.1169  -27.9102    4.0080 O.2       1 UNK        -0.5238 
     82 H82       -52.3102  -25.9445    2.7576 H         1 UNK         0.0889 
     83 H83       -51.3569  -24.5748    3.3336 H         1 UNK         0.0889 
     84 H84       -52.8401  -25.0347    4.1744 H         1 UNK         0.0889 
     85 H85       -51.3754  -27.9162    3.3054 H         1 UNK         0.3028 
     86 H86       -50.6459  -28.6217    5.9389 H         1 UNK         0.0864 
     87 H87       -49.9053  -30.0487    3.3299 H         1 UNK         0.0720 
     88 H88       -49.7882  -30.7430    4.9228 H         1 UNK         0.0720 
     89 H89       -51.3940  -32.3280    5.7169 H         1 UNK         0.0814 
     90 H90       -53.1157  -32.3342    5.4569 H         1 UNK         0.0814 
     91 H91       -50.4129  -30.8992    7.4811 H         1 UNK         0.1469 
     92 H92       -53.0645  -28.8279   10.1395 H         1 UNK         0.1381 
     93 H93       -54.6050  -30.6903    6.5967 H         1 UNK         0.1206 
     94 H94       -55.3370  -28.3182    9.3091 H         1 UNK         0.0813 
     95 H95       -56.0052  -29.1280    7.9120 H         1 UNK         0.0813 
     96 H96       -58.1291  -30.2744   11.1868 H         1 UNK         0.0638 
     97 H97       -58.0447  -29.0425    9.9535 H         1 UNK         0.0638 
     98 H98       -56.4540  -27.7332   11.2109 H         1 UNK         0.0568 
     99 H99       -58.8337  -27.4328   14.3671 H         1 UNK         0.3450 
    100 H100      -57.3410  -28.3418   14.4103 H         1 UNK         0.3450 
    101 H101      -56.1966  -29.9589   13.1753 H         1 UNK         0.2987 
    102 H102      -54.2088  -30.4031   14.0287 H         1 UNK         0.0766 
    103 H103      -51.7499  -30.0219   14.1980 H         1 UNK         0.0798 
    104 H104      -51.9035  -28.5052   13.3099 H         1 UNK         0.0798 
    105 H105      -52.2740  -30.0352   12.5235 H         1 UNK         0.0798 
    106 H106      -53.0684  -28.2080   15.4899 H         1 UNK         0.3198 
    107 H107      -55.8189  -27.2684   17.4161 H         1 UNK         0.0843 
    108 H108      -55.2983  -29.4253   18.5705 H         1 UNK         0.0831 
    109 H109      -54.5187  -28.0741   19.3766 H         1 UNK         0.0831 
    110 H110      -53.5762  -29.1490   18.3439 H         1 UNK         0.0831 
    111 H111      -52.9564  -26.8518   17.6372 H         1 UNK         0.3133 
    112 H112      -52.8276  -24.0635   15.4299 H         1 UNK         0.0566 
    113 H113      -51.8292  -23.0394   17.4493 H         1 UNK         0.0814 
    114 H114      -53.5729  -23.1721   17.6179 H         1 UNK         0.0814 
    115 H115      -52.5261  -24.2972   18.4693 H         1 UNK         0.0814 
    116 H116      -50.9996  -25.2058   15.1994 H         1 UNK         0.3091 
    117 H117      -48.7723  -26.8941   17.3792 H         1 UNK         0.0702 
    118 H118      -48.3965  -28.1857   15.2937 H         1 UNK         0.0785 
    119 H119      -49.9285  -27.6236   14.6339 H         1 UNK         0.0785 
    120 H120      -49.9082  -28.6710   16.0454 H         1 UNK         0.0785 
    121 H121      -48.3916  -25.6464   14.8398 H         1 UNK         0.2998 
    122 H122      -47.7106  -22.3457   16.0950 H         1 UNK         0.0697 
    123 H123      -45.9390  -24.4606   14.7594 H         1 UNK         0.0825 
    124 H124      -45.5802  -23.6393   16.2717 H         1 UNK         0.0825 
    125 H125      -45.6504  -22.7222   14.7758 H         1 UNK         0.0825 
    126 H126      -47.7540  -23.3431   13.4363 H         1 UNK         0.3029 
    127 H127      -51.2528  -22.7601   12.8184 H         1 UNK         0.0897 
    128 H128      -50.2061  -21.5221   10.9092 H         1 UNK         0.0792 
    129 H129      -50.1154  -20.6013   12.4035 H         1 UNK         0.0792 
    130 H130      -48.6876  -21.4261   11.8001 H         1 UNK         0.0792 
    131 H131      -49.2513  -23.8360   11.1188 H         1 UNK         0.3086 
    132 H132      -49.5313  -27.2526   12.1376 H         1 UNK         0.0583 
    133 H133      -51.3700  -26.9682   10.5257 H         1 UNK         0.1020 
    134 H134      -50.4660  -25.7799    9.6250 H         1 UNK         0.1020 
    135 H135      -49.7166  -30.2990    9.7919 H         1 UNK         0.0694 
    136 H136      -50.7474  -29.3567   10.8342 H         1 UNK         0.0694 
    137 H137      -47.9082  -25.7709   10.2602 H         1 UNK         0.2989 
    138 H138      -45.1501  -25.3392   12.4696 H         1 UNK         0.1055 
    139 H139      -44.9233  -27.7027   11.6799 H         1 UNK         0.0806 
    140 H140      -43.9587  -26.6027   10.7070 H         1 UNK         0.0806 
    141 H141      -45.4827  -27.2266   10.0829 H         1 UNK         0.0806 
    142 H142      -45.5934  -24.7873    9.6641 H         1 UNK         0.3061 
    143 H143      -46.9834  -21.5437   10.1455 H         1 UNK         0.0734 
    144 H144      -44.5432  -21.1469   10.5341 H         1 UNK         0.0832 
    145 H145      -44.1451  -22.2847    9.2545 H         1 UNK         0.0832 
    146 H146      -44.9977  -20.7860    8.8780 H         1 UNK         0.0832 
    147 H147      -46.1280  -22.7408    7.7657 H         1 UNK         0.3156 
    148 H148      -49.2561  -23.8078    6.7996 H         1 UNK         0.0589 
    149 H149      -46.3566  -23.4166    5.8712 H         1 UNK         0.0808 
    150 H150      -47.7944  -23.4893    4.8648 H         1 UNK         0.0808 
    151 H151      -47.5709  -22.1401    5.9597 H         1 UNK         0.0808 
    152 H152      -48.8073  -25.9119    6.3933 H         1 UNK         0.3098 
    153 H153      -46.2467  -27.6963    5.7011 H         1 UNK         0.0720 
    154 H154      -45.2202  -28.2541    7.8646 H         1 UNK         0.0791 
    155 H155      -46.2250  -29.5850    7.3253 H         1 UNK         0.0791 
    156 H156      -46.7982  -28.5124    8.5980 H         1 UNK         0.0791 
    157 H157      -48.8143  -28.3329    7.0631 H         1 UNK         0.3028 
@<TRIPOS>BOND
     1    1    2 1    
     2    1   82 1    
     3    1   83 1    
     4    1   84 1    
     5    2    3 2    
     6    2    4 am   BACKBONE|DICT|INTERRES
     7    4    5 1    
     8    4   85 1    
     9    5    6 1    
    10    5   80 1    
    11    5   86 1    
    12    6    7 1    
    13    6   87 1    
    14    6   88 1    
    15    7    8 1    
    16    8    9 1    
    17    8   89 1    
    18    8   90 1    
    19    9   10 ar   
    20    9   14 ar   
    21   10   11 ar   
    22   10   91 1    
    23   11   12 ar   
    24   11   58 1    
    25   12   13 ar   
    26   12   92 1    
    27   13   14 ar   
    28   13   15 1    
    29   14   93 1    
    30   15   16 1    
    31   15   94 1    
    32   15   95 1    
    33   16   17 1    
    34   17   18 1    
    35   17   96 1    
    36   17   97 1    
    37   18   19 1    
    38   18   22 1    
    39   18   98 1    
    40   19   20 am   BACKBONE|DICT|INTERRES
    41   19   21 2    
    42   20   99 1    
    43   20  100 1    
    44   22   23 am   BACKBONE|DICT|INTERRES
    45   22  101 1    
    46   23   24 2    
    47   23   25 1    
    48   25   26 1    
    49   25   27 1    
    50   25  102 1    
    51   26  103 1    
    52   26  104 1    
    53   26  105 1    
    54   27   28 am   BACKBONE|DICT|INTERRES
    55   27  106 1    
    56   28   29 2    
    57   28   30 1    
    58   30   31 1    
    59   30   32 1    
    60   30  107 1    
    61   31  108 1    
    62   31  109 1    
    63   31  110 1    
    64   32   33 am   BACKBONE|DICT|INTERRES
    65   32  111 1    
    66   33   34 2    
    67   33   35 1    
    68   35   36 1    
    69   35   37 1    
    70   35  112 1    
    71   36  113 1    
    72   36  114 1    
    73   36  115 1    
    74   37   38 am   BACKBONE|DICT|INTERRES
    75   37  116 1    
    76   38   39 2    
    77   38   40 1    
    78   40   41 1    
    79   40   42 1    
    80   40  117 1    
    81   41  118 1    
    82   41  119 1    
    83   41  120 1    
    84   42   43 am   BACKBONE|DICT|INTERRES
    85   42  121 1    
    86   43   44 2    
    87   43   45 1    
    88   45   46 1    
    89   45   47 1    
    90   45  122 1    
    91   46  123 1    
    92   46  124 1    
    93   46  125 1    
    94   47   48 am   BACKBONE|DICT|INTERRES
    95   47  126 1    
    96   48   49 2    
    97   48   50 1    
    98   50   51 1    
    99   50   52 1    
   100   50  127 1    
   101   51  128 1    
   102   51  129 1    
   103   51  130 1    
   104   52   53 am   BACKBONE|DICT|INTERRES
   105   52  131 1    
   106   53   54 2    
   107   53   55 1    
   108   55   56 1    
   109   55   59 1    
   110   55  132 1    
   111   56   57 1    
   112   56  133 1    
   113   56  134 1    
   114   57   58 1    
   115   58  135 1    
   116   58  136 1    
   117   59   60 am   BACKBONE|DICT|INTERRES
   118   59  137 1    
   119   60   61 2    
   120   60   62 1    
   121   62   63 1    
   122   62   64 1    
   123   62  138 1    
   124   63  139 1    
   125   63  140 1    
   126   63  141 1    
   127   64   65 am   BACKBONE|DICT|INTERRES
   128   64  142 1    
   129   65   66 2    
   130   65   67 1    
   131   67   68 1    
   132   67   69 1    
   133   67  143 1    
   134   68  144 1    
   135   68  145 1    
   136   68  146 1    
   137   69   70 am   BACKBONE|DICT|INTERRES
   138   69  147 1    
   139   70   71 2    
   140   70   72 1    
   141   72   73 1    
   142   72   74 1    
   143   72  148 1    
   144   73  149 1    
   145   73  150 1    
   146   73  151 1    
   147   74   75 am   BACKBONE|DICT|INTERRES
   148   74  152 1    
   149   75   76 2    
   150   75   77 1    
   151   77   78 1    
   152   77   79 1    
   153   77  153 1    
   154   78  154 1    
   155   78  155 1    
   156   78  156 1    
   157   79   80 am   BACKBONE|DICT|INTERRES
   158   79  157 1    
   159   80   81 2    
@<TRIPOS>SUBSTRUCTURE
     1 UNK         1 GROUP             0       ****    0 ROOT    
