@<TRIPOS>MOLECULE
3R207
157   159    1
SMALL
USER_CHARGES


@<TRIPOS>ATOM
      1 CA        -44.6774  -25.9877   10.6417 C.3       0 UNK        -0.1975 
      2 C         -45.2685  -27.2246    9.9796 C.2       0 UNK         0.4852 
      3 O         -44.6856  -28.3040   10.0947 O.2       0 UNK        -0.5216 
      4 N         -46.4036  -27.0840    9.2846 N.am      1 UNK        -0.4461 
      5 CA        -47.0193  -28.1396    8.4822 C.3       1 UNK         0.0864 
      6 C6        -48.0786  -28.9710    9.2578 C.3       14 UNK        -0.0898 
      7 S7        -49.6172  -28.0904    9.7019 S.3       14 UNK        -0.2598 
      8 C8        -50.7292  -28.7238    8.4037 C.3       14 UNK         0.0286 
      9 C9        -52.0514  -27.9744    8.3725 C.ar      14 UNK        -0.0844 
     10 C10       -52.0932  -26.6574    7.9067 C.ar      14 UNK        -0.0881 
     11 C11       -53.2999  -25.9485    7.8776 C.ar      14 UNK        -0.0643 
     12 C12       -54.4755  -26.5932    8.2757 C.ar      14 UNK        -0.0930 
     13 C13       -54.4527  -27.9179    8.7238 C.ar      14 UNK        -0.0827 
     14 C14       -53.2343  -28.6011    8.7760 C.ar      14 UNK        -0.1249 
     15 C15       -55.7486  -28.6274    9.1011 C.3       14 UNK         0.0141 
     16 S16       -56.6836  -27.7642   10.4058 S.3       14 UNK        -0.2313 
     17 C17       -55.7077  -28.1441   11.8971 C.3       14 UNK        -0.0915 
     18 CA        -56.4540  -29.1030   12.8742 C.3       13 UNK         0.0968 
     19 C         -55.9728  -30.5805   12.7647 C.2       13 UNK         0.5732 
     20 N         -55.6982  -31.2827   13.8592 N.am      13 UNK        -0.7310 
     21 O         -55.8620  -31.1138   11.6641 O.2       13 UNK        -0.5035 
     22 N         -56.4172  -28.5875   14.2504 N.am      13 UNK        -0.4233 
     23 C         -57.4668  -28.5222   15.0790 C.2       13 UNK         0.4989 
     24 O         -58.6165  -28.8209   14.7496 O.2       13 UNK        -0.4996 
     25 CA        -57.1922  -28.0350   16.5176 C.3       12 UNK         0.0216 
     26 CB        -58.2830  -28.4797   17.5157 C.3       12 UNK        -0.1964 
     27 N         -55.8598  -28.3845   17.0275 N.am      12 UNK        -0.4276 
     28 C         -55.3312  -29.6124   17.1631 C.2       12 UNK         0.5020 
     29 O         -55.9158  -30.6429   16.8244 O.2       12 UNK        -0.5489 
     30 CA        -53.9023  -29.7078   17.7357 C.3       11 UNK         0.0294 
     31 CB        -53.1000  -30.8435   17.0734 C.3       11 UNK        -0.2019 
     32 N         -53.1775  -28.4517   17.5434 N.am      11 UNK        -0.4493 
     33 C         -52.8811  -27.5561   18.4949 C.2       11 UNK         0.4932 
     34 O         -53.1096  -27.7282   19.6919 O.2       11 UNK        -0.5029 
     35 CA        -52.2490  -26.2262   18.0349 C.3       10 UNK         0.0280 
     36 CB        -50.7323  -26.2420   18.2807 C.3       10 UNK        -0.1976 
     37 N         -52.5113  -25.9121   16.6250 N.am      10 UNK        -0.4242 
     38 C         -53.7253  -25.6254   16.1245 C.2       10 UNK         0.5072 
     39 O         -54.7366  -25.5198   16.8189 O.2       10 UNK        -0.5224 
     40 CA        -53.8626  -25.5253   14.5922 C.3       9 UNK         0.0343 
     41 CB        -53.7539  -24.0637   14.1352 C.3       9 UNK        -0.2003 
     42 N         -52.8879  -26.3471   13.8657 N.am      9 UNK        -0.4272 
     43 C         -52.7806  -27.6803   13.9914 C.2       9 UNK         0.4988 
     44 O         -53.5868  -28.3534   14.6324 O.2       9 UNK        -0.5108 
     45 CA        -51.5638  -28.3915   13.3703 C.3       8 UNK         0.0248 
     46 CB        -51.9910  -29.2403   12.1664 C.3       8 UNK        -0.2001 
     47 N         -50.4709  -27.4990   12.9763 N.am      8 UNK        -0.4140 
     48 C         -49.7802  -26.7075   13.8093 C.2       8 UNK         0.5028 
     49 O         -49.9664  -26.6695   15.0264 O.2       8 UNK        -0.5428 
     50 CA        -48.7611  -25.7471   13.1735 C.3       7 UNK         0.0264 
     51 CB        -47.3667  -26.3890   13.1374 C.3       7 UNK        -0.1988 
     52 N         -49.1149  -25.2844   11.8260 N.am      7 UNK        -0.4454 
     53 C         -50.2450  -24.6542   11.4748 C.2       7 UNK         0.5027 
     54 O         -51.1676  -24.4288   12.2593 O.2       7 UNK        -0.5083 
     55 CA        -50.3401  -24.1836   10.0077 C.3       6 UNK         0.0844 
     56 C56       -51.7659  -23.7039    9.6295 C.3       14 UNK        -0.0967 
     57 S57       -51.9213  -23.4654    7.8251 S.3       14 UNK        -0.2604 
     58 C58       -53.3729  -24.4958    7.4067 C.3       14 UNK         0.0134 
     59 N         -49.3390  -23.1440    9.7456 N.am      6 UNK        -0.4116 
     60 C         -48.0353  -23.3595    9.5388 C.2       5 UNK         0.5034 
     61 O         -47.5192  -24.4781    9.5194 O.2       5 UNK        -0.5045 
     62 CA        -47.1493  -22.1177    9.4201 C.3       5 UNK         0.0224 
     63 CB        -46.7460  -21.6245   10.8245 C.3       5 UNK        -0.1978 
     64 N         -45.9568  -22.4345    8.6350 N.am      5 UNK        -0.4737 
     65 C         -45.1392  -21.5318    8.0839 C.2       4 UNK         0.5027 
     66 O         -45.3188  -20.3158    8.1600 O.2       4 UNK        -0.5211 
     67 CA        -43.9191  -22.0542    7.3079 C.3       4 UNK         0.0297 
     68 CB        -42.8780  -22.7004    8.2455 C.3       4 UNK        -0.1993 
     69 N         -44.2685  -22.9203    6.1745 N.am      4 UNK        -0.4486 
     70 C         -44.7505  -24.1690    6.1948 C.2       3 UNK         0.4961 
     71 O         -44.9642  -24.8174    7.2231 O.2       3 UNK        -0.5105 
     72 CA        -45.0227  -24.7983    4.8214 C.3       3 UNK         0.0299 
     73 CB        -43.7122  -25.1659    4.1027 C.3       3 UNK        -0.1972 
     74 N         -45.8183  -26.0029    5.0160 N.am      3 UNK        -0.4305 
     75 C         -46.8133  -26.4367    4.2344 C.2       2 UNK         0.5006 
     76 O         -47.1306  -25.8937    3.1748 O.2       2 UNK        -0.5106 
     77 CA        -47.5884  -27.6927    4.6931 C.3       2 UNK         0.0296 
     78 CB        -47.3834  -28.8495    3.6995 C.3       2 UNK        -0.2002 
     79 N         -47.2455  -28.1632    6.0419 N.am      2 UNK        -0.4032 
     80 C         -47.5401  -27.5136    7.1766 C.2       1 UNK         0.5000 
     81 O         -48.1725  -26.4562    7.2053 O.2       1 UNK        -0.5238 
     82 H82       -44.4297  -26.1987   11.6814 H         1 UNK         0.0889 
     83 H83       -45.3584  -25.1399   10.6228 H         1 UNK         0.0889 
     84 H84       -43.7628  -25.6955   10.1269 H         1 UNK         0.0889 
     85 H85       -46.8365  -26.1649    9.1851 H         1 UNK         0.3028 
     86 H86       -46.2299  -28.8362    8.1906 H         1 UNK         0.0864 
     87 H87       -48.3332  -29.8646    8.6857 H         1 UNK         0.0720 
     88 H88       -47.6356  -29.3435   10.1826 H         1 UNK         0.0720 
     89 H89       -50.8935  -29.7904    8.5649 H         1 UNK         0.0814 
     90 H90       -50.2509  -28.6298    7.4282 H         1 UNK         0.0814 
     91 H91       -51.1768  -26.1846    7.5795 H         1 UNK         0.1469 
     92 H92       -55.4181  -26.0644    8.2345 H         1 UNK         0.1381 
     93 H93       -53.2084  -29.6265    9.1190 H         1 UNK         0.1206 
     94 H94       -55.5578  -29.6545    9.4148 H         1 UNK         0.0813 
     95 H95       -56.3767  -28.6940    8.2120 H         1 UNK         0.0813 
     96 H96       -55.5072  -27.1840   12.3739 H         1 UNK         0.0638 
     97 H97       -54.7288  -28.5296   11.6129 H         1 UNK         0.0638 
     98 H98       -57.4992  -29.1453   12.5645 H         1 UNK         0.0568 
     99 H99       -55.8143  -30.8883   14.7857 H         1 UNK         0.3450 
    100 H100      -55.3964  -32.2381   13.7599 H         1 UNK         0.3450 
    101 H101      -55.4852  -28.3962   14.6075 H         1 UNK         0.2987 
    102 H102      -57.2174  -26.9454   16.4691 H         1 UNK         0.0766 
    103 H103      -59.2636  -28.1034   17.2214 H         1 UNK         0.0798 
    104 H104      -58.0819  -28.1010   18.5178 H         1 UNK         0.0798 
    105 H105      -58.3558  -29.5662   17.5759 H         1 UNK         0.0798 
    106 H106      -55.2855  -27.5915   17.2897 H         1 UNK         0.3198 
    107 H107      -53.9994  -29.9325   18.7997 H         1 UNK         0.0843 
    108 H108      -53.0337  -30.7128   15.9923 H         1 UNK         0.0831 
    109 H109      -53.5659  -31.8126   17.2563 H         1 UNK         0.0831 
    110 H110      -52.0853  -30.8951   17.4683 H         1 UNK         0.0831 
    111 H111      -52.9966  -28.2125   16.5744 H         1 UNK         0.3133 
    112 H112      -52.6836  -25.4287   18.6412 H         1 UNK         0.0566 
    113 H113      -50.2725  -25.2953   17.9966 H         1 UNK         0.0814 
    114 H114      -50.2407  -27.0358   17.7166 H         1 UNK         0.0814 
    115 H115      -50.5095  -26.4069   19.3357 H         1 UNK         0.0814 
    116 H116      -51.7268  -26.0135   15.9876 H         1 UNK         0.3091 
    117 H117      -54.8588  -25.8877   14.3321 H         1 UNK         0.0702 
    118 H118      -53.9139  -23.9714   13.0606 H         1 UNK         0.0785 
    119 H119      -52.7747  -23.6416   14.3652 H         1 UNK         0.0785 
    120 H120      -54.5023  -23.4426   14.6293 H         1 UNK         0.0785 
    121 H121      -52.1984  -25.8437   13.3157 H         1 UNK         0.2998 
    122 H122      -51.1726  -29.0651   14.1354 H         1 UNK         0.0697 
    123 H123      -52.3441  -28.6110   11.3510 H         1 UNK         0.0825 
    124 H124      -52.7977  -29.9257   12.4307 H         1 UNK         0.0825 
    125 H125      -51.1652  -29.8450   11.7914 H         1 UNK         0.0825 
    126 H126      -50.2469  -27.4631   11.9900 H         1 UNK         0.3029 
    127 H127      -48.7149  -24.8646   13.8149 H         1 UNK         0.0897 
    128 H128      -47.3271  -27.2300   12.4436 H         1 UNK         0.0792 
    129 H129      -47.0806  -26.7624   14.1219 H         1 UNK         0.0792 
    130 H130      -46.6104  -25.6644   12.8376 H         1 UNK         0.0792 
    131 H131      -48.4091  -25.3884   11.1043 H         1 UNK         0.3086 
    132 H132      -50.1041  -25.0523    9.3897 H         1 UNK         0.0583 
    133 H133      -52.5149  -24.4236    9.9652 H         1 UNK         0.1020 
    134 H134      -52.0096  -22.7675   10.1346 H         1 UNK         0.1020 
    135 H135      -54.2563  -24.0116    7.8263 H         1 UNK         0.0694 
    136 H136      -53.5029  -24.4888    6.3239 H         1 UNK         0.0694 
    137 H137      -49.6768  -22.1936    9.7786 H         1 UNK         0.2989 
    138 H138      -47.7132  -21.3380    8.9028 H         1 UNK         0.1055 
    139 H139      -46.1513  -22.3699   11.3544 H         1 UNK         0.0806 
    140 H140      -47.6238  -21.4128   11.4366 H         1 UNK         0.0806 
    141 H141      -46.1625  -20.7052   10.7763 H         1 UNK         0.0806 
    142 H142      -45.7842  -23.4243    8.4701 H         1 UNK         0.3061 
    143 H143      -43.4400  -21.1807    6.8622 H         1 UNK         0.0734 
    144 H144      -43.2747  -23.5696    8.7699 H         1 UNK         0.0832 
    145 H145      -41.9918  -23.0168    7.6956 H         1 UNK         0.0832 
    146 H146      -42.5514  -21.9904    9.0062 H         1 UNK         0.0832 
    147 H147      -44.1579  -22.4854    5.2683 H         1 UNK         0.3156 
    148 H148      -45.5820  -24.0763    4.2225 H         1 UNK         0.0589 
    149 H149      -43.1151  -25.8658    4.6889 H         1 UNK         0.0808 
    150 H150      -43.9088  -25.6253    3.1337 H         1 UNK         0.0808 
    151 H151      -43.0974  -24.2836    3.9214 H         1 UNK         0.0808 
    152 H152      -45.6810  -26.4384    5.9186 H         1 UNK         0.3098 
    153 H153      -48.6479  -27.4277    4.6915 H         1 UNK         0.0720 
    154 H154      -47.9874  -29.7165    3.9679 H         1 UNK         0.0791 
    155 H155      -46.3400  -29.1646    3.6570 H         1 UNK         0.0791 
    156 H156      -47.6756  -28.5561    2.6901 H         1 UNK         0.0791 
    157 H157      -46.7193  -29.0242    6.0927 H         1 UNK         0.3028 
@<TRIPOS>BOND
     1    1    2 1    
     2    1   82 1    
     3    1   83 1    
     4    1   84 1    
     5    2    3 2    
     6    2    4 am   BACKBONE|DICT|INTERRES
     7    4    5 1    
     8    4   85 1    
     9    5    6 1    
    10    5   80 1    
    11    5   86 1    
    12    6    7 1    
    13    6   87 1    
    14    6   88 1    
    15    7    8 1    
    16    8    9 1    
    17    8   89 1    
    18    8   90 1    
    19    9   10 ar   
    20    9   14 ar   
    21   10   11 ar   
    22   10   91 1    
    23   11   12 ar   
    24   11   58 1    
    25   12   13 ar   
    26   12   92 1    
    27   13   14 ar   
    28   13   15 1    
    29   14   93 1    
    30   15   16 1    
    31   15   94 1    
    32   15   95 1    
    33   16   17 1    
    34   17   18 1    
    35   17   96 1    
    36   17   97 1    
    37   18   19 1    
    38   18   22 1    
    39   18   98 1    
    40   19   20 am   BACKBONE|DICT|INTERRES
    41   19   21 2    
    42   20   99 1    
    43   20  100 1    
    44   22   23 am   BACKBONE|DICT|INTERRES
    45   22  101 1    
    46   23   24 2    
    47   23   25 1    
    48   25   26 1    
    49   25   27 1    
    50   25  102 1    
    51   26  103 1    
    52   26  104 1    
    53   26  105 1    
    54   27   28 am   BACKBONE|DICT|INTERRES
    55   27  106 1    
    56   28   29 2    
    57   28   30 1    
    58   30   31 1    
    59   30   32 1    
    60   30  107 1    
    61   31  108 1    
    62   31  109 1    
    63   31  110 1    
    64   32   33 am   BACKBONE|DICT|INTERRES
    65   32  111 1    
    66   33   34 2    
    67   33   35 1    
    68   35   36 1    
    69   35   37 1    
    70   35  112 1    
    71   36  113 1    
    72   36  114 1    
    73   36  115 1    
    74   37   38 am   BACKBONE|DICT|INTERRES
    75   37  116 1    
    76   38   39 2    
    77   38   40 1    
    78   40   41 1    
    79   40   42 1    
    80   40  117 1    
    81   41  118 1    
    82   41  119 1    
    83   41  120 1    
    84   42   43 am   BACKBONE|DICT|INTERRES
    85   42  121 1    
    86   43   44 2    
    87   43   45 1    
    88   45   46 1    
    89   45   47 1    
    90   45  122 1    
    91   46  123 1    
    92   46  124 1    
    93   46  125 1    
    94   47   48 am   BACKBONE|DICT|INTERRES
    95   47  126 1    
    96   48   49 2    
    97   48   50 1    
    98   50   51 1    
    99   50   52 1    
   100   50  127 1    
   101   51  128 1    
   102   51  129 1    
   103   51  130 1    
   104   52   53 am   BACKBONE|DICT|INTERRES
   105   52  131 1    
   106   53   54 2    
   107   53   55 1    
   108   55   56 1    
   109   55   59 1    
   110   55  132 1    
   111   56   57 1    
   112   56  133 1    
   113   56  134 1    
   114   57   58 1    
   115   58  135 1    
   116   58  136 1    
   117   59   60 am   BACKBONE|DICT|INTERRES
   118   59  137 1    
   119   60   61 2    
   120   60   62 1    
   121   62   63 1    
   122   62   64 1    
   123   62  138 1    
   124   63  139 1    
   125   63  140 1    
   126   63  141 1    
   127   64   65 am   BACKBONE|DICT|INTERRES
   128   64  142 1    
   129   65   66 2    
   130   65   67 1    
   131   67   68 1    
   132   67   69 1    
   133   67  143 1    
   134   68  144 1    
   135   68  145 1    
   136   68  146 1    
   137   69   70 am   BACKBONE|DICT|INTERRES
   138   69  147 1    
   139   70   71 2    
   140   70   72 1    
   141   72   73 1    
   142   72   74 1    
   143   72  148 1    
   144   73  149 1    
   145   73  150 1    
   146   73  151 1    
   147   74   75 am   BACKBONE|DICT|INTERRES
   148   74  152 1    
   149   75   76 2    
   150   75   77 1    
   151   77   78 1    
   152   77   79 1    
   153   77  153 1    
   154   78  154 1    
   155   78  155 1    
   156   78  156 1    
   157   79   80 am   BACKBONE|DICT|INTERRES
   158   79  157 1    
   159   80   81 2    
@<TRIPOS>SUBSTRUCTURE
     1 UNK         1 GROUP             0       ****    0 ROOT    
