@<TRIPOS>MOLECULE
3R207
157   159    1
SMALL
USER_CHARGES


@<TRIPOS>ATOM
      1 CA        -51.2565  -28.0947    1.5751 C.3       0 UNK        -0.1975 
      2 C         -50.5322  -27.6654    2.8420 C.2       0 UNK         0.4852 
      3 O         -49.3938  -28.0812    3.0635 O.2       0 UNK        -0.5216 
      4 N         -51.1749  -26.8203    3.6615 N.am      1 UNK        -0.4461 
      5 CA        -50.7334  -26.2902    4.9651 C.3       1 UNK         0.0864 
      6 C6        -50.4518  -27.3834    6.0325 C.3       14 UNK        -0.0898 
      7 S7        -51.9207  -28.4142    6.3681 S.3       14 UNK        -0.2598 
      8 C8        -52.4117  -27.8313    8.0259 C.3       14 UNK         0.0286 
      9 C9        -51.8286  -28.6594    9.1711 C.ar      14 UNK        -0.0844 
     10 C10       -50.4915  -29.0793    9.1811 C.ar      14 UNK        -0.0881 
     11 C11       -49.9934  -29.8572   10.2320 C.ar      14 UNK        -0.0643 
     12 C12       -50.8359  -30.1989   11.2937 C.ar      14 UNK        -0.0930 
     13 C13       -52.1672  -29.7733   11.3066 C.ar      14 UNK        -0.0827 
     14 C14       -52.6528  -29.0021   10.2469 C.ar      14 UNK        -0.1249 
     15 C15       -53.0758  -30.1178   12.4766 C.3       14 UNK         0.0141 
     16 S16       -54.5425  -31.0666   11.9670 S.3       14 UNK        -0.2313 
     17 C17       -55.6315  -30.7928   13.4064 C.3       14 UNK        -0.0915 
     18 CA        -56.6555  -29.6508   13.1592 C.3       13 UNK         0.0968 
     19 C         -57.7278  -29.5696   14.2846 C.2       13 UNK         0.5732 
     20 N         -58.0305  -28.4047   14.8486 N.am      13 UNK        -0.7310 
     21 O         -58.3236  -30.5843   14.6396 O.2       13 UNK        -0.5035 
     22 N         -55.9777  -28.3671   12.9320 N.am      13 UNK        -0.4233 
     23 C         -56.1800  -27.5524   11.8899 C.2       13 UNK         0.4989 
     24 O         -56.9273  -27.8232   10.9482 O.2       13 UNK        -0.4996 
     25 CA        -55.4122  -26.2114   11.8802 C.3       12 UNK         0.0216 
     26 CB        -56.2063  -25.0861   11.1848 C.3       12 UNK        -0.1964 
     27 N         -54.9417  -25.7609   13.1969 N.am      12 UNK        -0.4276 
     28 C         -55.6712  -25.5394   14.2982 C.2       12 UNK         0.5020 
     29 O         -56.8925  -25.7020   14.3551 O.2       12 UNK        -0.5489 
     30 CA        -54.8839  -25.1293   15.5595 C.3       11 UNK         0.0294 
     31 CB        -55.7808  -25.0545   16.8123 C.3       11 UNK        -0.2019 
     32 N         -53.7150  -25.9765   15.8443 N.am      11 UNK        -0.4493 
     33 C         -53.6653  -27.3182   15.9070 C.2       11 UNK         0.4932 
     34 O         -54.6000  -28.0525   15.5840 O.2       11 UNK        -0.5029 
     35 CA        -52.3657  -27.9561   16.4360 C.3       10 UNK         0.0280 
     36 CB        -52.0147  -29.2705   15.7213 C.3       10 UNK        -0.1976 
     37 N         -51.2175  -27.0521   16.3495 N.am      10 UNK        -0.4242 
     38 C         -50.7022  -26.3705   17.3803 C.2       10 UNK         0.5072 
     39 O         -51.1368  -26.4280   18.5315 O.2       10 UNK        -0.5224 
     40 CA        -49.5079  -25.4503   17.0784 C.3       9 UNK         0.0343 
     41 CB        -48.1963  -26.2503   17.1025 C.3       9 UNK        -0.2003 
     42 N         -49.6202  -24.7160   15.8131 N.am      9 UNK        -0.4272 
     43 C         -50.5938  -23.8371   15.5269 C.2       9 UNK         0.4988 
     44 O         -51.5492  -23.6036   16.2683 O.2       9 UNK        -0.5108 
     45 CA        -50.4937  -23.0995   14.1828 C.3       8 UNK         0.0248 
     46 CB        -49.3738  -22.0469   14.2174 C.3       8 UNK        -0.2001 
     47 N         -50.2852  -24.0126   13.0599 N.am      8 UNK        -0.4140 
     48 C         -51.1953  -24.8996   12.6338 C.2       8 UNK         0.5028 
     49 O         -52.3272  -24.9979   13.1043 O.2       8 UNK        -0.5428 
     50 CA        -50.7602  -25.8750   11.5290 C.3       7 UNK         0.0264 
     51 CB        -50.7572  -25.1829   10.1582 C.3       7 UNK        -0.1988 
     52 N         -49.4504  -26.4731   11.7908 N.am      7 UNK        -0.4454 
     53 C         -49.1549  -27.1976   12.8823 C.2       7 UNK         0.5027 
     54 O         -49.9613  -27.4579   13.7758 O.2       7 UNK        -0.5083 
     55 CA        -47.6949  -27.6528   13.0516 C.3       6 UNK         0.0844 
     56 C56       -47.4341  -29.0582   12.4556 C.3       14 UNK        -0.0967 
     57 S57       -47.3372  -29.1003   10.6347 S.3       14 UNK        -0.2604 
     58 C58       -48.5607  -30.3719   10.1892 C.3       14 UNK         0.0134 
     59 N         -46.7471  -26.6314   12.5945 N.am      6 UNK        -0.4116 
     60 C         -46.5655  -25.4547   13.2121 C.2       5 UNK         0.5034 
     61 O         -47.1590  -25.1166   14.2371 O.2       5 UNK        -0.5045 
     62 CA        -45.5859  -24.4713   12.5541 C.3       5 UNK         0.0224 
     63 CB        -44.1397  -24.9885   12.6321 C.3       5 UNK        -0.1978 
     64 N         -45.9295  -24.1648   11.1633 N.am      5 UNK        -0.4737 
     65 C         -47.0725  -23.5882   10.7647 C.2       4 UNK         0.5027 
     66 O         -47.9804  -23.2675   11.5293 O.2       4 UNK        -0.5211 
     67 CA        -47.2394  -23.3246    9.2588 C.3       4 UNK         0.0297 
     68 CB        -46.7817  -21.8995    8.9119 C.3       4 UNK        -0.1993 
     69 N         -46.5390  -24.2805    8.3984 N.am      4 UNK        -0.4486 
     70 C         -46.7828  -25.5955    8.3470 C.2       3 UNK         0.4961 
     71 O         -47.6060  -26.1667    9.0635 O.2       3 UNK        -0.5105 
     72 CA        -45.9950  -26.3769    7.2790 C.3       3 UNK         0.0299 
     73 CB        -45.9823  -27.8925    7.5400 C.3       3 UNK        -0.1972 
     74 N         -46.5668  -26.1316    5.9570 N.am      3 UNK        -0.4305 
     75 C         -46.4103  -25.0141    5.2324 C.2       2 UNK         0.5006 
     76 O         -45.6508  -24.0961    5.5468 O.2       2 UNK        -0.5106 
     77 CA        -47.2699  -24.8866    3.9616 C.3       2 UNK         0.0296 
     78 CB        -46.4944  -25.3804    2.7300 C.3       2 UNK        -0.2002 
     79 N         -48.5357  -25.6188    4.0639 N.am      2 UNK        -0.4032 
     80 C         -49.5498  -25.3022    4.8805 C.2       1 UNK         0.5000 
     81 O         -49.5719  -24.2805    5.5685 O.2       1 UNK        -0.5238 
     82 H82       -52.2481  -27.6488    1.5001 H         1 UNK         0.0889 
     83 H83       -51.3703  -29.1783    1.5591 H         1 UNK         0.0889 
     84 H84       -50.6835  -27.7989    0.6968 H         1 UNK         0.0889 
     85 H85       -52.0951  -26.5068    3.3848 H         1 UNK         0.3028 
     86 H86       -51.5766  -25.6997    5.3281 H         1 UNK         0.0864 
     87 H87       -49.6415  -28.0412    5.7149 H         1 UNK         0.0720 
     88 H88       -50.1130  -26.9273    6.9652 H         1 UNK         0.0720 
     89 H89       -53.5015  -27.8672    8.0662 H         1 UNK         0.0814 
     90 H90       -52.1471  -26.7822    8.1510 H         1 UNK         0.0814 
     91 H91       -49.8337  -28.8197    8.3647 H         1 UNK         0.1469 
     92 H92       -50.4554  -30.7997   12.1081 H         1 UNK         0.1381 
     93 H93       -53.6840  -28.6769   10.2604 H         1 UNK         0.1206 
     94 H94       -53.3802  -29.1886   12.9582 H         1 UNK         0.0813 
     95 H95       -52.5403  -30.7036   13.2242 H         1 UNK         0.0813 
     96 H96       -55.0311  -30.5901   14.2952 H         1 UNK         0.0638 
     97 H97       -56.1475  -31.7353   13.5978 H         1 UNK         0.0638 
     98 H98       -57.2210  -29.9211   12.2661 H         1 UNK         0.0568 
     99 H99       -58.7340  -28.3797   15.5685 H         1 UNK         0.3450 
    100 H100      -57.5664  -27.5452   14.5709 H         1 UNK         0.3450 
    101 H101      -55.3978  -28.0525   13.7029 H         1 UNK         0.2987 
    102 H102      -54.5113  -26.3907   11.2916 H         1 UNK         0.0766 
    103 H103      -55.6358  -24.1577   11.1578 H         1 UNK         0.0798 
    104 H104      -57.1496  -24.8860   11.6941 H         1 UNK         0.0798 
    105 H105      -56.4418  -25.3481   10.1526 H         1 UNK         0.0798 
    106 H106      -53.9373  -25.5681   13.2553 H         1 UNK         0.3198 
    107 H107      -54.4969  -24.1277   15.3648 H         1 UNK         0.0843 
    108 H108      -56.2095  -26.0272   17.0571 H         1 UNK         0.0831 
    109 H109      -56.6092  -24.3611   16.6616 H         1 UNK         0.0831 
    110 H110      -55.2219  -24.7056   17.6806 H         1 UNK         0.0831 
    111 H111      -52.8696  -25.4684   16.0757 H         1 UNK         0.3133 
    112 H112      -52.5649  -28.2071   17.4795 H         1 UNK         0.0566 
    113 H113      -51.7403  -29.0915   14.6842 H         1 UNK         0.0814 
    114 H114      -51.1710  -29.7647   16.2029 H         1 UNK         0.0814 
    115 H115      -52.8486  -29.9733   15.7339 H         1 UNK         0.0814 
    116 H116      -50.7806  -26.9717   15.4327 H         1 UNK         0.3091 
    117 H117      -49.4616  -24.7067   17.8768 H         1 UNK         0.0702 
    118 H118      -47.3308  -25.5979   16.9859 H         1 UNK         0.0785 
    119 H119      -48.1657  -26.9944   16.3066 H         1 UNK         0.0785 
    120 H120      -48.0776  -26.7792   18.0492 H         1 UNK         0.0785 
    121 H121      -48.8612  -24.8427   15.1482 H         1 UNK         0.2998 
    122 H122      -51.4395  -22.5788   14.0183 H         1 UNK         0.0697 
    123 H123      -48.3899  -22.5049   14.3281 H         1 UNK         0.0825 
    124 H124      -49.5105  -21.3559   15.0503 H         1 UNK         0.0825 
    125 H125      -49.3615  -21.4543   13.3025 H         1 UNK         0.0825 
    126 H126      -49.3875  -23.9540   12.5832 H         1 UNK         0.3029 
    127 H127      -51.4840  -26.6915   11.5014 H         1 UNK         0.0897 
    128 H128      -51.7668  -24.8852    9.8729 H         1 UNK         0.0792 
    129 H129      -50.3734  -25.8422    9.3800 H         1 UNK         0.0792 
    130 H130      -50.1433  -24.2834   10.1613 H         1 UNK         0.0792 
    131 H131      -48.7342  -26.3376   11.0866 H         1 UNK         0.3086 
    132 H132      -47.5397  -27.7540   14.1277 H         1 UNK         0.0583 
    133 H133      -46.4850  -29.4364   12.8384 H         1 UNK         0.1020 
    134 H134      -48.1866  -29.7657   12.8086 H         1 UNK         0.1020 
    135 H135      -48.3407  -30.7188    9.1785 H         1 UNK         0.0694 
    136 H136      -48.4382  -31.2415   10.8366 H         1 UNK         0.0694 
    137 H137      -46.2654  -26.8196   11.7272 H         1 UNK         0.2989 
    138 H138      -45.6418  -23.5375   13.1183 H         1 UNK         0.1055 
    139 H139      -43.8665  -25.2282   13.6609 H         1 UNK         0.0806 
    140 H140      -43.4321  -24.2379   12.2794 H         1 UNK         0.0806 
    141 H141      -43.9940  -25.8910   12.0373 H         1 UNK         0.0806 
    142 H142      -45.2450  -24.3937   10.4574 H         1 UNK         0.3061 
    143 H143      -48.3030  -23.4021    9.0275 H         1 UNK         0.0734 
    144 H144      -47.3101  -21.1622    9.5183 H         1 UNK         0.0832 
    145 H145      -46.9830  -21.6609    7.8673 H         1 UNK         0.0832 
    146 H146      -45.7143  -21.7630    9.0895 H         1 UNK         0.0832 
    147 H147      -45.9023  -23.8978    7.7087 H         1 UNK         0.3156 
    148 H148      -44.9607  -26.0266    7.2913 H         1 UNK         0.0589 
    149 H149      -46.9893  -28.3116    7.5657 H         1 UNK         0.0808 
    150 H150      -45.4168  -28.4240    6.7746 H         1 UNK         0.0808 
    151 H151      -45.5112  -28.1131    8.4981 H         1 UNK         0.0808 
    152 H152      -47.2188  -26.8232    5.6188 H         1 UNK         0.3098 
    153 H153      -47.4999  -23.8281    3.8231 H         1 UNK         0.0720 
    154 H154      -47.0663  -25.2278    1.8145 H         1 UNK         0.0791 
    155 H155      -46.2540  -26.4420    2.8022 H         1 UNK         0.0791 
    156 H156      -45.5540  -24.8388    2.6179 H         1 UNK         0.0791 
    157 H157      -48.6193  -26.4925    3.5468 H         1 UNK         0.3028 
@<TRIPOS>BOND
     1    1    2 1    
     2    1   82 1    
     3    1   83 1    
     4    1   84 1    
     5    2    3 2    
     6    2    4 am   BACKBONE|DICT|INTERRES
     7    4    5 1    
     8    4   85 1    
     9    5    6 1    
    10    5   80 1    
    11    5   86 1    
    12    6    7 1    
    13    6   87 1    
    14    6   88 1    
    15    7    8 1    
    16    8    9 1    
    17    8   89 1    
    18    8   90 1    
    19    9   10 ar   
    20    9   14 ar   
    21   10   11 ar   
    22   10   91 1    
    23   11   12 ar   
    24   11   58 1    
    25   12   13 ar   
    26   12   92 1    
    27   13   14 ar   
    28   13   15 1    
    29   14   93 1    
    30   15   16 1    
    31   15   94 1    
    32   15   95 1    
    33   16   17 1    
    34   17   18 1    
    35   17   96 1    
    36   17   97 1    
    37   18   19 1    
    38   18   22 1    
    39   18   98 1    
    40   19   20 am   BACKBONE|DICT|INTERRES
    41   19   21 2    
    42   20   99 1    
    43   20  100 1    
    44   22   23 am   BACKBONE|DICT|INTERRES
    45   22  101 1    
    46   23   24 2    
    47   23   25 1    
    48   25   26 1    
    49   25   27 1    
    50   25  102 1    
    51   26  103 1    
    52   26  104 1    
    53   26  105 1    
    54   27   28 am   BACKBONE|DICT|INTERRES
    55   27  106 1    
    56   28   29 2    
    57   28   30 1    
    58   30   31 1    
    59   30   32 1    
    60   30  107 1    
    61   31  108 1    
    62   31  109 1    
    63   31  110 1    
    64   32   33 am   BACKBONE|DICT|INTERRES
    65   32  111 1    
    66   33   34 2    
    67   33   35 1    
    68   35   36 1    
    69   35   37 1    
    70   35  112 1    
    71   36  113 1    
    72   36  114 1    
    73   36  115 1    
    74   37   38 am   BACKBONE|DICT|INTERRES
    75   37  116 1    
    76   38   39 2    
    77   38   40 1    
    78   40   41 1    
    79   40   42 1    
    80   40  117 1    
    81   41  118 1    
    82   41  119 1    
    83   41  120 1    
    84   42   43 am   BACKBONE|DICT|INTERRES
    85   42  121 1    
    86   43   44 2    
    87   43   45 1    
    88   45   46 1    
    89   45   47 1    
    90   45  122 1    
    91   46  123 1    
    92   46  124 1    
    93   46  125 1    
    94   47   48 am   BACKBONE|DICT|INTERRES
    95   47  126 1    
    96   48   49 2    
    97   48   50 1    
    98   50   51 1    
    99   50   52 1    
   100   50  127 1    
   101   51  128 1    
   102   51  129 1    
   103   51  130 1    
   104   52   53 am   BACKBONE|DICT|INTERRES
   105   52  131 1    
   106   53   54 2    
   107   53   55 1    
   108   55   56 1    
   109   55   59 1    
   110   55  132 1    
   111   56   57 1    
   112   56  133 1    
   113   56  134 1    
   114   57   58 1    
   115   58  135 1    
   116   58  136 1    
   117   59   60 am   BACKBONE|DICT|INTERRES
   118   59  137 1    
   119   60   61 2    
   120   60   62 1    
   121   62   63 1    
   122   62   64 1    
   123   62  138 1    
   124   63  139 1    
   125   63  140 1    
   126   63  141 1    
   127   64   65 am   BACKBONE|DICT|INTERRES
   128   64  142 1    
   129   65   66 2    
   130   65   67 1    
   131   67   68 1    
   132   67   69 1    
   133   67  143 1    
   134   68  144 1    
   135   68  145 1    
   136   68  146 1    
   137   69   70 am   BACKBONE|DICT|INTERRES
   138   69  147 1    
   139   70   71 2    
   140   70   72 1    
   141   72   73 1    
   142   72   74 1    
   143   72  148 1    
   144   73  149 1    
   145   73  150 1    
   146   73  151 1    
   147   74   75 am   BACKBONE|DICT|INTERRES
   148   74  152 1    
   149   75   76 2    
   150   75   77 1    
   151   77   78 1    
   152   77   79 1    
   153   77  153 1    
   154   78  154 1    
   155   78  155 1    
   156   78  156 1    
   157   79   80 am   BACKBONE|DICT|INTERRES
   158   79  157 1    
   159   80   81 2    
@<TRIPOS>SUBSTRUCTURE
     1 UNK         1 GROUP             0       ****    0 ROOT    
