@<TRIPOS>MOLECULE
3R207
157   159    1
SMALL
USER_CHARGES


@<TRIPOS>ATOM
      1 CA        -46.5399  -28.7740   11.3364 C.3       0 UNK        -0.1975 
      2 C         -46.6946  -29.3759    9.9489 C.2       0 UNK         0.4852 
      3 O         -45.8481  -30.1598    9.5202 O.2       0 UNK        -0.5216 
      4 N         -47.7684  -29.0073    9.2403 N.am      1 UNK        -0.4461 
      5 CA        -48.1237  -29.4969    7.9010 C.3       1 UNK         0.0864 
      6 C6        -49.6618  -29.5174    7.6963 C.3       14 UNK        -0.0898 
      7 S7        -50.4948  -27.9504    8.1217 S.3       14 UNK        -0.2598 
      8 C8        -52.2225  -28.5216    8.1913 C.3       14 UNK         0.0286 
      9 C9        -53.1525  -27.4482    8.7370 C.ar      14 UNK        -0.0844 
     10 C10       -53.3288  -26.2510    8.0382 C.ar      14 UNK        -0.0881 
     11 C11       -54.1672  -25.2516    8.5403 C.ar      14 UNK        -0.0643 
     12 C12       -54.8588  -25.4696    9.7350 C.ar      14 UNK        -0.0930 
     13 C13       -54.7094  -26.6720   10.4318 C.ar      14 UNK        -0.0827 
     14 C14       -53.8481  -27.6540    9.9329 C.ar      14 UNK        -0.1249 
     15 C15       -55.4830  -26.9016   11.7219 C.3       14 UNK         0.0141 
     16 S16       -57.1460  -27.5634   11.3819 S.3       14 UNK        -0.2313 
     17 C17       -56.7884  -29.3362   11.1238 C.3       14 UNK        -0.0915 
     18 CA        -57.7059  -30.2738   11.9539 C.3       13 UNK         0.0968 
     19 C         -57.3665  -31.7646   11.6595 C.2       13 UNK         0.5732 
     20 N         -56.8360  -32.5287   12.6070 N.am      13 UNK        -0.7310 
     21 O         -57.5934  -32.2364   10.5477 O.2       13 UNK        -0.5035 
     22 N         -57.7199  -29.9006   13.3776 N.am      13 UNK        -0.4233 
     23 C         -58.5910  -30.3274   14.2975 C.2       13 UNK         0.4989 
     24 O         -59.4902  -31.1360   14.0601 O.2       13 UNK        -0.4996 
     25 CA        -58.4283  -29.7460   15.7197 C.3       12 UNK         0.0216 
     26 CB        -59.4013  -30.3792   16.7331 C.3       12 UNK        -0.1964 
     27 N         -57.0604  -29.8594   16.2427 N.am      12 UNK        -0.4276 
     28 C         -56.0191  -29.1045   15.8716 C.2       12 UNK         0.5020 
     29 O         -56.0833  -28.2376   14.9951 O.2       12 UNK        -0.5489 
     30 CA        -54.6823  -29.3894   16.5645 C.3       11 UNK         0.0294 
     31 CB        -54.0401  -30.6780   16.0201 C.3       11 UNK        -0.2019 
     32 N         -53.7873  -28.2652   16.3165 N.am      11 UNK        -0.4493 
     33 C         -52.8751  -27.7747   17.1577 C.2       11 UNK         0.4932 
     34 O         -52.6370  -28.2557   18.2672 O.2       11 UNK        -0.5029 
     35 CA        -52.0826  -26.5549   16.6506 C.3       10 UNK         0.0280 
     36 CB        -51.2569  -25.8783   17.7605 C.3       10 UNK        -0.1976 
     37 N         -51.1848  -26.9264   15.5572 N.am      10 UNK        -0.4242 
     38 C         -51.5400  -27.1688   14.2897 C.2       10 UNK         0.5072 
     39 O         -52.6973  -27.0672   13.8787 O.2       10 UNK        -0.5224 
     40 CA        -50.4067  -27.5970   13.3358 C.3       9 UNK         0.0343 
     41 CB        -50.9184  -27.9424   11.9256 C.3       9 UNK        -0.2003 
     42 N         -49.3684  -26.5714   13.2210 N.am      9 UNK        -0.4272 
     43 C         -48.4345  -26.2902   14.1398 C.2       9 UNK         0.4988 
     44 O         -48.3246  -26.8976   15.2060 O.2       9 UNK        -0.5108 
     45 CA        -47.4797  -25.1282   13.8334 C.3       8 UNK         0.0248 
     46 CB        -46.3076  -25.5951   12.9572 C.3       8 UNK        -0.2001 
     47 N         -48.1717  -24.0148   13.1812 N.am      8 UNK        -0.4140 
     48 C         -48.7544  -23.0008   13.8361 C.2       8 UNK         0.5028 
     49 O         -48.7274  -22.8720   15.0607 O.2       8 UNK        -0.5428 
     50 CA        -49.4862  -21.9402   12.9950 C.3       7 UNK         0.0264 
     51 CB        -48.5763  -20.7288   12.7360 C.3       7 UNK        -0.1988 
     52 N         -49.9774  -22.4597   11.7169 N.am      7 UNK        -0.4454 
     53 C         -51.0948  -23.1931   11.5877 C.2       7 UNK         0.5027 
     54 O         -51.8355  -23.4744   12.5299 O.2       7 UNK        -0.5083 
     55 CA        -51.4547  -23.6915   10.1712 C.3       6 UNK         0.0844 
     56 C56       -52.4145  -22.6757    9.4912 C.3       14 UNK        -0.0967 
     57 S57       -52.7423  -23.0181    7.7248 S.3       14 UNK        -0.2604 
     58 C58       -54.3146  -23.9333    7.7965 C.3       14 UNK         0.0134 
     59 N         -50.2863  -23.9841    9.3370 N.am      6 UNK        -0.4116 
     60 C         -49.2624  -24.7950    9.6301 C.2       5 UNK         0.5034 
     61 O         -49.1309  -25.3942   10.6970 O.2       5 UNK        -0.5045 
     62 CA        -48.1547  -24.9205    8.5743 C.3       5 UNK         0.0224 
     63 CB        -48.5866  -24.4951    7.1539 C.3       5 UNK        -0.1978 
     64 N         -46.9309  -24.2081    8.9560 N.am      5 UNK        -0.4737 
     65 C         -46.8035  -22.9413    9.3866 C.2       4 UNK         0.5027 
     66 O         -47.7505  -22.2018    9.6597 O.2       4 UNK        -0.5211 
     67 CA        -45.3685  -22.3941    9.5210 C.3       4 UNK         0.0297 
     68 CB        -44.8925  -22.4617   10.9797 C.3       4 UNK        -0.1993 
     69 N         -44.4019  -23.0965    8.6714 N.am      4 UNK        -0.4486 
     70 C         -44.3799  -23.0518    7.3323 C.2       3 UNK         0.4961 
     71 O         -45.0985  -22.3151    6.6562 O.2       3 UNK        -0.5105 
     72 CA        -43.4249  -24.0248    6.6175 C.3       3 UNK         0.0299 
     73 CB        -42.1805  -24.4084    7.4513 C.3       3 UNK        -0.1972 
     74 N         -44.1372  -25.2209    6.1487 N.am      3 UNK        -0.4305 
     75 C         -44.7999  -26.1160    6.8967 C.2       2 UNK         0.5006 
     76 O         -44.8812  -26.0699    8.1288 O.2       2 UNK        -0.5106 
     77 CA        -45.4883  -27.2577    6.1390 C.3       2 UNK         0.0296 
     78 CB        -44.4518  -28.2244    5.5316 C.3       2 UNK        -0.2002 
     79 N         -46.3564  -27.9754    7.0688 N.am      2 UNK        -0.4032 
     80 C         -47.3652  -28.7939    6.7471 C.2       1 UNK         0.5000 
     81 O         -47.6948  -29.0227    5.5812 O.2       1 UNK        -0.5238 
     82 H82       -47.3884  -28.1437   11.6017 H         1 UNK         0.0889 
     83 H83       -45.6343  -28.1698   11.3812 H         1 UNK         0.0889 
     84 H84       -46.4608  -29.5641   12.0826 H         1 UNK         0.0889 
     85 H85       -48.4323  -28.3560    9.6363 H         1 UNK         0.3028 
     86 H86       -47.7978  -30.5377    7.8400 H         1 UNK         0.0864 
     87 H87       -49.9296  -29.7993    6.6763 H         1 UNK         0.0720 
     88 H88       -50.0815  -30.2993    8.3311 H         1 UNK         0.0720 
     89 H89       -52.2794  -29.4200    8.8080 H         1 UNK         0.0814 
     90 H90       -52.5488  -28.8095    7.1910 H         1 UNK         0.0814 
     91 H91       -52.7903  -26.0847    7.1151 H         1 UNK         0.1469 
     92 H92       -55.5170  -24.7051   10.1245 H         1 UNK         0.1381 
     93 H93       -53.7225  -28.5799   10.4762 H         1 UNK         0.1206 
     94 H94       -55.5819  -25.9600   12.2638 H         1 UNK         0.0813 
     95 H95       -54.9386  -27.5717   12.3892 H         1 UNK         0.0813 
     96 H96       -55.7438  -29.5354   11.3671 H         1 UNK         0.0638 
     97 H97       -56.8951  -29.5410   10.0569 H         1 UNK         0.0638 
     98 H98       -58.7254  -30.1296   11.5916 H         1 UNK         0.0568 
     99 H99       -56.6570  -32.1539   13.5237 H         1 UNK         0.3450 
    100 H100      -56.6254  -33.4927   12.4030 H         1 UNK         0.3450 
    101 H101      -57.0257  -29.2191   13.6734 H         1 UNK         0.2987 
    102 H102      -58.6764  -28.6846   15.6489 H         1 UNK         0.0766 
    103 H103      -59.2216  -31.4484   16.8522 H         1 UNK         0.0798 
    104 H104      -59.3137  -29.9118   17.7141 H         1 UNK         0.0798 
    105 H105      -60.4369  -30.2560   16.4126 H         1 UNK         0.0798 
    106 H106      -56.9104  -30.5742   16.9410 H         1 UNK         0.3198 
    107 H107      -54.8653  -29.4885   17.6368 H         1 UNK         0.0843 
    108 H108      -54.6769  -31.5452   16.1980 H         1 UNK         0.0831 
    109 H109      -53.0836  -30.8771   16.5037 H         1 UNK         0.0831 
    110 H110      -53.8634  -30.6155   14.9453 H         1 UNK         0.0831 
    111 H111      -53.9239  -27.8016   15.4209 H         1 UNK         0.3133 
    112 H112      -52.8029  -25.8230   16.2787 H         1 UNK         0.0566 
    113 H113      -51.8950  -25.5727   18.5907 H         1 UNK         0.0814 
    114 H114      -50.7559  -24.9831   17.3908 H         1 UNK         0.0814 
    115 H115      -50.4940  -26.5463   18.1625 H         1 UNK         0.0814 
    116 H116      -50.1999  -27.0263   15.7853 H         1 UNK         0.3091 
    117 H117      -49.9575  -28.5002   13.7540 H         1 UNK         0.0702 
    118 H118      -51.3629  -27.0745   11.4358 H         1 UNK         0.0785 
    119 H119      -51.6794  -28.7224   11.9644 H         1 UNK         0.0785 
    120 H120      -50.1140  -28.3079   11.2885 H         1 UNK         0.0785 
    121 H121      -49.3699  -26.0377   12.3537 H         1 UNK         0.2998 
    122 H122      -47.0630  -24.7928   14.7857 H         1 UNK         0.0697 
    123 H123      -46.6133  -25.7821   11.9273 H         1 UNK         0.0825 
    124 H124      -45.8670  -26.5138   13.3469 H         1 UNK         0.0825 
    125 H125      -45.5161  -24.8481   12.9445 H         1 UNK         0.0825 
    126 H126      -48.3016  -24.0836   12.1796 H         1 UNK         0.3029 
    127 H127      -50.3406  -21.5955   13.5822 H         1 UNK         0.0897 
    128 H128      -49.1129  -19.9350   12.2163 H         1 UNK         0.0792 
    129 H129      -48.2069  -20.3098   13.6731 H         1 UNK         0.0792 
    130 H130      -47.7087  -20.9948   12.1331 H         1 UNK         0.0792 
    131 H131      -49.3988  -22.2885   10.8985 H         1 UNK         0.3086 
    132 H132      -51.9842  -24.6380   10.2945 H         1 UNK         0.0583 
    133 H133      -53.3623  -22.6326   10.0316 H         1 UNK         0.1020 
    134 H134      -51.9986  -21.6671    9.5426 H         1 UNK         0.1020 
    135 H135      -55.0772  -23.3031    8.2569 H         1 UNK         0.0694 
    136 H136      -54.6537  -24.1342    6.7794 H         1 UNK         0.0694 
    137 H137      -50.2828  -23.5277    8.4368 H         1 UNK         0.2989 
    138 H138      -47.9019  -25.9803    8.5371 H         1 UNK         0.1055 
    139 H139      -49.4938  -25.0159    6.8427 H         1 UNK         0.0806 
    140 H140      -47.8145  -24.7414    6.4250 H         1 UNK         0.0806 
    141 H141      -48.7706  -23.4225    7.0810 H         1 UNK         0.0806 
    142 H142      -46.0734  -24.7334    8.8040 H         1 UNK         0.3061 
    143 H143      -45.3938  -21.3458    9.2161 H         1 UNK         0.0734 
    144 H144      -45.6197  -22.0149   11.6581 H         1 UNK         0.0832 
    145 H145      -44.7335  -23.4905   11.2993 H         1 UNK         0.0832 
    146 H146      -43.9543  -21.9230   11.1133 H         1 UNK         0.0832 
    147 H147      -43.7932  -23.7613    9.1273 H         1 UNK         0.3156 
    148 H148      -43.0695  -23.5057    5.7258 H         1 UNK         0.0589 
    149 H149      -42.4254  -25.0117    8.3257 H         1 UNK         0.0808 
    150 H150      -41.4739  -24.9812    6.8506 H         1 UNK         0.0808 
    151 H151      -41.6537  -23.5191    7.8005 H         1 UNK         0.0808 
    152 H152      -44.1593  -25.3377    5.1448 H         1 UNK         0.3098 
    153 H153      -46.1001  -26.8218    5.3464 H         1 UNK         0.0720 
    154 H154      -44.9336  -29.0295    4.9766 H         1 UNK         0.0791 
    155 H155      -43.8287  -28.6789    6.3032 H         1 UNK         0.0791 
    156 H156      -43.7877  -27.7118    4.8349 H         1 UNK         0.0791 
    157 H157      -46.1384  -27.8129    8.0439 H         1 UNK         0.3028 
@<TRIPOS>BOND
     1    1    2 1    
     2    1   82 1    
     3    1   83 1    
     4    1   84 1    
     5    2    3 2    
     6    2    4 am   BACKBONE|DICT|INTERRES
     7    4    5 1    
     8    4   85 1    
     9    5    6 1    
    10    5   80 1    
    11    5   86 1    
    12    6    7 1    
    13    6   87 1    
    14    6   88 1    
    15    7    8 1    
    16    8    9 1    
    17    8   89 1    
    18    8   90 1    
    19    9   10 ar   
    20    9   14 ar   
    21   10   11 ar   
    22   10   91 1    
    23   11   12 ar   
    24   11   58 1    
    25   12   13 ar   
    26   12   92 1    
    27   13   14 ar   
    28   13   15 1    
    29   14   93 1    
    30   15   16 1    
    31   15   94 1    
    32   15   95 1    
    33   16   17 1    
    34   17   18 1    
    35   17   96 1    
    36   17   97 1    
    37   18   19 1    
    38   18   22 1    
    39   18   98 1    
    40   19   20 am   BACKBONE|DICT|INTERRES
    41   19   21 2    
    42   20   99 1    
    43   20  100 1    
    44   22   23 am   BACKBONE|DICT|INTERRES
    45   22  101 1    
    46   23   24 2    
    47   23   25 1    
    48   25   26 1    
    49   25   27 1    
    50   25  102 1    
    51   26  103 1    
    52   26  104 1    
    53   26  105 1    
    54   27   28 am   BACKBONE|DICT|INTERRES
    55   27  106 1    
    56   28   29 2    
    57   28   30 1    
    58   30   31 1    
    59   30   32 1    
    60   30  107 1    
    61   31  108 1    
    62   31  109 1    
    63   31  110 1    
    64   32   33 am   BACKBONE|DICT|INTERRES
    65   32  111 1    
    66   33   34 2    
    67   33   35 1    
    68   35   36 1    
    69   35   37 1    
    70   35  112 1    
    71   36  113 1    
    72   36  114 1    
    73   36  115 1    
    74   37   38 am   BACKBONE|DICT|INTERRES
    75   37  116 1    
    76   38   39 2    
    77   38   40 1    
    78   40   41 1    
    79   40   42 1    
    80   40  117 1    
    81   41  118 1    
    82   41  119 1    
    83   41  120 1    
    84   42   43 am   BACKBONE|DICT|INTERRES
    85   42  121 1    
    86   43   44 2    
    87   43   45 1    
    88   45   46 1    
    89   45   47 1    
    90   45  122 1    
    91   46  123 1    
    92   46  124 1    
    93   46  125 1    
    94   47   48 am   BACKBONE|DICT|INTERRES
    95   47  126 1    
    96   48   49 2    
    97   48   50 1    
    98   50   51 1    
    99   50   52 1    
   100   50  127 1    
   101   51  128 1    
   102   51  129 1    
   103   51  130 1    
   104   52   53 am   BACKBONE|DICT|INTERRES
   105   52  131 1    
   106   53   54 2    
   107   53   55 1    
   108   55   56 1    
   109   55   59 1    
   110   55  132 1    
   111   56   57 1    
   112   56  133 1    
   113   56  134 1    
   114   57   58 1    
   115   58  135 1    
   116   58  136 1    
   117   59   60 am   BACKBONE|DICT|INTERRES
   118   59  137 1    
   119   60   61 2    
   120   60   62 1    
   121   62   63 1    
   122   62   64 1    
   123   62  138 1    
   124   63  139 1    
   125   63  140 1    
   126   63  141 1    
   127   64   65 am   BACKBONE|DICT|INTERRES
   128   64  142 1    
   129   65   66 2    
   130   65   67 1    
   131   67   68 1    
   132   67   69 1    
   133   67  143 1    
   134   68  144 1    
   135   68  145 1    
   136   68  146 1    
   137   69   70 am   BACKBONE|DICT|INTERRES
   138   69  147 1    
   139   70   71 2    
   140   70   72 1    
   141   72   73 1    
   142   72   74 1    
   143   72  148 1    
   144   73  149 1    
   145   73  150 1    
   146   73  151 1    
   147   74   75 am   BACKBONE|DICT|INTERRES
   148   74  152 1    
   149   75   76 2    
   150   75   77 1    
   151   77   78 1    
   152   77   79 1    
   153   77  153 1    
   154   78  154 1    
   155   78  155 1    
   156   78  156 1    
   157   79   80 am   BACKBONE|DICT|INTERRES
   158   79  157 1    
   159   80   81 2    
@<TRIPOS>SUBSTRUCTURE
     1 UNK         1 GROUP             0       ****    0 ROOT    
