@<TRIPOS>MOLECULE
3R207
157   159    1
SMALL
USER_CHARGES


@<TRIPOS>ATOM
      1 CA        -46.8965  -29.8718    0.5204 C.3       0 UNK        -0.1975 
      2 C         -48.0308  -29.2052    1.2850 C.2       0 UNK         0.4852 
      3 O         -48.8192  -28.4693    0.6900 O.2       0 UNK        -0.5216 
      4 N         -48.1165  -29.4549    2.5963 N.am      1 UNK        -0.4461 
      5 CA        -49.1291  -28.9020    3.4943 C.3       1 UNK         0.0864 
      6 C6        -50.4230  -29.7605    3.5067 C.3       14 UNK        -0.0898 
      7 S7        -51.8472  -28.8673    4.2150 S.3       14 UNK        -0.2598 
      8 C8        -52.1647  -29.8622    5.7047 C.3       14 UNK         0.0286 
      9 C9        -53.1467  -29.1659    6.6308 C.ar      14 UNK        -0.0844 
     10 C10       -52.6969  -28.1667    7.4969 C.ar      14 UNK        -0.0881 
     11 C11       -53.5852  -27.5315    8.3684 C.ar      14 UNK        -0.0643 
     12 C12       -54.9370  -27.8903    8.3586 C.ar      14 UNK        -0.0930 
     13 C13       -55.3956  -28.9009    7.5066 C.ar      14 UNK        -0.0827 
     14 C14       -54.4954  -29.5303    6.6405 C.ar      14 UNK        -0.1249 
     15 C15       -56.8588  -29.3312    7.5190 C.3       14 UNK         0.0141 
     16 S16       -57.4640  -29.8316    9.1684 S.3       14 UNK        -0.2313 
     17 C17       -56.2097  -31.0427    9.7247 C.3       14 UNK        -0.0915 
     18 CA        -55.7974  -30.8444   11.2096 C.3       13 UNK         0.0968 
     19 C         -54.7098  -31.8743   11.6315 C.2       13 UNK         0.5732 
     20 N         -53.5143  -31.4560   12.0303 N.am      13 UNK        -0.7310 
     21 O         -54.9607  -33.0770   11.6050 O.2       13 UNK        -0.5035 
     22 N         -55.4705  -29.4406   11.5191 N.am      13 UNK        -0.4233 
     23 C         -55.5699  -28.8987   12.7379 C.2       13 UNK         0.4989 
     24 O         -55.8727  -29.5318   13.7539 O.2       13 UNK        -0.4996 
     25 CA        -55.3276  -27.3880   12.8386 C.3       12 UNK         0.0216 
     26 CB        -56.5318  -26.5965   12.2914 C.3       12 UNK        -0.1964 
     27 N         -55.0917  -27.0615   14.2421 N.am      12 UNK        -0.4276 
     28 C         -54.5400  -25.9427   14.7211 C.2       12 UNK         0.5020 
     29 O         -54.2266  -24.9809   14.0175 O.2       12 UNK        -0.5489 
     30 CA        -54.3042  -25.8830   16.2391 C.3       11 UNK         0.0294 
     31 CB        -53.9109  -27.2449   16.8522 C.3       11 UNK        -0.2019 
     32 N         -53.2558  -24.9085   16.5303 N.am      11 UNK        -0.4493 
     33 C         -53.1827  -24.1454   17.6263 C.2       11 UNK         0.4932 
     34 O         -54.0459  -24.1187   18.5060 O.2       11 UNK        -0.5029 
     35 CA        -51.8965  -23.3086   17.7675 C.3       10 UNK         0.0280 
     36 CB        -51.7987  -22.5454   19.1054 C.3       10 UNK        -0.1976 
     37 N         -50.7061  -24.1339   17.5341 N.am      10 UNK        -0.4242 
     38 C         -50.3090  -25.2156   18.2235 C.2       10 UNK         0.5072 
     39 O         -50.8229  -25.5958   19.2765 O.2       10 UNK        -0.5224 
     40 CA        -49.1613  -26.0463   17.6201 C.3       9 UNK         0.0343 
     41 CB        -49.7319  -27.2817   16.9036 C.3       9 UNK        -0.2003 
     42 N         -48.3209  -25.2957   16.6830 N.am      9 UNK        -0.4272 
     43 C         -47.4521  -24.3399   17.0428 C.2       9 UNK         0.4988 
     44 O         -47.2190  -24.0304   18.2119 O.2       9 UNK        -0.5108 
     45 CA        -46.7355  -23.5875   15.9089 C.3       8 UNK         0.0248 
     46 CB        -45.5305  -24.3956   15.4015 C.3       8 UNK        -0.2001 
     47 N         -47.6201  -23.2563   14.7873 N.am      8 UNK        -0.4140 
     48 C         -48.6730  -22.4280   14.8635 C.2       8 UNK         0.5028 
     49 O         -48.9971  -21.8219   15.8846 O.2       8 UNK        -0.5428 
     50 CA        -49.5385  -22.2763   13.6009 C.3       7 UNK         0.0264 
     51 CB        -48.8819  -21.3202   12.5926 C.3       7 UNK        -0.1988 
     52 N         -49.8308  -23.5561   12.9529 N.am      7 UNK        -0.4454 
     53 C         -50.5294  -24.5546   13.5159 C.2       7 UNK         0.5027 
     54 O         -51.0306  -24.5002   14.6397 O.2       7 UNK        -0.5083 
     55 CA        -50.6512  -25.8496   12.6926 C.3       6 UNK         0.0844 
     56 C56       -51.7528  -25.6851   11.6181 C.3       14 UNK        -0.0967 
     57 S57       -52.0365  -27.1822   10.6269 S.3       14 UNK        -0.2604 
     58 C58       -53.0761  -26.4619    9.3183 C.3       14 UNK         0.0134 
     59 N         -49.3525  -26.2383   12.1322 N.am      6 UNK        -0.4116 
     60 C         -48.2693  -26.5640   12.8542 C.2       5 UNK         0.5034 
     61 O         -48.2552  -26.6304   14.0827 O.2       5 UNK        -0.5045 
     62 CA        -46.9634  -26.7998   12.0784 C.3       5 UNK         0.0224 
     63 CB        -46.9084  -28.2339   11.5298 C.3       5 UNK        -0.1978 
     64 N         -46.7844  -25.8395   10.9859 N.am      5 UNK        -0.4737 
     65 C         -46.5886  -24.5233   11.1693 C.2       4 UNK         0.5027 
     66 O         -46.4678  -24.0052   12.2779 O.2       4 UNK        -0.5211 
     67 CA        -46.5808  -23.6195    9.9211 C.3       4 UNK         0.0297 
     68 CB        -45.1475  -23.4431    9.3970 C.3       4 UNK        -0.1993 
     69 N         -47.4364  -24.1204    8.8435 N.am      4 UNK        -0.4486 
     70 C         -48.7528  -24.3480    8.9534 C.2       3 UNK         0.4961 
     71 O         -49.4152  -23.9982    9.9306 O.2       3 UNK        -0.5105 
     72 CA        -49.4352  -25.1535    7.8278 C.3       3 UNK         0.0299 
     73 CB        -50.3844  -24.2574    7.0175 C.3       3 UNK        -0.1972 
     74 N         -48.5160  -25.8446    6.9101 N.am      3 UNK        -0.4305 
     75 C         -47.6341  -26.7968    7.2541 C.2       2 UNK         0.5006 
     76 O         -47.4795  -27.1927    8.4108 O.2       2 UNK        -0.5106 
     77 CA        -46.7533  -27.3503    6.1165 C.3       2 UNK         0.0296 
     78 CB        -45.8144  -28.4867    6.5780 C.3       2 UNK        -0.2002 
     79 N         -47.5337  -27.7478    4.9365 N.am      2 UNK        -0.4032 
     80 C         -48.4675  -28.7104    4.8711 C.2       1 UNK         0.5000 
     81 O         -48.7604  -29.4513    5.8104 O.2       1 UNK        -0.5238 
     82 H82       -47.2985  -30.5016   -0.2727 H         1 UNK         0.0889 
     83 H83       -46.2786  -30.4947    1.1670 H         1 UNK         0.0889 
     84 H84       -46.2564  -29.1167    0.0649 H         1 UNK         0.0889 
     85 H85       -47.4321  -30.0541    3.0393 H         1 UNK         0.3028 
     86 H86       -49.3952  -27.9029    3.1403 H         1 UNK         0.0864 
     87 H87       -50.7002  -30.0209    2.4841 H         1 UNK         0.0720 
     88 H88       -50.2652  -30.7121    4.0178 H         1 UNK         0.0720 
     89 H89       -51.2335  -30.0427    6.2419 H         1 UNK         0.0814 
     90 H90       -52.5426  -30.8424    5.4098 H         1 UNK         0.0814 
     91 H91       -51.6510  -27.8894    7.4998 H         1 UNK         0.1469 
     92 H92       -55.6332  -27.3945    9.0207 H         1 UNK         0.1381 
     93 H93       -54.8418  -30.3103    5.9761 H         1 UNK         0.1206 
     94 H94       -57.4727  -28.5068    7.1542 H         1 UNK         0.0813 
     95 H95       -57.0220  -30.1613    6.8299 H         1 UNK         0.0813 
     96 H96       -56.6284  -32.0401    9.5796 H         1 UNK         0.0638 
     97 H97       -55.3288  -30.9955    9.0843 H         1 UNK         0.0638 
     98 H98       -56.6757  -31.0998   11.8059 H         1 UNK         0.0568 
     99 H99       -52.8216  -32.1339   12.3054 H         1 UNK         0.3450 
    100 H100      -53.2970  -30.4732   12.0501 H         1 UNK         0.3450 
    101 H101      -55.2022  -28.8694   10.7322 H         1 UNK         0.2987 
    102 H102      -54.4345  -27.1427   12.2646 H         1 UNK         0.0766 
    103 H103      -56.3496  -25.5222   12.3192 H         1 UNK         0.0798 
    104 H104      -57.4370  -26.7967   12.8659 H         1 UNK         0.0798 
    105 H105      -56.7403  -26.8583   11.2535 H         1 UNK         0.0798 
    106 H106      -55.3124  -27.8256   14.8708 H         1 UNK         0.3198 
    107 H107      -55.2421  -25.5489   16.6877 H         1 UNK         0.0843 
    108 H108      -53.0378  -27.6714   16.3564 H         1 UNK         0.0831 
    109 H109      -54.7226  -27.9695   16.7820 H         1 UNK         0.0831 
    110 H110      -53.6713  -27.1464   17.9114 H         1 UNK         0.0831 
    111 H111      -52.5420  -24.8043   15.8104 H         1 UNK         0.3133 
    112 H112      -51.9164  -22.5695   16.9651 H         1 UNK         0.0566 
    113 H113      -50.8794  -21.9624   19.1607 H         1 UNK         0.0814 
    114 H114      -52.6317  -21.8504   19.2173 H         1 UNK         0.0814 
    115 H115      -51.8218  -23.2186   19.9628 H         1 UNK         0.0814 
    116 H116      -50.2349  -23.9553   16.6556 H         1 UNK         0.3091 
    117 H117      -48.5329  -26.3886   18.4450 H         1 UNK         0.0702 
    118 H118      -50.3467  -27.8786   17.5787 H         1 UNK         0.0785 
    119 H119      -50.3573  -27.0001   16.0551 H         1 UNK         0.0785 
    120 H120      -48.9362  -27.9279   16.5325 H         1 UNK         0.0785 
    121 H121      -48.4020  -25.5451   15.7007 H         1 UNK         0.2998 
    122 H122      -46.3628  -22.6475   16.3212 H         1 UNK         0.0697 
    123 H123      -45.8392  -25.3358   14.9436 H         1 UNK         0.0825 
    124 H124      -44.8492  -24.6373   16.2183 H         1 UNK         0.0825 
    125 H125      -44.9612  -23.8346   14.6601 H         1 UNK         0.0825 
    126 H126      -47.3793  -23.6609   13.8847 H         1 UNK         0.3029 
    127 H127      -50.4928  -21.8419   13.9071 H         1 UNK         0.0897 
    128 H128      -49.5071  -21.1816   11.7102 H         1 UNK         0.0792 
    129 H129      -47.9101  -21.6851   12.2607 H         1 UNK         0.0792 
    130 H130      -48.7243  -20.3365   13.0369 H         1 UNK         0.0792 
    131 H131      -49.4833  -23.6855   12.0079 H         1 UNK         0.3086 
    132 H132      -50.9613  -26.6431   13.3760 H         1 UNK         0.0583 
    133 H133      -52.6997  -25.4185   12.0855 H         1 UNK         0.1020 
    134 H134      -51.5237  -24.8594   10.9446 H         1 UNK         0.1020 
    135 H135      -53.9101  -25.9263    9.7751 H         1 UNK         0.0694 
    136 H136      -52.5014  -25.7228    8.7589 H         1 UNK         0.0694 
    137 H137      -49.2663  -26.1819   11.1282 H         1 UNK         0.2989 
    138 H138      -46.1351  -26.6705   12.7786 H         1 UNK         0.1055 
    139 H139      -46.9858  -28.9628   12.3377 H         1 UNK         0.0806 
    140 H140      -45.9696  -28.4242   11.0094 H         1 UNK         0.0806 
    141 H141      -47.7229  -28.4332   10.8321 H         1 UNK         0.0806 
    142 H142      -46.9031  -26.1982   10.0421 H         1 UNK         0.3061 
    143 H143      -46.9621  -22.6407   10.2180 H         1 UNK         0.0734 
    144 H144      -45.1119  -22.7426    8.5625 H         1 UNK         0.0832 
    145 H145      -44.4949  -23.0478   10.1770 H         1 UNK         0.0832 
    146 H146      -44.7190  -24.3890    9.0630 H         1 UNK         0.0832 
    147 H147      -46.9737  -24.4297    8.0022 H         1 UNK         0.3156 
    148 H148      -50.0341  -25.9230    8.3187 H         1 UNK         0.0589 
    149 H149      -49.8418  -23.4891    6.4656 H         1 UNK         0.0808 
    150 H150      -50.9673  -24.8397    6.3034 H         1 UNK         0.0808 
    151 H151      -51.0946  -23.7479    7.6707 H         1 UNK         0.0808 
    152 H152      -48.5665  -25.5715    5.9391 H         1 UNK         0.3098 
    153 H153      -46.1197  -26.5215    5.7971 H         1 UNK         0.0720 
    154 H154      -45.1871  -28.8409    5.7601 H         1 UNK         0.0791 
    155 H155      -46.3682  -29.3400    6.9707 H         1 UNK         0.0791 
    156 H156      -45.1486  -28.1435    7.3710 H         1 UNK         0.0791 
    157 H157      -47.3470  -27.2203    4.0942 H         1 UNK         0.3028 
@<TRIPOS>BOND
     1    1    2 1    
     2    1   82 1    
     3    1   83 1    
     4    1   84 1    
     5    2    3 2    
     6    2    4 am   BACKBONE|DICT|INTERRES
     7    4    5 1    
     8    4   85 1    
     9    5    6 1    
    10    5   80 1    
    11    5   86 1    
    12    6    7 1    
    13    6   87 1    
    14    6   88 1    
    15    7    8 1    
    16    8    9 1    
    17    8   89 1    
    18    8   90 1    
    19    9   10 ar   
    20    9   14 ar   
    21   10   11 ar   
    22   10   91 1    
    23   11   12 ar   
    24   11   58 1    
    25   12   13 ar   
    26   12   92 1    
    27   13   14 ar   
    28   13   15 1    
    29   14   93 1    
    30   15   16 1    
    31   15   94 1    
    32   15   95 1    
    33   16   17 1    
    34   17   18 1    
    35   17   96 1    
    36   17   97 1    
    37   18   19 1    
    38   18   22 1    
    39   18   98 1    
    40   19   20 am   BACKBONE|DICT|INTERRES
    41   19   21 2    
    42   20   99 1    
    43   20  100 1    
    44   22   23 am   BACKBONE|DICT|INTERRES
    45   22  101 1    
    46   23   24 2    
    47   23   25 1    
    48   25   26 1    
    49   25   27 1    
    50   25  102 1    
    51   26  103 1    
    52   26  104 1    
    53   26  105 1    
    54   27   28 am   BACKBONE|DICT|INTERRES
    55   27  106 1    
    56   28   29 2    
    57   28   30 1    
    58   30   31 1    
    59   30   32 1    
    60   30  107 1    
    61   31  108 1    
    62   31  109 1    
    63   31  110 1    
    64   32   33 am   BACKBONE|DICT|INTERRES
    65   32  111 1    
    66   33   34 2    
    67   33   35 1    
    68   35   36 1    
    69   35   37 1    
    70   35  112 1    
    71   36  113 1    
    72   36  114 1    
    73   36  115 1    
    74   37   38 am   BACKBONE|DICT|INTERRES
    75   37  116 1    
    76   38   39 2    
    77   38   40 1    
    78   40   41 1    
    79   40   42 1    
    80   40  117 1    
    81   41  118 1    
    82   41  119 1    
    83   41  120 1    
    84   42   43 am   BACKBONE|DICT|INTERRES
    85   42  121 1    
    86   43   44 2    
    87   43   45 1    
    88   45   46 1    
    89   45   47 1    
    90   45  122 1    
    91   46  123 1    
    92   46  124 1    
    93   46  125 1    
    94   47   48 am   BACKBONE|DICT|INTERRES
    95   47  126 1    
    96   48   49 2    
    97   48   50 1    
    98   50   51 1    
    99   50   52 1    
   100   50  127 1    
   101   51  128 1    
   102   51  129 1    
   103   51  130 1    
   104   52   53 am   BACKBONE|DICT|INTERRES
   105   52  131 1    
   106   53   54 2    
   107   53   55 1    
   108   55   56 1    
   109   55   59 1    
   110   55  132 1    
   111   56   57 1    
   112   56  133 1    
   113   56  134 1    
   114   57   58 1    
   115   58  135 1    
   116   58  136 1    
   117   59   60 am   BACKBONE|DICT|INTERRES
   118   59  137 1    
   119   60   61 2    
   120   60   62 1    
   121   62   63 1    
   122   62   64 1    
   123   62  138 1    
   124   63  139 1    
   125   63  140 1    
   126   63  141 1    
   127   64   65 am   BACKBONE|DICT|INTERRES
   128   64  142 1    
   129   65   66 2    
   130   65   67 1    
   131   67   68 1    
   132   67   69 1    
   133   67  143 1    
   134   68  144 1    
   135   68  145 1    
   136   68  146 1    
   137   69   70 am   BACKBONE|DICT|INTERRES
   138   69  147 1    
   139   70   71 2    
   140   70   72 1    
   141   72   73 1    
   142   72   74 1    
   143   72  148 1    
   144   73  149 1    
   145   73  150 1    
   146   73  151 1    
   147   74   75 am   BACKBONE|DICT|INTERRES
   148   74  152 1    
   149   75   76 2    
   150   75   77 1    
   151   77   78 1    
   152   77   79 1    
   153   77  153 1    
   154   78  154 1    
   155   78  155 1    
   156   78  156 1    
   157   79   80 am   BACKBONE|DICT|INTERRES
   158   79  157 1    
   159   80   81 2    
@<TRIPOS>SUBSTRUCTURE
     1 UNK         1 GROUP             0       ****    0 ROOT    
