@<TRIPOS>MOLECULE
3R207
157   159    1
SMALL
USER_CHARGES


@<TRIPOS>ATOM
      1 CA        -46.8589  -30.7914    8.0804 C.3       0 UNK        -0.1975 
      2 C         -47.2762  -30.3664    6.6802 C.2       0 UNK         0.4852 
      3 O         -46.4441  -30.3483    5.7728 O.2       0 UNK        -0.5216 
      4 N         -48.5599  -30.0272    6.5002 N.am      1 UNK        -0.4461 
      5 CA        -49.1416  -29.5839    5.2261 C.3       1 UNK         0.0864 
      6 C6        -50.6893  -29.6274    5.2518 C.3       14 UNK        -0.0898 
      7 S7        -51.3648  -31.3190    5.3984 S.3       14 UNK        -0.2598 
      8 C8        -51.6309  -31.5381    7.1911 C.3       14 UNK         0.0286 
      9 C9        -52.4829  -30.4369    7.8070 C.ar      14 UNK        -0.0844 
     10 C10       -51.9012  -29.4966    8.6641 C.ar      14 UNK        -0.0881 
     11 C11       -52.6722  -28.4742    9.2213 C.ar      14 UNK        -0.0643 
     12 C12       -54.0347  -28.4016    8.9242 C.ar      14 UNK        -0.0930 
     13 C13       -54.6374  -29.3522    8.0954 C.ar      14 UNK        -0.0827 
     14 C14       -53.8518  -30.3619    7.5288 C.ar      14 UNK        -0.1249 
     15 C15       -56.1310  -29.2582    7.8030 C.3       14 UNK         0.0141 
     16 S16       -57.0680  -30.7946    8.1246 S.3       14 UNK        -0.2313 
     17 C17       -56.4605  -31.4071    9.7357 C.3       14 UNK        -0.0915 
     18 CA        -57.0495  -30.6623   10.9630 C.3       13 UNK         0.0968 
     19 C         -56.9040  -31.5351   12.2418 C.2       13 UNK         0.5732 
     20 N         -57.9280  -32.3023   12.5896 N.am      13 UNK        -0.7310 
     21 O         -55.8594  -31.5544   12.8908 O.2       13 UNK        -0.5035 
     22 N         -56.4186  -29.3445   11.1121 N.am      13 UNK        -0.4233 
     23 C         -56.7333  -28.4242   12.0305 C.2       13 UNK         0.4989 
     24 O         -57.6810  -28.5124   12.8154 O.2       13 UNK        -0.4996 
     25 CA        -55.8409  -27.1802   12.0645 C.3       12 UNK         0.0216 
     26 CB        -56.4230  -26.0491   11.1994 C.3       12 UNK        -0.1964 
     27 N         -55.7103  -26.7291   13.4465 N.am      12 UNK        -0.4276 
     28 C         -54.5696  -26.3272   14.0151 C.2       12 UNK         0.5020 
     29 O         -53.4966  -26.2229   13.4145 O.2       12 UNK        -0.5489 
     30 CA        -54.6312  -26.0169   15.5151 C.3       11 UNK         0.0294 
     31 CB        -54.7505  -27.3161   16.3378 C.3       11 UNK        -0.2019 
     32 N         -53.4162  -25.3000   15.8889 N.am      11 UNK        -0.4493 
     33 C         -53.2195  -24.6065   17.0162 C.2       11 UNK         0.4932 
     34 O         -54.0870  -24.4390   17.8755 O.2       11 UNK        -0.5029 
     35 CA        -51.8096  -24.0146   17.2115 C.3       10 UNK         0.0280 
     36 CB        -51.5374  -23.5342   18.6527 C.3       10 UNK        -0.1976 
     37 N         -50.7627  -24.9309   16.7472 N.am      10 UNK        -0.4242 
     38 C         -50.4689  -26.1528   17.2174 C.2       10 UNK         0.5072 
     39 O         -50.9879  -26.6603   18.2125 O.2       10 UNK        -0.5224 
     40 CA        -49.4302  -26.9642   16.4225 C.3       9 UNK         0.0343 
     41 CB        -50.1365  -27.8291   15.3649 C.3       9 UNK        -0.2003 
     42 N         -48.4177  -26.1302   15.7684 N.am      9 UNK        -0.4272 
     43 C         -47.4651  -25.4423   16.4149 C.2       9 UNK         0.4988 
     44 O         -47.2948  -25.4863   17.6340 O.2       9 UNK        -0.5108 
     45 CA        -46.5556  -24.5407   15.5618 C.3       8 UNK         0.0248 
     46 CB        -45.4424  -25.3639   14.8940 C.3       8 UNK        -0.2001 
     47 N         -47.2942  -23.7825   14.5474 N.am      8 UNK        -0.4140 
     48 C         -48.1936  -22.8255   14.8238 C.2       8 UNK         0.5028 
     49 O         -48.4523  -22.4345   15.9622 O.2       8 UNK        -0.5428 
     50 CA        -48.9599  -22.2179   13.6367 C.3       7 UNK         0.0264 
     51 CB        -48.1249  -21.1263   12.9488 C.3       7 UNK        -0.1988 
     52 N         -49.3758  -23.2181   12.6510 N.am      7 UNK        -0.4454 
     53 C         -50.2324  -24.2213   12.8942 C.2       7 UNK         0.5027 
     54 O         -50.8044  -24.3793   13.9724 O.2       7 UNK        -0.5083 
     55 CA        -50.4459  -25.2494   11.7654 C.3       6 UNK         0.0844 
     56 C56       -51.4942  -24.7423   10.7433 C.3       14 UNK        -0.0967 
     57 S57       -51.7882  -25.8574    9.3258 S.3       14 UNK        -0.2604 
     58 C58       -52.0430  -27.4547   10.1560 C.3       14 UNK         0.0134 
     59 N         -49.1782  -25.6373   11.1398 N.am      6 UNK        -0.4116 
     60 C         -48.1812  -26.2709   11.7735 C.2       5 UNK         0.5034 
     61 O         -48.2368  -26.6449   12.9440 O.2       5 UNK        -0.5045 
     62 CA        -46.8788  -26.4682   10.9866 C.3       5 UNK         0.0224 
     63 CB        -46.9539  -27.7203   10.0975 C.3       5 UNK        -0.1978 
     64 N         -46.5582  -25.2887   10.1797 N.am      5 UNK        -0.4737 
     65 C         -46.1483  -24.1217   10.6995 C.2       4 UNK         0.5027 
     66 O         -45.9525  -23.9437   11.9013 O.2       4 UNK        -0.5211 
     67 CA        -45.9694  -22.9438    9.7261 C.3       4 UNK         0.0297 
     68 CB        -44.5664  -22.9717    9.1003 C.3       4 UNK        -0.1993 
     69 N         -46.9793  -22.9204    8.6655 N.am      4 UNK        -0.4486 
     70 C         -48.2949  -22.7616    8.8691 C.2       3 UNK         0.4961 
     71 O         -48.7948  -22.5509    9.9727 O.2       3 UNK        -0.5105 
     72 CA        -49.2167  -22.9108    7.6466 C.3       3 UNK         0.0299 
     73 CB        -49.4853  -21.5395    7.0076 C.3       3 UNK        -0.1972 
     74 N         -48.7140  -23.8392    6.6266 N.am      3 UNK        -0.4305 
     75 C         -48.4572  -25.1378    6.8336 C.2       2 UNK         0.5006 
     76 O         -48.5572  -25.6969    7.9291 O.2       2 UNK        -0.5106 
     77 CA        -47.9500  -25.9329    5.6292 C.3       2 UNK         0.0296 
     78 CB        -46.4171  -25.8468    5.5238 C.3       2 UNK        -0.2002 
     79 N         -48.3541  -27.3228    5.8016 N.am      2 UNK        -0.4032 
     80 C         -48.6604  -28.1749    4.8158 C.2       1 UNK         0.5000 
     81 O         -48.5848  -27.8896    3.6187 O.2       1 UNK        -0.5238 
     82 H82       -46.5708  -31.8422    8.0817 H         1 UNK         0.0889 
     83 H83       -47.6615  -30.6579    8.8054 H         1 UNK         0.0889 
     84 H84       -46.0027  -30.2043    8.4112 H         1 UNK         0.0889 
     85 H85       -49.1996  -30.0781    7.2771 H         1 UNK         0.3028 
     86 H86       -48.7976  -30.2697    4.4485 H         1 UNK         0.0864 
     87 H87       -51.0856  -28.9835    6.0373 H         1 UNK         0.0720 
     88 H88       -51.0892  -29.2240    4.3192 H         1 UNK         0.0720 
     89 H89       -50.6656  -31.6118    7.6928 H         1 UNK         0.0814 
     90 H90       -52.1226  -32.4983    7.3535 H         1 UNK         0.0814 
     91 H91       -50.8471  -29.5529    8.8959 H         1 UNK         0.1469 
     92 H92       -54.6189  -27.5900    9.3328 H         1 UNK         0.1381 
     93 H93       -54.3060  -31.0909    6.8715 H         1 UNK         0.1206 
     94 H94       -56.2628  -28.9869    6.7548 H         1 UNK         0.0813 
     95 H95       -56.5894  -28.4532    8.3790 H         1 UNK         0.0813 
     96 H96       -55.3698  -31.4018    9.7577 H         1 UNK         0.0638 
     97 H97       -56.7421  -32.4617    9.7657 H         1 UNK         0.0638 
     98 H98       -58.1148  -30.4940   10.7938 H         1 UNK         0.0568 
     99 H99       -57.8458  -32.8869   13.4067 H         1 UNK         0.3450 
    100 H100      -58.7836  -32.3047   12.0563 H         1 UNK         0.3450 
    101 H101      -55.6090  -29.1968   10.5291 H         1 UNK         0.2987 
    102 H102      -54.8611  -27.4605   11.6780 H         1 UNK         0.0766 
    103 H103      -55.7542  -25.1884   11.1763 H         1 UNK         0.0798 
    104 H104      -57.3897  -25.7121   11.5758 H         1 UNK         0.0798 
    105 H105      -56.5707  -26.3732   10.1687 H         1 UNK         0.0798 
    106 H106      -56.5383  -26.8585   14.0146 H         1 UNK         0.3198 
    107 H107      -55.4950  -25.3753   15.7016 H         1 UNK         0.0843 
    108 H108      -53.8906  -27.9685   16.1803 H         1 UNK         0.0831 
    109 H109      -55.6433  -27.8799   16.0650 H         1 UNK         0.0831 
    110 H110      -54.8186  -27.1092   17.4059 H         1 UNK         0.0831 
    111 H111      -52.6845  -25.3384   15.1844 H         1 UNK         0.3133 
    112 H112      -51.7528  -23.1423   16.5587 H         1 UNK         0.0566 
    113 H113      -50.5326  -23.1223   18.7480 H         1 UNK         0.0814 
    114 H114      -52.2380  -22.7496   18.9405 H         1 UNK         0.0814 
    115 H115      -51.6402  -24.3420   19.3777 H         1 UNK         0.0814 
    116 H116      -50.3357  -24.6630   15.8654 H         1 UNK         0.3091 
    117 H117      -48.9202  -27.6283   17.1233 H         1 UNK         0.0702 
    118 H118      -49.4280  -28.4674   14.8369 H         1 UNK         0.0785 
    119 H119      -50.6526  -27.2179   14.6229 H         1 UNK         0.0785 
    120 H120      -50.8810  -28.4803   15.8251 H         1 UNK         0.0785 
    121 H121      -48.4382  -26.1031   14.7517 H         1 UNK         0.2998 
    122 H122      -46.0834  -23.8197   16.2324 H         1 UNK         0.0697 
    123 H123      -45.8440  -26.0937   14.1910 H         1 UNK         0.0825 
    124 H124      -44.8627  -25.9120   15.6379 H         1 UNK         0.0825 
    125 H125      -44.7481  -24.7233   14.3497 H         1 UNK         0.0825 
    126 H126      -47.0839  -23.9919   13.5761 H         1 UNK         0.3029 
    127 H127      -49.8651  -21.7533   14.0337 H         1 UNK         0.0897 
    128 H128      -48.6877  -20.6401   12.1516 H         1 UNK         0.0792 
    129 H129      -47.8332  -20.3520   13.6595 H         1 UNK         0.0792 
    130 H130      -47.2111  -21.5310   12.5131 H         1 UNK         0.0792 
    131 H131      -49.0040  -23.1112   11.7083 H         1 UNK         0.3086 
    132 H132      -50.8491  -26.1422   12.2465 H         1 UNK         0.0583 
    133 H133      -52.4514  -24.5842   11.2451 H         1 UNK         0.1020 
    134 H134      -51.2024  -23.7704   10.3420 H         1 UNK         0.1020 
    135 H135      -51.0864  -27.8226   10.5297 H         1 UNK         0.0694 
    136 H136      -52.6808  -27.3153   11.0281 H         1 UNK         0.0694 
    137 H137      -49.0580  -25.3928   10.1645 H         1 UNK         0.2989 
    138 H138      -46.0725  -26.6148   11.7089 H         1 UNK         0.1055 
    139 H139      -47.0883  -28.6159   10.7055 H         1 UNK         0.0806 
    140 H140      -46.0377  -27.8536    9.5224 H         1 UNK         0.0806 
    141 H141      -47.7881  -27.6792    9.3976 H         1 UNK         0.0806 
    142 H142      -46.7836  -25.3362    9.1941 H         1 UNK         0.3061 
    143 H143      -46.0692  -22.0212   10.3017 H         1 UNK         0.0734 
    144 H144      -44.3934  -22.0973    8.4727 H         1 UNK         0.0832 
    145 H145      -43.7963  -22.9703    9.8732 H         1 UNK         0.0832 
    146 H146      -44.4119  -23.8618    8.4890 H         1 UNK         0.0832 
    147 H147      -46.6592  -23.0815    7.7221 H         1 UNK         0.3156 
    148 H148      -50.1673  -23.3099    8.0065 H         1 UNK         0.0589 
    149 H149      -48.5764  -21.0994    6.5954 H         1 UNK         0.0808 
    150 H150      -50.2195  -21.6116    6.2049 H         1 UNK         0.0808 
    151 H151      -49.8820  -20.8381    7.7433 H         1 UNK         0.0808 
    152 H152      -48.5874  -23.4622    5.6979 H         1 UNK         0.3098 
    153 H153      -48.4068  -25.5253    4.7246 H         1 UNK         0.0720 
    154 H154      -46.0481  -26.4139    4.6689 H         1 UNK         0.0791 
    155 H155      -45.9295  -26.2384    6.4178 H         1 UNK         0.0791 
    156 H156      -46.0873  -24.8154    5.3937 H         1 UNK         0.0791 
    157 H157      -48.4910  -27.6005    6.7648 H         1 UNK         0.3028 
@<TRIPOS>BOND
     1    1    2 1    
     2    1   82 1    
     3    1   83 1    
     4    1   84 1    
     5    2    3 2    
     6    2    4 am   BACKBONE|DICT|INTERRES
     7    4    5 1    
     8    4   85 1    
     9    5    6 1    
    10    5   80 1    
    11    5   86 1    
    12    6    7 1    
    13    6   87 1    
    14    6   88 1    
    15    7    8 1    
    16    8    9 1    
    17    8   89 1    
    18    8   90 1    
    19    9   10 ar   
    20    9   14 ar   
    21   10   11 ar   
    22   10   91 1    
    23   11   12 ar   
    24   11   58 1    
    25   12   13 ar   
    26   12   92 1    
    27   13   14 ar   
    28   13   15 1    
    29   14   93 1    
    30   15   16 1    
    31   15   94 1    
    32   15   95 1    
    33   16   17 1    
    34   17   18 1    
    35   17   96 1    
    36   17   97 1    
    37   18   19 1    
    38   18   22 1    
    39   18   98 1    
    40   19   20 am   BACKBONE|DICT|INTERRES
    41   19   21 2    
    42   20   99 1    
    43   20  100 1    
    44   22   23 am   BACKBONE|DICT|INTERRES
    45   22  101 1    
    46   23   24 2    
    47   23   25 1    
    48   25   26 1    
    49   25   27 1    
    50   25  102 1    
    51   26  103 1    
    52   26  104 1    
    53   26  105 1    
    54   27   28 am   BACKBONE|DICT|INTERRES
    55   27  106 1    
    56   28   29 2    
    57   28   30 1    
    58   30   31 1    
    59   30   32 1    
    60   30  107 1    
    61   31  108 1    
    62   31  109 1    
    63   31  110 1    
    64   32   33 am   BACKBONE|DICT|INTERRES
    65   32  111 1    
    66   33   34 2    
    67   33   35 1    
    68   35   36 1    
    69   35   37 1    
    70   35  112 1    
    71   36  113 1    
    72   36  114 1    
    73   36  115 1    
    74   37   38 am   BACKBONE|DICT|INTERRES
    75   37  116 1    
    76   38   39 2    
    77   38   40 1    
    78   40   41 1    
    79   40   42 1    
    80   40  117 1    
    81   41  118 1    
    82   41  119 1    
    83   41  120 1    
    84   42   43 am   BACKBONE|DICT|INTERRES
    85   42  121 1    
    86   43   44 2    
    87   43   45 1    
    88   45   46 1    
    89   45   47 1    
    90   45  122 1    
    91   46  123 1    
    92   46  124 1    
    93   46  125 1    
    94   47   48 am   BACKBONE|DICT|INTERRES
    95   47  126 1    
    96   48   49 2    
    97   48   50 1    
    98   50   51 1    
    99   50   52 1    
   100   50  127 1    
   101   51  128 1    
   102   51  129 1    
   103   51  130 1    
   104   52   53 am   BACKBONE|DICT|INTERRES
   105   52  131 1    
   106   53   54 2    
   107   53   55 1    
   108   55   56 1    
   109   55   59 1    
   110   55  132 1    
   111   56   57 1    
   112   56  133 1    
   113   56  134 1    
   114   57   58 1    
   115   58  135 1    
   116   58  136 1    
   117   59   60 am   BACKBONE|DICT|INTERRES
   118   59  137 1    
   119   60   61 2    
   120   60   62 1    
   121   62   63 1    
   122   62   64 1    
   123   62  138 1    
   124   63  139 1    
   125   63  140 1    
   126   63  141 1    
   127   64   65 am   BACKBONE|DICT|INTERRES
   128   64  142 1    
   129   65   66 2    
   130   65   67 1    
   131   67   68 1    
   132   67   69 1    
   133   67  143 1    
   134   68  144 1    
   135   68  145 1    
   136   68  146 1    
   137   69   70 am   BACKBONE|DICT|INTERRES
   138   69  147 1    
   139   70   71 2    
   140   70   72 1    
   141   72   73 1    
   142   72   74 1    
   143   72  148 1    
   144   73  149 1    
   145   73  150 1    
   146   73  151 1    
   147   74   75 am   BACKBONE|DICT|INTERRES
   148   74  152 1    
   149   75   76 2    
   150   75   77 1    
   151   77   78 1    
   152   77   79 1    
   153   77  153 1    
   154   78  154 1    
   155   78  155 1    
   156   78  156 1    
   157   79   80 am   BACKBONE|DICT|INTERRES
   158   79  157 1    
   159   80   81 2    
@<TRIPOS>SUBSTRUCTURE
     1 UNK         1 GROUP             0       ****    0 ROOT    
