@<TRIPOS>MOLECULE
3R207
157   159    1
SMALL
USER_CHARGES


@<TRIPOS>ATOM
      1 CA        -48.0699  -30.3355    7.2457 C.3       0 UNK        -0.1975 
      2 C         -49.4229  -29.6688    7.4850 C.2       0 UNK         0.4852 
      3 O         -49.8864  -29.6543    8.6222 O.2       0 UNK        -0.5216 
      4 N         -50.0912  -29.1123    6.4626 N.am      1 UNK        -0.4461 
      5 CA        -49.6696  -29.0267    5.0541 C.3       1 UNK         0.0864 
      6 C6        -50.8496  -28.6591    4.1189 C.3       14 UNK        -0.0898 
      7 S7        -52.1172  -29.9683    4.0427 S.3       14 UNK        -0.2598 
      8 C8        -53.5940  -29.1111    4.6743 C.3       14 UNK         0.0286 
      9 C9        -53.5126  -28.8876    6.1757 C.ar      14 UNK        -0.0844 
     10 C10       -53.2417  -27.6166    6.6927 C.ar      14 UNK        -0.0881 
     11 C11       -53.1557  -27.4191    8.0743 C.ar      14 UNK        -0.0643 
     12 C12       -53.3499  -28.5004    8.9383 C.ar      14 UNK        -0.0930 
     13 C13       -53.6397  -29.7699    8.4316 C.ar      14 UNK        -0.0827 
     14 C14       -53.7179  -29.9589    7.0499 C.ar      14 UNK        -0.1249 
     15 C15       -53.8829  -30.9283    9.3829 C.3       14 UNK         0.0141 
     16 S16       -55.6139  -30.9304    9.9369 S.3       14 UNK        -0.2313 
     17 C17       -55.5676  -32.1479   11.2973 C.3       14 UNK        -0.0915 
     18 CA        -55.4351  -31.5091   12.7091 C.3       13 UNK         0.0968 
     19 C         -53.9636  -31.1211   13.0466 C.2       13 UNK         0.5732 
     20 N         -53.6456  -29.8735   13.3731 N.am      13 UNK        -0.7310 
     21 O         -53.0858  -31.9802   13.0170 O.2       13 UNK        -0.5035 
     22 N         -56.4180  -30.4341   12.9049 N.am      13 UNK        -0.4233 
     23 C         -56.8428  -29.9841   14.0877 C.2       13 UNK         0.4989 
     24 O         -56.5752  -30.5103   15.1704 O.2       13 UNK        -0.4996 
     25 CA        -57.7108  -28.7151   14.0493 C.3       12 UNK         0.0216 
     26 CB        -59.1834  -29.0536   14.3339 C.3       12 UNK        -0.1964 
     27 N         -57.2446  -27.7119   15.0094 N.am      12 UNK        -0.4276 
     28 C         -56.0265  -27.1539   15.0081 C.2       12 UNK         0.5020 
     29 O         -55.1599  -27.3808   14.1559 O.2       12 UNK        -0.5489 
     30 CA        -55.7240  -26.1981   16.1675 C.3       11 UNK         0.0294 
     31 CB        -55.5668  -26.9741   17.4912 C.3       11 UNK        -0.2019 
     32 N         -54.4936  -25.4721   15.8693 N.am      11 UNK        -0.4493 
     33 C         -54.0798  -24.3487   16.4665 C.2       11 UNK         0.4932 
     34 O         -54.7501  -23.7444   17.3063 O.2       11 UNK        -0.5029 
     35 CA        -52.6875  -23.8119   16.0649 C.3       10 UNK         0.0280 
     36 CB        -52.0750  -22.8953   17.1447 C.3       10 UNK        -0.1976 
     37 N         -51.7266  -24.8557   15.6804 N.am      10 UNK        -0.4242 
     38 C         -51.3357  -25.9136   16.4107 C.2       10 UNK         0.5072 
     39 O         -51.7418  -26.1674   17.5456 O.2       10 UNK        -0.5224 
     40 CA        -50.3120  -26.8534   15.7546 C.3       9 UNK         0.0343 
     41 CB        -50.9369  -27.6082   14.5692 C.3       9 UNK        -0.2003 
     42 N         -49.1082  -26.1454   15.3184 N.am      9 UNK        -0.4272 
     43 C         -48.2142  -25.5853   16.1470 C.2       9 UNK         0.4988 
     44 O         -48.2693  -25.6640   17.3750 O.2       9 UNK        -0.5108 
     45 CA        -47.0607  -24.8000   15.5012 C.3       8 UNK         0.0248 
     46 CB        -45.9355  -25.7501   15.0609 C.3       8 UNK        -0.2001 
     47 N         -47.4992  -23.9790   14.3695 N.am      8 UNK        -0.4140 
     48 C         -48.3053  -22.9124   14.4812 C.2       8 UNK         0.5028 
     49 O         -48.6984  -22.4616   15.5573 O.2       8 UNK        -0.5428 
     50 CA        -48.7620  -22.2313   13.1802 C.3       7 UNK         0.0264 
     51 CB        -47.7120  -21.2128   12.7086 C.3       7 UNK        -0.1988 
     52 N         -49.0564  -23.1760   12.0993 N.am      7 UNK        -0.4454 
     53 C         -50.0497  -24.0785   12.1236 C.2       7 UNK         0.5027 
     54 O         -50.8498  -24.1909   13.0539 O.2       7 UNK        -0.5083 
     55 CA        -50.1390  -25.0565   10.9346 C.3       6 UNK         0.0844 
     56 C56       -50.8348  -24.4007    9.7170 C.3       14 UNK        -0.0967 
     57 S57       -51.1140  -25.6020    8.3725 S.3       14 UNK        -0.2604 
     58 C58       -52.8556  -26.0402    8.6380 C.3       14 UNK         0.0134 
     59 N         -48.8280  -25.6170   10.5980 N.am      6 UNK        -0.4116 
     60 C         -48.0729  -26.3574   11.4208 C.2       5 UNK         0.5034 
     61 O         -48.4113  -26.6911   12.5561 O.2       5 UNK        -0.5045 
     62 CA        -46.6745  -26.7353   10.9126 C.3       5 UNK         0.0224 
     63 CB        -46.7376  -27.9403    9.9591 C.3       5 UNK        -0.1978 
     64 N         -46.0144  -25.6040   10.2554 N.am      5 UNK        -0.4737 
     65 C         -45.5816  -24.5100   10.8985 C.2       4 UNK         0.5027 
     66 O         -45.6615  -24.3587   12.1162 O.2       4 UNK        -0.5211 
     67 CA        -44.9923  -23.3796   10.0387 C.3       4 UNK         0.0297 
     68 CB        -43.5124  -23.6530    9.7279 C.3       4 UNK        -0.1993 
     69 N         -45.7277  -23.1702    8.7899 N.am      4 UNK        -0.4486 
     70 C         -46.9948  -22.7386    8.7200 C.2       3 UNK         0.4961 
     71 O         -47.6758  -22.4403    9.7001 O.2       3 UNK        -0.5105 
     72 CA        -47.6287  -22.6830    7.3201 C.3       3 UNK         0.0299 
     73 CB        -47.2641  -21.3677    6.6137 C.3       3 UNK        -0.1972 
     74 N         -47.2831  -23.8215    6.4593 N.am      3 UNK        -0.4305 
     75 C         -47.4945  -25.1061    6.7753 C.2       2 UNK         0.5006 
     76 O         -47.9098  -25.4891    7.8697 O.2       2 UNK        -0.5106 
     77 CA        -47.1616  -26.1523    5.7148 C.3       2 UNK         0.0296 
     78 CB        -45.7789  -26.7764    5.9831 C.3       2 UNK        -0.2002 
     79 N         -48.2061  -27.1691    5.7759 N.am      2 UNK        -0.4032 
     80 C         -48.4912  -28.0553    4.8154 C.2       1 UNK         0.5000 
     81 O         -47.8611  -28.1328    3.7591 O.2       1 UNK        -0.5238 
     82 H82       -48.1088  -31.0345    6.4114 H         1 UNK         0.0889 
     83 H83       -47.7674  -30.9002    8.1275 H         1 UNK         0.0889 
     84 H84       -47.2969  -29.5931    7.0516 H         1 UNK         0.0889 
     85 H85       -51.0050  -28.7246    6.6588 H         1 UNK         0.3028 
     86 H86       -49.3149  -30.0132    4.7507 H         1 UNK         0.0864 
     87 H87       -51.2993  -27.7115    4.4202 H         1 UNK         0.0720 
     88 H88       -50.5004  -28.5109    3.0949 H         1 UNK         0.0720 
     89 H89       -54.4741  -29.7154    4.4491 H         1 UNK         0.0814 
     90 H90       -53.7300  -28.1685    4.1416 H         1 UNK         0.0814 
     91 H91       -53.0890  -26.7797    6.0247 H         1 UNK         0.1469 
     92 H92       -53.2866  -28.3548   10.0082 H         1 UNK         0.1381 
     93 H93       -53.9383  -30.9405    6.6525 H         1 UNK         0.1206 
     94 H94       -53.6521  -31.8792    8.9004 H         1 UNK         0.0813 
     95 H95       -53.2124  -30.8439   10.2389 H         1 UNK         0.0813 
     96 H96       -54.7827  -32.8839   11.1123 H         1 UNK         0.0638 
     97 H97       -56.5023  -32.7086   11.2514 H         1 UNK         0.0638 
     98 H98       -55.6807  -32.2948   13.4261 H         1 UNK         0.0568 
     99 H99       -52.6839  -29.6643   13.5802 H         1 UNK         0.3450 
    100 H100      -54.3450  -29.1442   13.4514 H         1 UNK         0.3450 
    101 H101      -56.6772  -29.9384   12.0642 H         1 UNK         0.2987 
    102 H102      -57.6462  -28.2694   13.0542 H         1 UNK         0.0766 
    103 H103      -59.8173  -28.1697   14.2592 H         1 UNK         0.0798 
    104 H104      -59.3150  -29.4794   15.3297 H         1 UNK         0.0798 
    105 H105      -59.5615  -29.7828   13.6161 H         1 UNK         0.0798 
    106 H106      -57.8762  -27.4878   15.7647 H         1 UNK         0.3198 
    107 H107      -56.5477  -25.4855   16.2490 H         1 UNK         0.0843 
    108 H108      -54.7411  -27.6853   17.4405 H         1 UNK         0.0831 
    109 H109      -56.4684  -27.5373   17.7345 H         1 UNK         0.0831 
    110 H110      -55.3748  -26.3030   18.3285 H         1 UNK         0.0831 
    111 H111      -53.9339  -25.8959   15.1387 H         1 UNK         0.3133 
    112 H112      -52.8444  -23.2074   15.1705 H         1 UNK         0.0566 
    113 H113      -51.1077  -22.5045   16.8299 H         1 UNK         0.0814 
    114 H114      -52.7179  -22.0377   17.3459 H         1 UNK         0.0814 
    115 H115      -51.9311  -23.4245   18.0873 H         1 UNK         0.0814 
    116 H116      -51.3266  -24.7409   14.7497 H         1 UNK         0.3091 
    117 H117      -50.0135  -27.5926   16.5011 H         1 UNK         0.0702 
    118 H118      -50.2524  -28.3602   14.1760 H         1 UNK         0.0785 
    119 H119      -51.1990  -26.9383   13.7494 H         1 UNK         0.0785 
    120 H120      -51.8478  -28.1229   14.8770 H         1 UNK         0.0785 
    121 H121      -48.9431  -26.0972   14.3165 H         1 UNK         0.2998 
    122 H122      -46.6537  -24.1281   16.2600 H         1 UNK         0.0697 
    123 H123      -46.2634  -26.4285   14.2731 H         1 UNK         0.0825 
    124 H124      -45.5910  -26.3613   15.8961 H         1 UNK         0.0825 
    125 H125      -45.0734  -25.1967   14.6881 H         1 UNK         0.0825 
    126 H126      -47.1423  -24.2346   13.4534 H         1 UNK         0.3029 
    127 H127      -49.6839  -21.6896   13.4029 H         1 UNK         0.0897 
    128 H128      -48.0653  -20.6514   11.8434 H         1 UNK         0.0792 
    129 H129      -47.4869  -20.4901   13.4940 H         1 UNK         0.0792 
    130 H130      -46.7756  -21.6987   12.4319 H         1 UNK         0.0792 
    131 H131      -48.4708  -23.1083   11.2689 H         1 UNK         0.3086 
    132 H132      -50.7622  -25.8918   11.2616 H         1 UNK         0.0583 
    133 H133      -51.7883  -23.9538   10.0054 H         1 UNK         0.1020 
    134 H134      -50.2269  -23.5845    9.3228 H         1 UNK         0.1020 
    135 H135      -53.0825  -26.0132    9.7051 H         1 UNK         0.0694 
    136 H136      -53.4951  -25.2942    8.1639 H         1 UNK         0.0694 
    137 H137      -48.4871  -25.4379    9.6561 H         1 UNK         0.2989 
    138 H138      -46.0740  -27.0203   11.7794 H         1 UNK         0.1055 
    139 H139      -47.1858  -28.8027   10.4545 H         1 UNK         0.0806 
    140 H140      -45.7431  -28.2380    9.6270 H         1 UNK         0.0806 
    141 H141      -47.3394  -27.7320    9.0748 H         1 UNK         0.0806 
    142 H142      -45.9941  -25.6122    9.2455 H         1 UNK         0.3061 
    143 H143      -45.0531  -22.4572   10.6205 H         1 UNK         0.0734 
    144 H144      -43.0581  -22.8192    9.1923 H         1 UNK         0.0832 
    145 H145      -42.9422  -23.7937   10.6474 H         1 UNK         0.0832 
    146 H146      -43.3830  -24.5523    9.1243 H         1 UNK         0.0832 
    147 H147      -45.2513  -23.3972    7.9293 H         1 UNK         0.3156 
    148 H148      -48.7121  -22.7031    7.4559 H         1 UNK         0.0589 
    149 H149      -46.1959  -21.3022    6.4033 H         1 UNK         0.0808 
    150 H150      -47.8001  -21.2611    5.6704 H         1 UNK         0.0808 
    151 H151      -47.5277  -20.5077    7.2314 H         1 UNK         0.0808 
    152 H152      -46.9206  -23.6005    5.5427 H         1 UNK         0.3098 
    153 H153      -47.1730  -25.6835    4.7286 H         1 UNK         0.0720 
    154 H154      -45.5204  -27.5149    5.2242 H         1 UNK         0.0791 
    155 H155      -45.7413  -27.2705    6.9548 H         1 UNK         0.0791 
    156 H156      -44.9969  -26.0162    5.9712 H         1 UNK         0.0791 
    157 H157      -48.7794  -27.1294    6.6109 H         1 UNK         0.3028 
@<TRIPOS>BOND
     1    1    2 1    
     2    1   82 1    
     3    1   83 1    
     4    1   84 1    
     5    2    3 2    
     6    2    4 am   BACKBONE|DICT|INTERRES
     7    4    5 1    
     8    4   85 1    
     9    5    6 1    
    10    5   80 1    
    11    5   86 1    
    12    6    7 1    
    13    6   87 1    
    14    6   88 1    
    15    7    8 1    
    16    8    9 1    
    17    8   89 1    
    18    8   90 1    
    19    9   10 ar   
    20    9   14 ar   
    21   10   11 ar   
    22   10   91 1    
    23   11   12 ar   
    24   11   58 1    
    25   12   13 ar   
    26   12   92 1    
    27   13   14 ar   
    28   13   15 1    
    29   14   93 1    
    30   15   16 1    
    31   15   94 1    
    32   15   95 1    
    33   16   17 1    
    34   17   18 1    
    35   17   96 1    
    36   17   97 1    
    37   18   19 1    
    38   18   22 1    
    39   18   98 1    
    40   19   20 am   BACKBONE|DICT|INTERRES
    41   19   21 2    
    42   20   99 1    
    43   20  100 1    
    44   22   23 am   BACKBONE|DICT|INTERRES
    45   22  101 1    
    46   23   24 2    
    47   23   25 1    
    48   25   26 1    
    49   25   27 1    
    50   25  102 1    
    51   26  103 1    
    52   26  104 1    
    53   26  105 1    
    54   27   28 am   BACKBONE|DICT|INTERRES
    55   27  106 1    
    56   28   29 2    
    57   28   30 1    
    58   30   31 1    
    59   30   32 1    
    60   30  107 1    
    61   31  108 1    
    62   31  109 1    
    63   31  110 1    
    64   32   33 am   BACKBONE|DICT|INTERRES
    65   32  111 1    
    66   33   34 2    
    67   33   35 1    
    68   35   36 1    
    69   35   37 1    
    70   35  112 1    
    71   36  113 1    
    72   36  114 1    
    73   36  115 1    
    74   37   38 am   BACKBONE|DICT|INTERRES
    75   37  116 1    
    76   38   39 2    
    77   38   40 1    
    78   40   41 1    
    79   40   42 1    
    80   40  117 1    
    81   41  118 1    
    82   41  119 1    
    83   41  120 1    
    84   42   43 am   BACKBONE|DICT|INTERRES
    85   42  121 1    
    86   43   44 2    
    87   43   45 1    
    88   45   46 1    
    89   45   47 1    
    90   45  122 1    
    91   46  123 1    
    92   46  124 1    
    93   46  125 1    
    94   47   48 am   BACKBONE|DICT|INTERRES
    95   47  126 1    
    96   48   49 2    
    97   48   50 1    
    98   50   51 1    
    99   50   52 1    
   100   50  127 1    
   101   51  128 1    
   102   51  129 1    
   103   51  130 1    
   104   52   53 am   BACKBONE|DICT|INTERRES
   105   52  131 1    
   106   53   54 2    
   107   53   55 1    
   108   55   56 1    
   109   55   59 1    
   110   55  132 1    
   111   56   57 1    
   112   56  133 1    
   113   56  134 1    
   114   57   58 1    
   115   58  135 1    
   116   58  136 1    
   117   59   60 am   BACKBONE|DICT|INTERRES
   118   59  137 1    
   119   60   61 2    
   120   60   62 1    
   121   62   63 1    
   122   62   64 1    
   123   62  138 1    
   124   63  139 1    
   125   63  140 1    
   126   63  141 1    
   127   64   65 am   BACKBONE|DICT|INTERRES
   128   64  142 1    
   129   65   66 2    
   130   65   67 1    
   131   67   68 1    
   132   67   69 1    
   133   67  143 1    
   134   68  144 1    
   135   68  145 1    
   136   68  146 1    
   137   69   70 am   BACKBONE|DICT|INTERRES
   138   69  147 1    
   139   70   71 2    
   140   70   72 1    
   141   72   73 1    
   142   72   74 1    
   143   72  148 1    
   144   73  149 1    
   145   73  150 1    
   146   73  151 1    
   147   74   75 am   BACKBONE|DICT|INTERRES
   148   74  152 1    
   149   75   76 2    
   150   75   77 1    
   151   77   78 1    
   152   77   79 1    
   153   77  153 1    
   154   78  154 1    
   155   78  155 1    
   156   78  156 1    
   157   79   80 am   BACKBONE|DICT|INTERRES
   158   79  157 1    
   159   80   81 2    
@<TRIPOS>SUBSTRUCTURE
     1 UNK         1 GROUP             0       ****    0 ROOT    
