@<TRIPOS>MOLECULE
3R207
157   159    1
SMALL
USER_CHARGES


@<TRIPOS>ATOM
      1 CA        -49.2196  -29.4964    4.4589 C.3       0 UNK        -0.1975 
      2 C         -49.7433  -28.1272    4.8644 C.2       0 UNK         0.4852 
      3 O         -49.3596  -27.6253    5.9201 O.2       0 UNK        -0.5216 
      4 N         -50.6176  -27.5349    4.0362 N.am      1 UNK        -0.4461 
      5 CA        -51.2552  -26.2183    4.1904 C.3       1 UNK         0.0864 
      6 C6        -52.5816  -26.2470    5.0162 C.3       14 UNK        -0.0898 
      7 S7        -52.4608  -26.7183    6.7805 S.3       14 UNK        -0.2598 
      8 C8        -52.9668  -28.4644    6.7200 C.3       14 UNK         0.0286 
      9 C9        -52.5731  -29.1972    7.9935 C.ar      14 UNK        -0.0844 
     10 C10       -51.2284  -29.4824    8.2411 C.ar      14 UNK        -0.0881 
     11 C11       -50.8426  -30.1689    9.3934 C.ar      14 UNK        -0.0643 
     12 C12       -51.8218  -30.5986   10.2944 C.ar      14 UNK        -0.0930 
     13 C13       -53.1717  -30.3110   10.0665 C.ar      14 UNK        -0.0827 
     14 C14       -53.5404  -29.6014    8.9177 C.ar      14 UNK        -0.1249 
     15 C15       -54.2227  -30.7294   11.0837 C.3       14 UNK         0.0141 
     16 S16       -55.4877  -31.8195   10.3664 S.3       14 UNK        -0.2313 
     17 C17       -56.4767  -32.2347   11.8409 C.3       14 UNK        -0.0915 
     18 CA        -57.6737  -31.2673   12.0499 C.3       13 UNK         0.0968 
     19 C         -58.7798  -31.9138   12.9366 C.2       13 UNK         0.5732 
     20 N         -59.1345  -31.3511   14.0863 N.am      13 UNK        -0.7310 
     21 O         -59.3401  -32.9426   12.5654 O.2       13 UNK        -0.5035 
     22 N         -57.2261  -29.9459   12.5283 N.am      13 UNK        -0.4233 
     23 C         -57.8628  -28.7939   12.2794 C.2       13 UNK         0.4989 
     24 O         -58.8451  -28.7059   11.5413 O.2       13 UNK        -0.4996 
     25 CA        -57.3537  -27.5226   12.9845 C.3       12 UNK         0.0216 
     26 CB        -58.3945  -27.0275   14.0044 C.3       12 UNK        -0.1964 
     27 N         -56.0714  -27.6992   13.6769 N.am      12 UNK        -0.4276 
     28 C         -54.8776  -27.3897   13.1557 C.2       12 UNK         0.5020 
     29 O         -54.7133  -26.9808   12.0049 O.2       12 UNK        -0.5489 
     30 CA        -53.6607  -27.5490   14.0854 C.3       11 UNK         0.0294 
     31 CB        -52.6060  -28.4938   13.4853 C.3       11 UNK        -0.2019 
     32 N         -53.0373  -26.2560   14.3645 N.am      11 UNK        -0.4493 
     33 C         -53.5928  -25.2773   15.0927 C.2       11 UNK         0.4932 
     34 O         -54.7120  -25.3528   15.6040 O.2       11 UNK        -0.5029 
     35 CA        -52.7209  -24.0264   15.3126 C.3       10 UNK         0.0280 
     36 CB        -53.3517  -23.0002   16.2774 C.3       10 UNK        -0.1976 
     37 N         -51.3620  -24.3810   15.7352 N.am      10 UNK        -0.4242 
     38 C         -50.9928  -25.0698   16.8274 C.2       10 UNK         0.5072 
     39 O         -51.7692  -25.4314   17.7128 O.2       10 UNK        -0.5224 
     40 CA        -49.5046  -25.4507   16.9514 C.3       9 UNK         0.0343 
     41 CB        -49.3143  -26.9404   16.6214 C.3       9 UNK        -0.2003 
     42 N         -48.6180  -24.6556   16.0972 N.am      9 UNK        -0.4272 
     43 C         -48.3268  -23.3624   16.2984 C.2       9 UNK         0.4988 
     44 O         -48.7108  -22.7167   17.2741 O.2       9 UNK        -0.5108 
     45 CA        -47.4928  -22.6617   15.2130 C.3       8 UNK         0.0248 
     46 CB        -45.9939  -22.9179   15.4365 C.3       8 UNK        -0.2001 
     47 N         -47.8718  -23.0554   13.8508 N.am      8 UNK        -0.4140 
     48 C         -49.0694  -22.8145   13.2936 C.2       8 UNK         0.5028 
     49 O         -49.9775  -22.2070   13.8602 O.2       8 UNK        -0.5428 
     50 CA        -49.3214  -23.3849   11.8881 C.3       7 UNK         0.0264 
     51 CB        -48.6228  -22.5389   10.8113 C.3       7 UNK        -0.1988 
     52 N         -48.9011  -24.7807   11.7718 N.am      7 UNK        -0.4454 
     53 C         -49.4531  -25.8062   12.4362 C.2       7 UNK         0.5027 
     54 O         -50.4406  -25.6977   13.1655 O.2       7 UNK        -0.5083 
     55 CA        -48.7621  -27.1771   12.3097 C.3       6 UNK         0.0844 
     56 C56       -49.3104  -27.9923   11.1163 C.3       14 UNK        -0.0967 
     57 S57       -48.7936  -29.7390   11.2420 S.3       14 UNK        -0.2604 
     58 C58       -49.3653  -30.4315    9.6564 C.3       14 UNK         0.0134 
     59 N         -47.3041  -27.0475   12.2595 N.am      6 UNK        -0.4116 
     60 C         -46.5341  -26.6774   13.2896 C.2       5 UNK         0.5034 
     61 O         -46.9663  -26.3919   14.4059 O.2       5 UNK        -0.5045 
     62 CA        -45.0265  -26.5736   13.0096 C.3       5 UNK         0.0224 
     63 CB        -44.3776  -27.9669   12.9839 C.3       5 UNK        -0.1978 
     64 N         -44.7290  -25.8647   11.7608 N.am      5 UNK        -0.4737 
     65 C         -44.9983  -24.5683   11.5579 C.2       4 UNK         0.5027 
     66 O         -45.5309  -23.8412   12.3944 O.2       4 UNK        -0.5211 
     67 CA        -44.6433  -23.9859   10.1814 C.3       4 UNK         0.0297 
     68 CB        -43.1388  -23.6815   10.0985 C.3       4 UNK        -0.1993 
     69 N         -45.0470  -24.7970    9.0259 N.am      4 UNK        -0.4486 
     70 C         -46.2699  -25.2980    8.8040 C.2       3 UNK         0.4961 
     71 O         -47.1725  -25.3379    9.6420 O.2       3 UNK        -0.5105 
     72 CA        -46.5444  -25.8357    7.3903 C.3       3 UNK         0.0299 
     73 CB        -46.5783  -27.3721    7.4041 C.3       3 UNK        -0.1972 
     74 N         -47.8141  -25.3063    6.8761 N.am      3 UNK        -0.4305 
     75 C         -48.0544  -24.0002    6.6659 C.2       2 UNK         0.5006 
     76 O         -47.1715  -23.1401    6.7059 O.2       2 UNK        -0.5106 
     77 CA        -49.5138  -23.5607    6.4196 C.3       2 UNK         0.0296 
     78 CB        -49.6215  -22.2145    5.6700 C.3       2 UNK        -0.2002 
     79 N         -50.3572  -24.5823    5.7947 N.am      2 UNK        -0.4032 
     80 C         -50.2461  -25.1067    4.5675 C.2       1 UNK         0.5000 
     81 O         -49.3941  -24.7670    3.7428 O.2       1 UNK        -0.5238 
     82 H82       -48.1336  -29.4701    4.3733 H         1 UNK         0.0889 
     83 H83       -49.6286  -29.8253    3.5038 H         1 UNK         0.0889 
     84 H84       -49.4839  -30.2357    5.2146 H         1 UNK         0.0889 
     85 H85       -50.8539  -28.0118    3.1774 H         1 UNK         0.3028 
     86 H86       -51.5584  -25.9534    3.1760 H         1 UNK         0.0864 
     87 H87       -53.2882  -26.9207    4.5290 H         1 UNK         0.0720 
     88 H88       -53.0593  -25.2666    4.9714 H         1 UNK         0.0720 
     89 H89       -52.4962  -28.9564    5.8681 H         1 UNK         0.0814 
     90 H90       -54.0436  -28.5212    6.5540 H         1 UNK         0.0814 
     91 H91       -50.4772  -29.1557    7.5385 H         1 UNK         0.1469 
     92 H92       -51.5240  -31.1321   11.1867 H         1 UNK         0.1381 
     93 H93       -54.5829  -29.3721    8.7431 H         1 UNK         0.1206 
     94 H94       -54.6995  -29.8314   11.4731 H         1 UNK         0.0813 
     95 H95       -53.7590  -31.2380   11.9299 H         1 UNK         0.0813 
     96 H96       -55.8402  -32.2695   12.7266 H         1 UNK         0.0638 
     97 H97       -56.8267  -33.2573   11.6869 H         1 UNK         0.0638 
     98 H98       -58.1483  -31.1308   11.0762 H         1 UNK         0.0568 
     99 H99       -58.6928  -30.5049   14.4045 H         1 UNK         0.3450 
    100 H100      -59.8569  -31.7825   14.6410 H         1 UNK         0.3450 
    101 H101      -56.4409  -29.9397   13.1598 H         1 UNK         0.2987 
    102 H102      -57.2502  -26.7534   12.2159 H         1 UNK         0.0766 
    103 H103      -58.0786  -26.0928   14.4688 H         1 UNK         0.0798 
    104 H104      -58.5651  -27.7553   14.7985 H         1 UNK         0.0798 
    105 H105      -59.3559  -26.8376   13.5246 H         1 UNK         0.0798 
    106 H106      -56.1167  -27.9854   14.6453 H         1 UNK         0.3198 
    107 H107      -53.9856  -27.9716   15.0388 H         1 UNK         0.0843 
    108 H108      -52.3129  -28.1857   12.4811 H         1 UNK         0.0831 
    109 H109      -52.9902  -29.5106   13.4188 H         1 UNK         0.0831 
    110 H110      -51.7056  -28.5317   14.0990 H         1 UNK         0.0831 
    111 H111      -52.1227  -26.0882   13.9498 H         1 UNK         0.3133 
    112 H112      -52.6203  -23.5458   14.3383 H         1 UNK         0.0566 
    113 H113      -52.7157  -22.1221   16.3903 H         1 UNK         0.0814 
    114 H114      -54.3165  -22.6562   15.9030 H         1 UNK         0.0814 
    115 H115      -53.5202  -23.4227   17.2683 H         1 UNK         0.0814 
    116 H116      -50.6377  -24.1524   15.0662 H         1 UNK         0.3091 
    117 H117      -49.2104  -25.2898   17.9906 H         1 UNK         0.0702 
    118 H118      -48.2788  -27.2500   16.7642 H         1 UNK         0.0785 
    119 H119      -49.5912  -27.1610   15.5899 H         1 UNK         0.0785 
    120 H120      -49.9317  -27.5673   17.2661 H         1 UNK         0.0785 
    121 H121      -48.1884  -25.1388   15.3131 H         1 UNK         0.2998 
    122 H122      -47.6695  -21.5881   15.3052 H         1 UNK         0.0697 
    123 H123      -45.7410  -23.9712   15.3086 H         1 UNK         0.0825 
    124 H124      -45.6922  -22.6281   16.4439 H         1 UNK         0.0825 
    125 H125      -45.3859  -22.3420   14.7386 H         1 UNK         0.0825 
    126 H126      -47.1521  -23.5159   13.2969 H         1 UNK         0.3029 
    127 H127      -50.3973  -23.3472   11.7035 H         1 UNK         0.0897 
    128 H128      -48.8520  -22.9042    9.8101 H         1 UNK         0.0792 
    129 H129      -47.5389  -22.5499   10.9277 H         1 UNK         0.0792 
    130 H130      -48.9470  -21.4986   10.8605 H         1 UNK         0.0792 
    131 H131      -48.1313  -24.9744   11.1315 H         1 UNK         0.3086 
    132 H132      -49.0081  -27.7234   13.2231 H         1 UNK         0.0583 
    133 H133      -50.4011  -27.9622   11.0954 H         1 UNK         0.1020 
    134 H134      -48.9740  -27.5739   10.1653 H         1 UNK         0.1020 
    135 H135      -48.7481  -30.0192    8.8563 H         1 UNK         0.0694 
    136 H136      -49.1903  -31.5080    9.6571 H         1 UNK         0.0694 
    137 H137      -46.8692  -27.2068   11.3629 H         1 UNK         0.2989 
    138 H138      -44.5824  -26.0061   13.8309 H         1 UNK         0.1055 
    139 H139      -44.5782  -28.5066   13.9107 H         1 UNK         0.0806 
    140 H140      -43.2945  -27.8978   12.8801 H         1 UNK         0.0806 
    141 H141      -44.7555  -28.5780   12.1632 H         1 UNK         0.0806 
    142 H142      -44.3009  -26.3918   11.0132 H         1 UNK         0.3061 
    143 H143      -45.1783  -23.0382   10.0936 H         1 UNK         0.0734 
    144 H144      -42.8934  -23.1294    9.1911 H         1 UNK         0.0832 
    145 H145      -42.8172  -23.0691   10.9424 H         1 UNK         0.0832 
    146 H146      -42.5393  -24.5926   10.1107 H         1 UNK         0.0832 
    147 H147      -44.3807  -24.8403    8.2681 H         1 UNK         0.3156 
    148 H148      -45.7466  -25.5118    6.7188 H         1 UNK         0.0589 
    149 H149      -47.4016  -27.7517    8.0110 H         1 UNK         0.0808 
    150 H150      -46.6922  -27.7737    6.3973 H         1 UNK         0.0808 
    151 H151      -45.6540  -27.7829    7.8122 H         1 UNK         0.0808 
    152 H152      -48.5680  -25.9780    6.7625 H         1 UNK         0.3098 
    153 H153      -49.9364  -23.4071    7.4135 H         1 UNK         0.0720 
    154 H154      -50.6615  -21.9198    5.5300 H         1 UNK         0.0791 
    155 H155      -49.1490  -22.2583    4.6883 H         1 UNK         0.0791 
    156 H156      -49.1336  -21.4147    6.2285 H         1 UNK         0.0791 
    157 H157      -51.0646  -24.9953    6.3922 H         1 UNK         0.3028 
@<TRIPOS>BOND
     1    1    2 1    
     2    1   82 1    
     3    1   83 1    
     4    1   84 1    
     5    2    3 2    
     6    2    4 am   BACKBONE|DICT|INTERRES
     7    4    5 1    
     8    4   85 1    
     9    5    6 1    
    10    5   80 1    
    11    5   86 1    
    12    6    7 1    
    13    6   87 1    
    14    6   88 1    
    15    7    8 1    
    16    8    9 1    
    17    8   89 1    
    18    8   90 1    
    19    9   10 ar   
    20    9   14 ar   
    21   10   11 ar   
    22   10   91 1    
    23   11   12 ar   
    24   11   58 1    
    25   12   13 ar   
    26   12   92 1    
    27   13   14 ar   
    28   13   15 1    
    29   14   93 1    
    30   15   16 1    
    31   15   94 1    
    32   15   95 1    
    33   16   17 1    
    34   17   18 1    
    35   17   96 1    
    36   17   97 1    
    37   18   19 1    
    38   18   22 1    
    39   18   98 1    
    40   19   20 am   BACKBONE|DICT|INTERRES
    41   19   21 2    
    42   20   99 1    
    43   20  100 1    
    44   22   23 am   BACKBONE|DICT|INTERRES
    45   22  101 1    
    46   23   24 2    
    47   23   25 1    
    48   25   26 1    
    49   25   27 1    
    50   25  102 1    
    51   26  103 1    
    52   26  104 1    
    53   26  105 1    
    54   27   28 am   BACKBONE|DICT|INTERRES
    55   27  106 1    
    56   28   29 2    
    57   28   30 1    
    58   30   31 1    
    59   30   32 1    
    60   30  107 1    
    61   31  108 1    
    62   31  109 1    
    63   31  110 1    
    64   32   33 am   BACKBONE|DICT|INTERRES
    65   32  111 1    
    66   33   34 2    
    67   33   35 1    
    68   35   36 1    
    69   35   37 1    
    70   35  112 1    
    71   36  113 1    
    72   36  114 1    
    73   36  115 1    
    74   37   38 am   BACKBONE|DICT|INTERRES
    75   37  116 1    
    76   38   39 2    
    77   38   40 1    
    78   40   41 1    
    79   40   42 1    
    80   40  117 1    
    81   41  118 1    
    82   41  119 1    
    83   41  120 1    
    84   42   43 am   BACKBONE|DICT|INTERRES
    85   42  121 1    
    86   43   44 2    
    87   43   45 1    
    88   45   46 1    
    89   45   47 1    
    90   45  122 1    
    91   46  123 1    
    92   46  124 1    
    93   46  125 1    
    94   47   48 am   BACKBONE|DICT|INTERRES
    95   47  126 1    
    96   48   49 2    
    97   48   50 1    
    98   50   51 1    
    99   50   52 1    
   100   50  127 1    
   101   51  128 1    
   102   51  129 1    
   103   51  130 1    
   104   52   53 am   BACKBONE|DICT|INTERRES
   105   52  131 1    
   106   53   54 2    
   107   53   55 1    
   108   55   56 1    
   109   55   59 1    
   110   55  132 1    
   111   56   57 1    
   112   56  133 1    
   113   56  134 1    
   114   57   58 1    
   115   58  135 1    
   116   58  136 1    
   117   59   60 am   BACKBONE|DICT|INTERRES
   118   59  137 1    
   119   60   61 2    
   120   60   62 1    
   121   62   63 1    
   122   62   64 1    
   123   62  138 1    
   124   63  139 1    
   125   63  140 1    
   126   63  141 1    
   127   64   65 am   BACKBONE|DICT|INTERRES
   128   64  142 1    
   129   65   66 2    
   130   65   67 1    
   131   67   68 1    
   132   67   69 1    
   133   67  143 1    
   134   68  144 1    
   135   68  145 1    
   136   68  146 1    
   137   69   70 am   BACKBONE|DICT|INTERRES
   138   69  147 1    
   139   70   71 2    
   140   70   72 1    
   141   72   73 1    
   142   72   74 1    
   143   72  148 1    
   144   73  149 1    
   145   73  150 1    
   146   73  151 1    
   147   74   75 am   BACKBONE|DICT|INTERRES
   148   74  152 1    
   149   75   76 2    
   150   75   77 1    
   151   77   78 1    
   152   77   79 1    
   153   77  153 1    
   154   78  154 1    
   155   78  155 1    
   156   78  156 1    
   157   79   80 am   BACKBONE|DICT|INTERRES
   158   79  157 1    
   159   80   81 2    
@<TRIPOS>SUBSTRUCTURE
     1 UNK         1 GROUP             0       ****    0 ROOT    
