@<TRIPOS>MOLECULE
3R207
157   159    1
SMALL
USER_CHARGES


@<TRIPOS>ATOM
      1 CA        -46.9736  -28.9419    4.5351 C.3       0 UNK        -0.1975 
      2 C         -47.5207  -27.5262    4.4374 C.2       0 UNK         0.4852 
      3 O         -46.8710  -26.6555    3.8566 O.2       0 UNK        -0.5216 
      4 N         -48.7109  -27.2860    5.0034 N.am      1 UNK        -0.4461 
      5 CA        -49.3536  -25.9696    5.0630 C.3       1 UNK         0.0864 
      6 C6        -50.8482  -26.0646    5.4686 C.3       14 UNK        -0.0898 
      7 S7        -51.1475  -26.8055    7.1115 S.3       14 UNK        -0.2598 
      8 C8        -51.7518  -28.4628    6.6644 C.3       14 UNK         0.0286 
      9 C9        -51.8385  -29.3458    7.8981 C.ar      14 UNK        -0.0844 
     10 C10       -50.6687  -29.8149    8.4979 C.ar      14 UNK        -0.0881 
     11 C11       -50.7216  -30.5847    9.6639 C.ar      14 UNK        -0.0643 
     12 C12       -51.9649  -30.9030   10.2207 C.ar      14 UNK        -0.0930 
     13 C13       -53.1448  -30.4649    9.6100 C.ar      14 UNK        -0.0827 
     14 C14       -53.0755  -29.6872    8.4495 C.ar      14 UNK        -0.1249 
     15 C15       -54.5023  -30.8370   10.1840 C.3       14 UNK         0.0141 
     16 S16       -55.2094  -29.4596   11.1371 S.3       14 UNK        -0.2313 
     17 C17       -54.8803  -29.9395   12.8697 C.3       14 UNK        -0.0915 
     18 CA        -56.0744  -29.5519   13.7852 C.3       13 UNK         0.0968 
     19 C         -55.9442  -30.1301   15.2241 C.2       13 UNK         0.5732 
     20 N         -56.1972  -29.3638   16.2805 N.am      13 UNK        -0.7310 
     21 O         -55.6379  -31.3084   15.3902 O.2       13 UNK        -0.5035 
     22 N         -56.2835  -28.0986   13.7739 N.am      13 UNK        -0.4233 
     23 C         -57.4392  -27.4704   13.5346 C.2       13 UNK         0.4989 
     24 O         -58.4988  -28.0519   13.2931 O.2       13 UNK        -0.4996 
     25 CA        -57.4010  -25.9281   13.5458 C.3       12 UNK         0.0216 
     26 CB        -58.7610  -25.2956   13.9132 C.3       12 UNK        -0.1964 
     27 N         -56.3199  -25.3751   14.3712 N.am      12 UNK        -0.4276 
     28 C         -56.1667  -25.5026   15.6962 C.2       12 UNK         0.5020 
     29 O         -56.9409  -26.1142   16.4366 O.2       12 UNK        -0.5489 
     30 CA        -54.8965  -24.8688   16.2858 C.3       11 UNK         0.0294 
     31 CB        -55.2491  -23.8357   17.3685 C.3       11 UNK        -0.2019 
     32 N         -53.9628  -25.8516   16.8414 N.am      11 UNK        -0.4493 
     33 C         -53.4986  -26.9433   16.2184 C.2       11 UNK         0.4932 
     34 O         -53.8603  -27.3194   15.1034 O.2       11 UNK        -0.5029 
     35 CA        -52.3505  -27.6680   16.9255 C.3       10 UNK         0.0280 
     36 CB        -52.2751  -29.1608   16.5546 C.3       10 UNK        -0.1976 
     37 N         -51.1414  -26.9879   16.4783 N.am      10 UNK        -0.4242 
     38 C         -50.4942  -26.0448   17.1745 C.2       10 UNK         0.5072 
     39 O         -50.6928  -25.8112   18.3676 O.2       10 UNK        -0.5224 
     40 CA        -49.5026  -25.1699   16.3878 C.3       9 UNK         0.0343 
     41 CB        -48.2094  -25.9406   16.0783 C.3       9 UNK        -0.2003 
     42 N         -50.0860  -24.6420   15.1486 N.am      9 UNK        -0.4272 
     43 C         -51.1198  -23.7842   15.0972 C.2       9 UNK         0.4988 
     44 O         -51.6662  -23.3080   16.0921 O.2       9 UNK        -0.5108 
     45 CA        -51.6441  -23.3920   13.7081 C.3       8 UNK         0.0248 
     46 CB        -50.7941  -22.2633   13.1008 C.3       8 UNK        -0.2001 
     47 N         -51.6520  -24.5476   12.8115 N.am      8 UNK        -0.4140 
     48 C         -52.7293  -25.3025   12.5515 C.2       8 UNK         0.5028 
     49 O         -53.8676  -25.0180   12.9321 O.2       8 UNK        -0.5428 
     50 CA        -52.5231  -26.5752   11.7036 C.3       7 UNK         0.0264 
     51 CB        -53.0763  -26.3537   10.2884 C.3       7 UNK        -0.1988 
     52 N         -51.1271  -27.0245   11.6098 N.am      7 UNK        -0.4454 
     53 C         -50.4258  -27.5417   12.6303 C.2       7 UNK         0.5027 
     54 O         -50.9019  -27.7487   13.7443 O.2       7 UNK        -0.5083 
     55 CA        -48.9117  -27.7671   12.4353 C.3       6 UNK         0.0844 
     56 C56       -48.5202  -29.2601   12.2580 C.3       14 UNK        -0.0967 
     57 S57       -48.1973  -29.7986   10.5440 S.3       14 UNK        -0.2604 
     58 C58       -49.4350  -31.1109   10.2836 C.3       14 UNK         0.0134 
     59 N         -48.2982  -26.8579   11.4609 N.am      6 UNK        -0.4116 
     60 C         -48.2396  -25.5262   11.5968 C.2       5 UNK         0.5034 
     61 O         -48.7392  -24.9352   12.5563 O.2       5 UNK        -0.5045 
     62 CA        -47.5711  -24.7071   10.4757 C.3       5 UNK         0.0224 
     63 CB        -46.7119  -23.5554   11.0363 C.3       5 UNK        -0.1978 
     64 N         -46.8157  -25.4950    9.4923 N.am      5 UNK        -0.4737 
     65 C         -45.7059  -26.2247    9.6843 C.2       4 UNK         0.5027 
     66 O         -45.1620  -26.3849   10.7762 O.2       4 UNK        -0.5211 
     67 CA        -45.1009  -26.8834    8.4363 C.3       4 UNK         0.0297 
     68 CB        -45.8836  -28.1500    8.0546 C.3       4 UNK        -0.1993 
     69 N         -45.0971  -25.9512    7.3076 N.am      4 UNK        -0.4486 
     70 C         -44.0569  -25.1782    6.9642 C.2       3 UNK         0.4961 
     71 O         -42.9566  -25.2252    7.5154 O.2       3 UNK        -0.5105 
     72 CA        -44.2660  -24.1803    5.8091 C.3       3 UNK         0.0299 
     73 CB        -43.7915  -24.7896    4.4802 C.3       3 UNK        -0.1972 
     74 N         -45.6569  -23.7415    5.6743 N.am      3 UNK        -0.4305 
     75 C         -46.2729  -22.9074    6.5262 C.2       2 UNK         0.5006 
     76 O         -45.7013  -22.3427    7.4589 O.2       2 UNK        -0.5106 
     77 CA        -47.7839  -22.6682    6.3263 C.3       2 UNK         0.0296 
     78 CB        -48.0242  -21.3229    5.6217 C.3       2 UNK        -0.2002 
     79 N         -48.4918  -23.7281    5.5954 N.am      2 UNK        -0.4032 
     80 C         -48.5552  -25.0126    5.9729 C.2       1 UNK         0.5000 
     81 O         -47.9903  -25.4537    6.9781 O.2       1 UNK        -0.5238 
     82 H82       -45.9147  -28.9191    4.7906 H         1 UNK         0.0889 
     83 H83       -47.0805  -29.4510    3.5778 H         1 UNK         0.0889 
     84 H84       -47.4925  -29.5258    5.2951 H         1 UNK         0.0889 
     85 H85       -49.1807  -28.0193    5.5118 H         1 UNK         0.3028 
     86 H86       -49.3206  -25.5588    4.0513 H         1 UNK         0.0864 
     87 H87       -51.3951  -26.6334    4.7149 H         1 UNK         0.0720 
     88 H88       -51.3019  -25.0718    5.4622 H         1 UNK         0.0720 
     89 H89       -51.0834  -28.9229    5.9360 H         1 UNK         0.0814 
     90 H90       -52.7259  -28.3730    6.1809 H         1 UNK         0.0814 
     91 H91       -49.7103  -29.5642    8.0643 H         1 UNK         0.1469 
     92 H92       -52.0168  -31.5051   11.1175 H         1 UNK         0.1381 
     93 H93       -53.9873  -29.3341    7.9873 H         1 UNK         0.1206 
     94 H94       -54.4365  -31.7416   10.7893 H         1 UNK         0.0813 
     95 H95       -55.1836  -31.0762    9.3662 H         1 UNK         0.0813 
     96 H96       -53.9603  -29.4563   13.2039 H         1 UNK         0.0638 
     97 H97       -54.6986  -31.0139   12.9158 H         1 UNK         0.0638 
     98 H98       -56.9598  -30.0422   13.3774 H         1 UNK         0.0568 
     99 H99       -56.4596  -28.3947   16.1635 H         1 UNK         0.3450 
    100 H100      -56.1282  -29.7604   17.2034 H         1 UNK         0.3450 
    101 H101      -55.4654  -27.5561   14.0386 H         1 UNK         0.2987 
    102 H102      -57.1690  -25.6335   12.5213 H         1 UNK         0.0766 
    103 H103      -58.7083  -24.2070   13.9028 H         1 UNK         0.0798 
    104 H104      -59.0988  -25.6064   14.9023 H         1 UNK         0.0798 
    105 H105      -59.5339  -25.5872   13.2009 H         1 UNK         0.0798 
    106 H106      -55.5340  -24.9890   13.8471 H         1 UNK         0.3198 
    107 H107      -54.3650  -24.3438   15.4900 H         1 UNK         0.0843 
    108 H108      -55.7267  -24.3023   18.2311 H         1 UNK         0.0831 
    109 H109      -55.9389  -23.0848   16.9806 H         1 UNK         0.0831 
    110 H110      -54.3610  -23.3079   17.7173 H         1 UNK         0.0831 
    111 H111      -53.5684  -25.6237   17.7428 H         1 UNK         0.3133 
    112 H112      -52.4799  -27.5872   18.0068 H         1 UNK         0.0566 
    113 H113      -51.4305  -29.6463   17.0432 H         1 UNK         0.0814 
    114 H114      -53.1791  -29.6830   16.8693 H         1 UNK         0.0814 
    115 H115      -52.1707  -29.3143   15.4800 H         1 UNK         0.0814 
    116 H116      -50.9423  -27.0988   15.4852 H         1 UNK         0.3091 
    117 H117      -49.2415  -24.3138   17.0135 H         1 UNK         0.0702 
    118 H118      -47.5250  -25.3488   15.4698 H         1 UNK         0.0785 
    119 H119      -48.4089  -26.8739   15.5538 H         1 UNK         0.0785 
    120 H120      -47.6858  -26.1976   16.9999 H         1 UNK         0.0785 
    121 H121      -49.6432  -24.9184   14.2781 H         1 UNK         0.2998 
    122 H122      -52.6596  -23.0097   13.8319 H         1 UNK         0.0697 
    123 H123      -49.7490  -22.5505   12.9844 H         1 UNK         0.0825 
    124 H124      -50.8167  -21.3774   13.7367 H         1 UNK         0.0825 
    125 H125      -51.1708  -21.9681   12.1215 H         1 UNK         0.0825 
    126 H126      -50.7489  -24.8472   12.4639 H         1 UNK         0.3029 
    127 H127      -53.1010  -27.3706   12.1789 H         1 UNK         0.0897 
    128 H128      -54.1292  -26.0704   10.3202 H         1 UNK         0.0792 
    129 H129      -53.0089  -27.2623    9.6935 H         1 UNK         0.0792 
    130 H130      -52.5387  -25.5652    9.7606 H         1 UNK         0.0792 
    131 H131      -50.6671  -26.9020   10.7192 H         1 UNK         0.3086 
    132 H132      -48.4769  -27.4748   13.3915 H         1 UNK         0.0583 
    133 H133      -47.5927  -29.4392   12.8044 H         1 UNK         0.1020 
    134 H134      -49.2483  -29.9202   12.7339 H         1 UNK         0.1020 
    135 H135      -49.0101  -31.8500    9.6032 H         1 UNK         0.0694 
    136 H136      -49.6282  -31.6379   11.2190 H         1 UNK         0.0694 
    137 H137      -47.8749  -27.2890   10.6517 H         1 UNK         0.2989 
    138 H138      -48.3934  -24.2564    9.9177 H         1 UNK         0.1055 
    139 H139      -47.3105  -22.8792   11.6480 H         1 UNK         0.0806 
    140 H140      -46.2748  -22.9613   10.2336 H         1 UNK         0.0806 
    141 H141      -45.8991  -23.9241   11.6625 H         1 UNK         0.0806 
    142 H142      -47.2089  -25.4795    8.5500 H         1 UNK         0.3061 
    143 H143      -44.0784  -27.1834    8.6762 H         1 UNK         0.0734 
    144 H144      -45.4333  -28.6458    7.1955 H         1 UNK         0.0832 
    145 H145      -45.8790  -28.8680    8.8751 H         1 UNK         0.0832 
    146 H146      -46.9251  -27.9339    7.8124 H         1 UNK         0.0832 
    147 H147      -45.9869  -25.8022    6.8448 H         1 UNK         0.3156 
    148 H148      -43.6504  -23.3021    6.0158 H         1 UNK         0.0589 
    149 H149      -44.3626  -25.6803    4.2161 H         1 UNK         0.0808 
    150 H150      -43.8813  -24.0766    3.6605 H         1 UNK         0.0808 
    151 H151      -42.7424  -25.0829    4.5395 H         1 UNK         0.0808 
    152 H152      -46.1962  -24.1622    4.9303 H         1 UNK         0.3098 
    153 H153      -48.2279  -22.6140    7.3227 H         1 UNK         0.0720 
    154 H154      -49.0866  -21.0833    5.5724 H         1 UNK         0.0791 
    155 H155      -47.6307  -21.3241    4.6044 H         1 UNK         0.0791 
    156 H156      -47.5365  -20.5077    6.1584 H         1 UNK         0.0791 
    157 H157      -48.9728  -23.4447    4.7535 H         1 UNK         0.3028 
@<TRIPOS>BOND
     1    1    2 1    
     2    1   82 1    
     3    1   83 1    
     4    1   84 1    
     5    2    3 2    
     6    2    4 am   BACKBONE|DICT|INTERRES
     7    4    5 1    
     8    4   85 1    
     9    5    6 1    
    10    5   80 1    
    11    5   86 1    
    12    6    7 1    
    13    6   87 1    
    14    6   88 1    
    15    7    8 1    
    16    8    9 1    
    17    8   89 1    
    18    8   90 1    
    19    9   10 ar   
    20    9   14 ar   
    21   10   11 ar   
    22   10   91 1    
    23   11   12 ar   
    24   11   58 1    
    25   12   13 ar   
    26   12   92 1    
    27   13   14 ar   
    28   13   15 1    
    29   14   93 1    
    30   15   16 1    
    31   15   94 1    
    32   15   95 1    
    33   16   17 1    
    34   17   18 1    
    35   17   96 1    
    36   17   97 1    
    37   18   19 1    
    38   18   22 1    
    39   18   98 1    
    40   19   20 am   BACKBONE|DICT|INTERRES
    41   19   21 2    
    42   20   99 1    
    43   20  100 1    
    44   22   23 am   BACKBONE|DICT|INTERRES
    45   22  101 1    
    46   23   24 2    
    47   23   25 1    
    48   25   26 1    
    49   25   27 1    
    50   25  102 1    
    51   26  103 1    
    52   26  104 1    
    53   26  105 1    
    54   27   28 am   BACKBONE|DICT|INTERRES
    55   27  106 1    
    56   28   29 2    
    57   28   30 1    
    58   30   31 1    
    59   30   32 1    
    60   30  107 1    
    61   31  108 1    
    62   31  109 1    
    63   31  110 1    
    64   32   33 am   BACKBONE|DICT|INTERRES
    65   32  111 1    
    66   33   34 2    
    67   33   35 1    
    68   35   36 1    
    69   35   37 1    
    70   35  112 1    
    71   36  113 1    
    72   36  114 1    
    73   36  115 1    
    74   37   38 am   BACKBONE|DICT|INTERRES
    75   37  116 1    
    76   38   39 2    
    77   38   40 1    
    78   40   41 1    
    79   40   42 1    
    80   40  117 1    
    81   41  118 1    
    82   41  119 1    
    83   41  120 1    
    84   42   43 am   BACKBONE|DICT|INTERRES
    85   42  121 1    
    86   43   44 2    
    87   43   45 1    
    88   45   46 1    
    89   45   47 1    
    90   45  122 1    
    91   46  123 1    
    92   46  124 1    
    93   46  125 1    
    94   47   48 am   BACKBONE|DICT|INTERRES
    95   47  126 1    
    96   48   49 2    
    97   48   50 1    
    98   50   51 1    
    99   50   52 1    
   100   50  127 1    
   101   51  128 1    
   102   51  129 1    
   103   51  130 1    
   104   52   53 am   BACKBONE|DICT|INTERRES
   105   52  131 1    
   106   53   54 2    
   107   53   55 1    
   108   55   56 1    
   109   55   59 1    
   110   55  132 1    
   111   56   57 1    
   112   56  133 1    
   113   56  134 1    
   114   57   58 1    
   115   58  135 1    
   116   58  136 1    
   117   59   60 am   BACKBONE|DICT|INTERRES
   118   59  137 1    
   119   60   61 2    
   120   60   62 1    
   121   62   63 1    
   122   62   64 1    
   123   62  138 1    
   124   63  139 1    
   125   63  140 1    
   126   63  141 1    
   127   64   65 am   BACKBONE|DICT|INTERRES
   128   64  142 1    
   129   65   66 2    
   130   65   67 1    
   131   67   68 1    
   132   67   69 1    
   133   67  143 1    
   134   68  144 1    
   135   68  145 1    
   136   68  146 1    
   137   69   70 am   BACKBONE|DICT|INTERRES
   138   69  147 1    
   139   70   71 2    
   140   70   72 1    
   141   72   73 1    
   142   72   74 1    
   143   72  148 1    
   144   73  149 1    
   145   73  150 1    
   146   73  151 1    
   147   74   75 am   BACKBONE|DICT|INTERRES
   148   74  152 1    
   149   75   76 2    
   150   75   77 1    
   151   77   78 1    
   152   77   79 1    
   153   77  153 1    
   154   78  154 1    
   155   78  155 1    
   156   78  156 1    
   157   79   80 am   BACKBONE|DICT|INTERRES
   158   79  157 1    
   159   80   81 2    
@<TRIPOS>SUBSTRUCTURE
     1 UNK         1 GROUP             0       ****    0 ROOT    
