@<TRIPOS>MOLECULE
3R207
157   159    1
SMALL
USER_CHARGES


@<TRIPOS>ATOM
      1 CA        -47.9845  -30.8635   10.5351 C.3       0 UNK        -0.1975 
      2 C         -48.2662  -30.3791    9.1203 C.2       0 UNK         0.4852 
      3 O         -48.4410  -31.1964    8.2163 O.2       0 UNK        -0.5216 
      4 N         -48.3011  -29.0546    8.9199 N.am      1 UNK        -0.4461 
      5 CA        -48.5704  -28.4068    7.6270 C.3       1 UNK         0.0864 
      6 C6        -49.0476  -26.9418    7.7958 C.3       14 UNK        -0.0898 
      7 S7        -50.4589  -26.7576    8.9317 S.3       14 UNK        -0.2598 
      8 C8        -51.8867  -26.8096    7.8047 C.3       14 UNK         0.0286 
      9 C9        -53.0981  -26.1951    8.4869 C.ar      14 UNK        -0.0844 
     10 C10       -53.4522  -24.8705    8.2224 C.ar      14 UNK        -0.0881 
     11 C11       -54.4790  -24.2521    8.9412 C.ar      14 UNK        -0.0643 
     12 C12       -55.1920  -24.9927    9.8899 C.ar      14 UNK        -0.0930 
     13 C13       -54.8766  -26.3330   10.1378 C.ar      14 UNK        -0.0827 
     14 C14       -53.8269  -26.9265    9.4284 C.ar      14 UNK        -0.1249 
     15 C15       -55.6317  -27.0996   11.2202 C.3       14 UNK         0.0141 
     16 S16       -56.3285  -28.6817   10.6509 S.3       14 UNK        -0.2313 
     17 C17       -55.0241  -29.8585   11.1512 C.3       14 UNK        -0.0915 
     18 CA        -55.4074  -30.6731   12.4166 C.3       13 UNK         0.0968 
     19 C         -54.4690  -31.8975   12.6358 C.2       13 UNK         0.5732 
     20 N         -54.0371  -32.2103   13.8522 N.am      13 UNK        -0.7310 
     21 O         -54.1369  -32.5997   11.6837 O.2       13 UNK        -0.5035 
     22 N         -55.5092  -29.8103   13.6060 N.am      13 UNK        -0.4233 
     23 C         -56.5079  -29.8499   14.4968 C.2       13 UNK         0.4989 
     24 O         -57.5132  -30.5517   14.3672 O.2       13 UNK        -0.4996 
     25 CA        -56.3465  -28.9679   15.7545 C.3       12 UNK         0.0216 
     26 CB        -57.3491  -29.3272   16.8716 C.3       12 UNK        -0.1964 
     27 N         -54.9782  -28.9477   16.2896 N.am      12 UNK        -0.4276 
     28 C         -54.2230  -30.0018   16.6428 C.2       12 UNK         0.5020 
     29 O         -54.6129  -31.1681   16.5750 O.2       12 UNK        -0.5489 
     30 CA        -52.7767  -29.7344   17.1036 C.3       11 UNK         0.0294 
     31 CB        -51.7805  -30.5667   16.2753 C.3       11 UNK        -0.2019 
     32 N         -52.4100  -28.3236   16.9811 N.am      11 UNK        -0.4493 
     33 C         -52.3836  -27.4328   17.9816 C.2       11 UNK         0.4932 
     34 O         -52.6055  -27.7156   19.1588 O.2       11 UNK        -0.5029 
     35 CA        -52.0773  -25.9694   17.6033 C.3       10 UNK         0.0280 
     36 CB        -50.5935  -25.6526   17.8481 C.3       10 UNK        -0.1976 
     37 N         -52.4137  -25.6414   16.2136 N.am      10 UNK        -0.4242 
     38 C         -53.6533  -25.6562   15.7000 C.2       10 UNK         0.5072 
     39 O         -54.6650  -25.8883   16.3615 O.2       10 UNK        -0.5224 
     40 CA        -53.7780  -25.4837   14.1774 C.3       9 UNK         0.0343 
     41 CB        -53.9642  -24.0070   13.8047 C.3       9 UNK        -0.2003 
     42 N         -52.6379  -26.0588   13.4497 N.am      9 UNK        -0.4272 
     43 C         -52.3522  -27.3721   13.4357 C.2       9 UNK         0.4988 
     44 O         -53.0915  -28.2182   13.9408 O.2       9 UNK        -0.5108 
     45 CA        -51.0272  -27.8425   12.8100 C.3       8 UNK         0.0248 
     46 CB        -51.2582  -28.9274   11.7474 C.3       8 UNK        -0.2001 
     47 N         -50.2182  -26.7616   12.2434 N.am      8 UNK        -0.4140 
     48 C         -49.4051  -25.9706   12.9562 C.2       8 UNK         0.5028 
     49 O         -49.2774  -26.0468   14.1788 O.2       8 UNK        -0.5428 
     50 CA        -48.6289  -24.8948   12.1772 C.3       7 UNK         0.0264 
     51 CB        -47.3482  -25.4861   11.5667 C.3       7 UNK        -0.1988 
     52 N         -49.4092  -24.2493   11.1184 N.am      7 UNK        -0.4454 
     53 C         -50.5398  -23.5529   11.2953 C.2       7 UNK         0.5027 
     54 O         -51.0840  -23.4178   12.3916 O.2       7 UNK        -0.5083 
     55 CA        -51.1481  -22.8931   10.0391 C.3       6 UNK         0.0844 
     56 C56       -52.5031  -22.1900   10.3209 C.3       14 UNK        -0.0967 
     57 S57       -53.3351  -21.6842    8.7737 S.3       14 UNK        -0.2604 
     58 C58       -54.8027  -22.7761    8.7257 C.3       14 UNK         0.0134 
     59 N         -50.1874  -21.9804    9.4102 N.am      6 UNK        -0.4116 
     60 C         -49.1813  -22.3442    8.6055 C.2       5 UNK         0.5034 
     61 O         -48.9617  -23.5141    8.2879 O.2       5 UNK        -0.5045 
     62 CA        -48.2663  -21.2318    8.0532 C.3       5 UNK         0.0224 
     63 CB        -48.4422  -19.8587    8.7437 C.3       5 UNK        -0.1978 
     64 N         -46.8543  -21.6373    8.0536 N.am      5 UNK        -0.4737 
     65 C         -46.1073  -21.9816    9.1147 C.2       4 UNK         0.5027 
     66 O         -46.5071  -21.9442   10.2797 O.2       4 UNK        -0.5211 
     67 CA        -44.6591  -22.4202    8.8090 C.3       4 UNK         0.0297 
     68 CB        -43.9838  -23.1482    9.9919 C.3       4 UNK        -0.1993 
     69 N         -44.5372  -23.2016    7.5683 N.am      4 UNK        -0.4486 
     70 C         -45.0865  -24.3981    7.3068 C.2       3 UNK         0.4961 
     71 O         -45.7851  -25.0232    8.1075 O.2       3 UNK        -0.5105 
     72 CA        -44.8457  -24.9737    5.8931 C.3       3 UNK         0.0299 
     73 CB        -43.4853  -24.5715    5.2775 C.3       3 UNK        -0.1972 
     74 N         -45.0366  -26.4284    5.8523 N.am      3 UNK        -0.4305 
     75 C         -44.3154  -27.3647    6.4862 C.2       2 UNK         0.5006 
     76 O         -43.2745  -27.1394    7.1073 O.2       2 UNK        -0.5106 
     77 CA        -44.8981  -28.7905    6.4501 C.3       2 UNK         0.0296 
     78 CB        -43.9508  -29.8402    7.0619 C.3       2 UNK        -0.2002 
     79 N         -46.1747  -28.8294    7.1663 N.am      2 UNK        -0.4032 
     80 C         -47.3597  -28.4486    6.6664 C.2       1 UNK         0.5000 
     81 O         -47.5072  -28.0923    5.4949 O.2       1 UNK        -0.5238 
     82 H82       -47.8190  -30.0367   11.2257 H         1 UNK         0.0889 
     83 H83       -47.0969  -31.4956   10.5453 H         1 UNK         0.0889 
     84 H84       -48.8248  -31.4512   10.9039 H         1 UNK         0.0889 
     85 H85       -48.1681  -28.4269    9.6990 H         1 UNK         0.3028 
     86 H86       -49.3740  -28.9606    7.1366 H         1 UNK         0.0864 
     87 H87       -49.3114  -26.5039    6.8313 H         1 UNK         0.0720 
     88 H88       -48.2378  -26.3226    8.1873 H         1 UNK         0.0720 
     89 H89       -51.6577  -26.2693    6.8850 H         1 UNK         0.0814 
     90 H90       -52.0926  -27.8426    7.5205 H         1 UNK         0.0814 
     91 H91       -52.8888  -24.2985    7.4976 H         1 UNK         0.1469 
     92 H92       -55.9843  -24.5170   10.4517 H         1 UNK         0.1381 
     93 H93       -53.5578  -27.9533    9.6195 H         1 UNK         0.1206 
     94 H94       -54.9639  -27.2845   12.0577 H         1 UNK         0.0813 
     95 H95       -56.4508  -26.4961   11.6137 H         1 UNK         0.0813 
     96 H96       -54.8589  -30.5174   10.2972 H         1 UNK         0.0638 
     97 H97       -54.0836  -29.3356   11.3162 H         1 UNK         0.0638 
     98 H98       -56.3824  -31.1194   12.2147 H         1 UNK         0.0568 
     99 H99       -54.3424  -31.7002   14.6736 H         1 UNK         0.3450 
    100 H100      -53.4401  -33.0138   13.9607 H         1 UNK         0.3450 
    101 H101      -54.6924  -29.2375   13.8037 H         1 UNK         0.2987 
    102 H102      -56.5616  -27.9474   15.4337 H         1 UNK         0.0766 
    103 H103      -57.2379  -28.6660   17.7310 H         1 UNK         0.0798 
    104 H104      -58.3781  -29.2312   16.5226 H         1 UNK         0.0798 
    105 H105      -57.2160  -30.3528   17.2178 H         1 UNK         0.0798 
    106 H106      -54.5713  -28.0238   16.3777 H         1 UNK         0.3198 
    107 H107      -52.7057  -30.0530   18.1457 H         1 UNK         0.0843 
    108 H108      -51.8486  -30.3388   15.2107 H         1 UNK         0.0831 
    109 H109      -51.9699  -31.6347   16.3908 H         1 UNK         0.0831 
    110 H110      -50.7531  -30.3875   16.5923 H         1 UNK         0.0831 
    111 H111      -52.2462  -27.9973   16.0381 H         1 UNK         0.3133 
    112 H112      -52.6778  -25.3292   18.2530 H         1 UNK         0.0566 
    113 H113      -49.9422  -26.2419   17.2007 H         1 UNK         0.0814 
    114 H114      -50.3120  -25.8699   18.8796 H         1 UNK         0.0814 
    115 H115      -50.3775  -24.5988   17.6707 H         1 UNK         0.0814 
    116 H116      -51.6388  -25.4523   15.5921 H         1 UNK         0.3091 
    117 H117      -54.6804  -26.0158   13.8752 H         1 UNK         0.0702 
    118 H118      -54.1239  -23.8904   12.7336 H         1 UNK         0.0785 
    119 H119      -53.1018  -23.4036   14.0895 H         1 UNK         0.0785 
    120 H120      -54.8355  -23.5857   14.3079 H         1 UNK         0.0785 
    121 H121      -51.9934  -25.4058   13.0212 H         1 UNK         0.2998 
    122 H122      -50.4591  -28.3062   13.6194 H         1 UNK         0.0697 
    123 H123      -51.8259  -28.5484   10.9008 H         1 UNK         0.0825 
    124 H124      -51.8055  -29.7759   12.1606 H         1 UNK         0.0825 
    125 H125      -50.3143  -29.3123   11.3660 H         1 UNK         0.0825 
    126 H126      -50.2895  -26.6121   11.2439 H         1 UNK         0.3029 
    127 H127      -48.3420  -24.1185   12.8897 H         1 UNK         0.0897 
    128 H128      -46.7449  -24.7116   11.0926 H         1 UNK         0.0792 
    129 H129      -46.7290  -25.9568   12.3316 H         1 UNK         0.0792 
    130 H130      -47.5694  -26.2405   10.8111 H         1 UNK         0.0792 
    131 H131      -49.0346  -24.2930   10.1748 H         1 UNK         0.3086 
    132 H132      -51.3372  -23.7125    9.3462 H         1 UNK         0.0583 
    133 H133      -53.1694  -22.8457   10.8818 H         1 UNK         0.1020 
    134 H134      -52.3581  -21.3091   10.9488 H         1 UNK         0.1020 
    135 H135      -55.5120  -22.4256    9.4773 H         1 UNK         0.0694 
    136 H136      -55.2958  -22.6609    7.7597 H         1 UNK         0.0694 
    137 H137      -50.2906  -21.0030    9.6379 H         1 UNK         0.2989 
    138 H138      -48.5493  -21.1120    7.0061 H         1 UNK         0.1055 
    139 H139      -47.7559  -19.1216    8.3267 H         1 UNK         0.0806 
    140 H140      -48.2540  -19.9110    9.8169 H         1 UNK         0.0806 
    141 H141      -49.4491  -19.4651    8.5989 H         1 UNK         0.0806 
    142 H142      -46.4332  -21.7417    7.1413 H         1 UNK         0.3061 
    143 H143      -44.1026  -21.4970    8.6402 H         1 UNK         0.0734 
    144 H144      -43.9631  -22.5161   10.8805 H         1 UNK         0.0832 
    145 H145      -44.5103  -24.0644   10.2591 H         1 UNK         0.0832 
    146 H146      -42.9521  -23.4111    9.7590 H         1 UNK         0.0832 
    147 H147      -43.9855  -22.7724    6.8381 H         1 UNK         0.3156 
    148 H148      -45.6305  -24.5570    5.2603 H         1 UNK         0.0589 
    149 H149      -42.6510  -24.8159    5.9364 H         1 UNK         0.0808 
    150 H150      -43.3167  -25.0810    4.3286 H         1 UNK         0.0808 
    151 H151      -43.4397  -23.5020    5.0707 H         1 UNK         0.0808 
    152 H152      -45.9061  -26.7411    5.4329 H         1 UNK         0.3098 
    153 H153      -45.0602  -29.0574    5.4035 H         1 UNK         0.0720 
    154 H154      -44.3701  -30.8437    6.9855 H         1 UNK         0.0791 
    155 H155      -42.9922  -29.8501    6.5415 H         1 UNK         0.0791 
    156 H156      -43.7488  -29.6407    8.1152 H         1 UNK         0.0791 
    157 H157      -46.1344  -29.0685    8.1458 H         1 UNK         0.3028 
@<TRIPOS>BOND
     1    1    2 1    
     2    1   82 1    
     3    1   83 1    
     4    1   84 1    
     5    2    3 2    
     6    2    4 am   BACKBONE|DICT|INTERRES
     7    4    5 1    
     8    4   85 1    
     9    5    6 1    
    10    5   80 1    
    11    5   86 1    
    12    6    7 1    
    13    6   87 1    
    14    6   88 1    
    15    7    8 1    
    16    8    9 1    
    17    8   89 1    
    18    8   90 1    
    19    9   10 ar   
    20    9   14 ar   
    21   10   11 ar   
    22   10   91 1    
    23   11   12 ar   
    24   11   58 1    
    25   12   13 ar   
    26   12   92 1    
    27   13   14 ar   
    28   13   15 1    
    29   14   93 1    
    30   15   16 1    
    31   15   94 1    
    32   15   95 1    
    33   16   17 1    
    34   17   18 1    
    35   17   96 1    
    36   17   97 1    
    37   18   19 1    
    38   18   22 1    
    39   18   98 1    
    40   19   20 am   BACKBONE|DICT|INTERRES
    41   19   21 2    
    42   20   99 1    
    43   20  100 1    
    44   22   23 am   BACKBONE|DICT|INTERRES
    45   22  101 1    
    46   23   24 2    
    47   23   25 1    
    48   25   26 1    
    49   25   27 1    
    50   25  102 1    
    51   26  103 1    
    52   26  104 1    
    53   26  105 1    
    54   27   28 am   BACKBONE|DICT|INTERRES
    55   27  106 1    
    56   28   29 2    
    57   28   30 1    
    58   30   31 1    
    59   30   32 1    
    60   30  107 1    
    61   31  108 1    
    62   31  109 1    
    63   31  110 1    
    64   32   33 am   BACKBONE|DICT|INTERRES
    65   32  111 1    
    66   33   34 2    
    67   33   35 1    
    68   35   36 1    
    69   35   37 1    
    70   35  112 1    
    71   36  113 1    
    72   36  114 1    
    73   36  115 1    
    74   37   38 am   BACKBONE|DICT|INTERRES
    75   37  116 1    
    76   38   39 2    
    77   38   40 1    
    78   40   41 1    
    79   40   42 1    
    80   40  117 1    
    81   41  118 1    
    82   41  119 1    
    83   41  120 1    
    84   42   43 am   BACKBONE|DICT|INTERRES
    85   42  121 1    
    86   43   44 2    
    87   43   45 1    
    88   45   46 1    
    89   45   47 1    
    90   45  122 1    
    91   46  123 1    
    92   46  124 1    
    93   46  125 1    
    94   47   48 am   BACKBONE|DICT|INTERRES
    95   47  126 1    
    96   48   49 2    
    97   48   50 1    
    98   50   51 1    
    99   50   52 1    
   100   50  127 1    
   101   51  128 1    
   102   51  129 1    
   103   51  130 1    
   104   52   53 am   BACKBONE|DICT|INTERRES
   105   52  131 1    
   106   53   54 2    
   107   53   55 1    
   108   55   56 1    
   109   55   59 1    
   110   55  132 1    
   111   56   57 1    
   112   56  133 1    
   113   56  134 1    
   114   57   58 1    
   115   58  135 1    
   116   58  136 1    
   117   59   60 am   BACKBONE|DICT|INTERRES
   118   59  137 1    
   119   60   61 2    
   120   60   62 1    
   121   62   63 1    
   122   62   64 1    
   123   62  138 1    
   124   63  139 1    
   125   63  140 1    
   126   63  141 1    
   127   64   65 am   BACKBONE|DICT|INTERRES
   128   64  142 1    
   129   65   66 2    
   130   65   67 1    
   131   67   68 1    
   132   67   69 1    
   133   67  143 1    
   134   68  144 1    
   135   68  145 1    
   136   68  146 1    
   137   69   70 am   BACKBONE|DICT|INTERRES
   138   69  147 1    
   139   70   71 2    
   140   70   72 1    
   141   72   73 1    
   142   72   74 1    
   143   72  148 1    
   144   73  149 1    
   145   73  150 1    
   146   73  151 1    
   147   74   75 am   BACKBONE|DICT|INTERRES
   148   74  152 1    
   149   75   76 2    
   150   75   77 1    
   151   77   78 1    
   152   77   79 1    
   153   77  153 1    
   154   78  154 1    
   155   78  155 1    
   156   78  156 1    
   157   79   80 am   BACKBONE|DICT|INTERRES
   158   79  157 1    
   159   80   81 2    
@<TRIPOS>SUBSTRUCTURE
     1 UNK         1 GROUP             0       ****    0 ROOT    
