@<TRIPOS>MOLECULE
3R207
157   159    1
SMALL
USER_CHARGES


@<TRIPOS>ATOM
      1 CA        -46.7111  -32.2507    8.3268 C.3       0 UNK        -0.1975 
      2 C         -47.5750  -31.2113    7.6262 C.2       0 UNK         0.4852 
      3 O         -48.4259  -30.6073    8.2756 O.2       0 UNK        -0.5216 
      4 N         -47.3455  -31.0201    6.3185 N.am      1 UNK        -0.4461 
      5 CA        -47.9847  -30.0638    5.4006 C.3       1 UNK         0.0864 
      6 C6        -49.4173  -30.4775    4.9329 C.3       14 UNK        -0.0898 
      7 S7        -50.7768  -30.2219    6.1260 S.3       14 UNK        -0.2598 
      8 C8        -51.9016  -29.1177    5.2161 C.3       14 UNK         0.0286 
      9 C9        -52.9989  -28.6052    6.1344 C.ar      14 UNK        -0.0844 
     10 C10       -52.7382  -27.5366    6.9947 C.ar      14 UNK        -0.0881 
     11 C11       -53.7194  -27.0821    7.8785 C.ar      14 UNK        -0.0643 
     12 C12       -54.9825  -27.6783    7.8750 C.ar      14 UNK        -0.0930 
     13 C13       -55.2494  -28.7659    7.0359 C.ar      14 UNK        -0.0827 
     14 C14       -54.2560  -29.2166    6.1589 C.ar      14 UNK        -0.1249 
     15 C15       -56.5914  -29.4897    7.0958 C.3       14 UNK         0.0141 
     16 S16       -57.1551  -29.8663    8.7946 S.3       14 UNK        -0.2313 
     17 C17       -55.7225  -30.7409    9.5241 C.3       14 UNK        -0.0915 
     18 CA        -55.5117  -30.3949   11.0244 C.3       13 UNK         0.0968 
     19 C         -54.3357  -31.2103   11.6372 C.2       13 UNK         0.5732 
     20 N         -53.3137  -30.5849   12.2103 N.am      13 UNK        -0.7310 
     21 O         -54.3585  -32.4386   11.6046 O.2       13 UNK        -0.5035 
     22 N         -55.4223  -28.9422   11.2565 N.am      13 UNK        -0.4233 
     23 C         -55.8093  -28.3358   12.3845 C.2       13 UNK         0.4989 
     24 O         -56.2871  -28.9262   13.3570 O.2       13 UNK        -0.4996 
     25 CA        -55.6944  -26.8026   12.4056 C.3       12 UNK         0.0216 
     26 CB        -56.9271  -26.1607   11.7475 C.3       12 UNK        -0.1964 
     27 N         -55.5573  -26.2926   13.7713 N.am      12 UNK        -0.4276 
     28 C         -54.4288  -26.3531   14.4873 C.2       12 UNK         0.5020 
     29 O         -53.3583  -26.7846   14.0549 O.2       12 UNK        -0.5489 
     30 CA        -54.5125  -25.8743   15.9394 C.3       11 UNK         0.0294 
     31 CB        -54.8137  -27.0589   16.8779 C.3       11 UNK        -0.2019 
     32 N         -53.2417  -25.2490   16.2944 N.am      11 UNK        -0.4493 
     33 C         -53.0190  -24.4728   17.3624 C.2       11 UNK         0.4932 
     34 O         -53.8901  -24.1790   18.1833 O.2       11 UNK        -0.5029 
     35 CA        -51.5873  -23.9253   17.5333 C.3       10 UNK         0.0280 
     36 CB        -51.2824  -23.4418   18.9672 C.3       10 UNK        -0.1976 
     37 N         -50.5667  -24.8628   17.0554 N.am      10 UNK        -0.4242 
     38 C         -50.2657  -26.0768   17.5392 C.2       10 UNK         0.5072 
     39 O         -50.7604  -26.5614   18.5578 O.2       10 UNK        -0.5224 
     40 CA        -49.2533  -26.9111   16.7324 C.3       9 UNK         0.0343 
     41 CB        -49.9983  -27.8964   15.8169 C.3       9 UNK        -0.2003 
     42 N         -48.3359  -26.1021   15.9226 N.am      9 UNK        -0.4272 
     43 C         -47.3555  -25.3339   16.4202 C.2       9 UNK         0.4988 
     44 O         -47.0800  -25.2660   17.6187 O.2       9 UNK        -0.5108 
     45 CA        -46.5567  -24.4840   15.4161 C.3       8 UNK         0.0248 
     46 CB        -45.4829  -25.3314   14.7149 C.3       8 UNK        -0.2001 
     47 N         -47.4070  -23.8301   14.4167 N.am      8 UNK        -0.4140 
     48 C         -48.3060  -22.8730   14.6940 C.2       8 UNK         0.5028 
     49 O         -48.4779  -22.3968   15.8162 O.2       8 UNK        -0.5428 
     50 CA        -49.1933  -22.3878   13.5346 C.3       7 UNK         0.0264 
     51 CB        -48.4504  -21.3623   12.6640 C.3       7 UNK        -0.1988 
     52 N         -49.6815  -23.4871   12.6996 N.am      7 UNK        -0.4454 
     53 C         -50.4937  -24.4646   13.1283 C.2       7 UNK         0.5027 
     54 O         -50.9774  -24.4993   14.2592 O.2       7 UNK        -0.5083 
     55 CA        -50.7783  -25.6207   12.1532 C.3       6 UNK         0.0844 
     56 C56       -51.9778  -25.2944   11.2344 C.3       14 UNK        -0.0967 
     57 S57       -52.4552  -26.7557   10.2620 S.3       14 UNK        -0.2604 
     58 C58       -53.3770  -26.0049    8.8895 C.3       14 UNK         0.0134 
     59 N         -49.5780  -26.0075   11.4058 N.am      6 UNK        -0.4116 
     60 C         -48.4917  -26.5706   11.9515 C.2       5 UNK         0.5034 
     61 O         -48.3868  -26.8484   13.1454 O.2       5 UNK        -0.5045 
     62 CA        -47.2978  -26.8128   11.0165 C.3       5 UNK         0.0224 
     63 CB        -47.4897  -28.1011   10.2042 C.3       5 UNK        -0.1978 
     64 N         -47.0737  -25.6855   10.1101 N.am      5 UNK        -0.4737 
     65 C         -46.6588  -24.4757   10.5128 C.2       4 UNK         0.5027 
     66 O         -46.3750  -24.2055   11.6793 O.2       4 UNK        -0.5211 
     67 CA        -46.5976  -23.3680    9.4471 C.3       4 UNK         0.0297 
     68 CB        -45.2430  -23.3930    8.7222 C.3       4 UNK        -0.1993 
     69 N         -47.6810  -23.4519    8.4641 N.am      4 UNK        -0.4486 
     70 C         -48.9886  -23.3803    8.7529 C.2       3 UNK         0.4961 
     71 O         -49.4283  -23.1933    9.8866 O.2       3 UNK        -0.5105 
     72 CA        -49.9799  -23.5801    7.5947 C.3       3 UNK         0.0299 
     73 CB        -50.4951  -22.2238    7.0894 C.3       3 UNK        -0.1972 
     74 N         -49.4389  -24.3487    6.4685 N.am      3 UNK        -0.4305 
     75 C         -49.0872  -25.6416    6.5181 C.2       2 UNK         0.5006 
     76 O         -49.1726  -26.3285    7.5368 O.2       2 UNK        -0.5106 
     77 CA        -48.5466  -26.2229    5.1989 C.3       2 UNK         0.0296 
     78 CB        -47.1506  -25.6520    4.8667 C.3       2 UNK        -0.2002 
     79 N         -48.5540  -27.6915    5.1321 N.am      2 UNK        -0.4032 
     80 C         -47.7879  -28.5755    5.7914 C.2       1 UNK         0.5000 
     81 O         -46.8960  -28.2608    6.5852 O.2       1 UNK        -0.5238 
     82 H82       -47.3383  -33.0336    8.7524 H         1 UNK         0.0889 
     83 H83       -46.1504  -31.7852    9.1371 H         1 UNK         0.0889 
     84 H84       -45.9991  -32.7189    7.6473 H         1 UNK         0.0889 
     85 H85       -46.6009  -31.5550    5.8942 H         1 UNK         0.3028 
     86 H86       -47.3666  -30.1528    4.5056 H         1 UNK         0.0864 
     87 H87       -49.6642  -29.9720    3.9981 H         1 UNK         0.0720 
     88 H88       -49.4132  -31.5379    4.6763 H         1 UNK         0.0720 
     89 H89       -52.3290  -29.6532    4.3668 H         1 UNK         0.0814 
     90 H90       -51.3498  -28.2719    4.8059 H         1 UNK         0.0814 
     91 H91       -51.7533  -27.0900    7.0138 H         1 UNK         0.1469 
     92 H92       -55.7432  -27.3296    8.5594 H         1 UNK         0.1381 
     93 H93       -54.4509  -30.0605    5.5110 H         1 UNK         0.1206 
     94 H94       -57.3451  -28.8744    6.6032 H         1 UNK         0.0813 
     95 H95       -56.5462  -30.4265    6.5383 H         1 UNK         0.0813 
     96 H96       -55.8960  -31.8113    9.4002 H         1 UNK         0.0638 
     97 H97       -54.8154  -30.5173    8.9617 H         1 UNK         0.0638 
     98 H98       -56.4016  -30.7527   11.5459 H         1 UNK         0.0568 
     99 H99       -52.5641  -31.1283   12.6069 H         1 UNK         0.3450 
    100 H100      -53.2873  -29.5785   12.2541 H         1 UNK         0.3450 
    101 H101      -55.0193  -28.4004   10.5068 H         1 UNK         0.2987 
    102 H102      -54.8113  -26.5098   11.8387 H         1 UNK         0.0766 
    103 H103      -56.8431  -25.0740   11.7228 H         1 UNK         0.0798 
    104 H104      -57.8465  -26.4155   12.2765 H         1 UNK         0.0798 
    105 H105      -57.0423  -26.4979   10.7165 H         1 UNK         0.0798 
    106 H106      -56.4048  -25.9776   14.2212 H         1 UNK         0.3198 
    107 H107      -55.3055  -25.1280   16.0229 H         1 UNK         0.0843 
    108 H108      -54.0137  -27.8003   16.8532 H         1 UNK         0.0831 
    109 H109      -55.7359  -27.5643   16.5878 H         1 UNK         0.0831 
    110 H110      -54.9359  -26.7336   17.9109 H         1 UNK         0.0831 
    111 H111      -52.4949  -25.3986   15.6208 H         1 UNK         0.3133 
    112 H112      -51.5185  -23.0577   16.8755 H         1 UNK         0.0566 
    113 H113      -50.2633  -23.0636   19.0483 H         1 UNK         0.0814 
    114 H114      -51.9523  -22.6310   19.2559 H         1 UNK         0.0814 
    115 H115      -51.4053  -24.2393   19.7003 H         1 UNK         0.0814 
    116 H116      -50.1564  -24.6121   16.1625 H         1 UNK         0.3091 
    117 H117      -48.6587  -27.4873   17.4443 H         1 UNK         0.0702 
    118 H118      -50.6672  -28.5377   16.3926 H         1 UNK         0.0785 
    119 H119      -50.6060  -27.3758   15.0753 H         1 UNK         0.0785 
    120 H120      -49.3042  -28.5463   15.2837 H         1 UNK         0.0785 
    121 H121      -48.4432  -26.1673   14.9128 H         1 UNK         0.2998 
    122 H122      -46.0488  -23.6988   15.9802 H         1 UNK         0.0697 
    123 H123      -45.9230  -26.1220   14.1068 H         1 UNK         0.0825 
    124 H124      -44.8239  -25.8071   15.4424 H         1 UNK         0.0825 
    125 H125      -44.8587  -24.7193   14.0635 H         1 UNK         0.0825 
    126 H126      -47.2786  -24.1161   13.4500 H         1 UNK         0.3029 
    127 H127      -50.0651  -21.8948   13.9704 H         1 UNK         0.0897 
    128 H128      -49.0894  -20.9813   11.8669 H         1 UNK         0.0792 
    129 H129      -47.5611  -21.7914   12.2027 H         1 UNK         0.0792 
    130 H130      -48.1281  -20.5072   13.2596 H         1 UNK         0.0792 
    131 H131      -49.3924  -23.4880   11.7232 H         1 UNK         0.3086 
    132 H132      -51.0564  -26.4806   12.7658 H         1 UNK         0.0583 
    133 H133      -52.8418  -24.9840   11.8255 H         1 UNK         0.1020 
    134 H134      -51.7425  -24.4646   10.5656 H         1 UNK         0.1020 
    135 H135      -54.2789  -25.5240    9.2715 H         1 UNK         0.0694 
    136 H136      -52.7809  -25.2272    8.4135 H         1 UNK         0.0694 
    137 H137      -49.5778  -25.8094   10.4157 H         1 UNK         0.2989 
    138 H138      -46.4082  -26.9308   11.6393 H         1 UNK         0.1055 
    139 H139      -47.6367  -28.9606   10.8596 H         1 UNK         0.0806 
    140 H140      -46.6208  -28.3140    9.5811 H         1 UNK         0.0806 
    141 H141      -48.3588  -28.0425    9.5469 H         1 UNK         0.0806 
    142 H142      -47.3257  -25.8220    9.1395 H         1 UNK         0.3061 
    143 H143      -46.6930  -22.4098    9.9616 H         1 UNK         0.0734 
    144 H144      -45.1480  -22.5586    8.0271 H         1 UNK         0.0832 
    145 H145      -44.4199  -23.3138    9.4340 H         1 UNK         0.0832 
    146 H146      -45.1001  -24.3176    8.1613 H         1 UNK         0.0832 
    147 H147      -47.4153  -23.6022    7.5024 H         1 UNK         0.3156 
    148 H148      -50.8272  -24.1364    7.9961 H         1 UNK         0.0589 
    149 H149      -49.6959  -21.6242    6.6518 H         1 UNK         0.0808 
    150 H150      -51.2739  -22.3493    6.3368 H         1 UNK         0.0808 
    151 H151      -50.9280  -21.6429    7.9053 H         1 UNK         0.0808 
    152 H152      -49.3435  -23.8537    5.5929 H         1 UNK         0.3098 
    153 H153      -49.2309  -25.9006    4.4124 H         1 UNK         0.0720 
    154 H154      -46.7581  -26.0771    3.9429 H         1 UNK         0.0791 
    155 H155      -46.4282  -25.8513    5.6591 H         1 UNK         0.0791 
    156 H156      -47.1861  -24.5707    4.7299 H         1 UNK         0.0791 
    157 H157      -49.2454  -28.0765    4.5066 H         1 UNK         0.3028 
@<TRIPOS>BOND
     1    1    2 1    
     2    1   82 1    
     3    1   83 1    
     4    1   84 1    
     5    2    3 2    
     6    2    4 am   BACKBONE|DICT|INTERRES
     7    4    5 1    
     8    4   85 1    
     9    5    6 1    
    10    5   80 1    
    11    5   86 1    
    12    6    7 1    
    13    6   87 1    
    14    6   88 1    
    15    7    8 1    
    16    8    9 1    
    17    8   89 1    
    18    8   90 1    
    19    9   10 ar   
    20    9   14 ar   
    21   10   11 ar   
    22   10   91 1    
    23   11   12 ar   
    24   11   58 1    
    25   12   13 ar   
    26   12   92 1    
    27   13   14 ar   
    28   13   15 1    
    29   14   93 1    
    30   15   16 1    
    31   15   94 1    
    32   15   95 1    
    33   16   17 1    
    34   17   18 1    
    35   17   96 1    
    36   17   97 1    
    37   18   19 1    
    38   18   22 1    
    39   18   98 1    
    40   19   20 am   BACKBONE|DICT|INTERRES
    41   19   21 2    
    42   20   99 1    
    43   20  100 1    
    44   22   23 am   BACKBONE|DICT|INTERRES
    45   22  101 1    
    46   23   24 2    
    47   23   25 1    
    48   25   26 1    
    49   25   27 1    
    50   25  102 1    
    51   26  103 1    
    52   26  104 1    
    53   26  105 1    
    54   27   28 am   BACKBONE|DICT|INTERRES
    55   27  106 1    
    56   28   29 2    
    57   28   30 1    
    58   30   31 1    
    59   30   32 1    
    60   30  107 1    
    61   31  108 1    
    62   31  109 1    
    63   31  110 1    
    64   32   33 am   BACKBONE|DICT|INTERRES
    65   32  111 1    
    66   33   34 2    
    67   33   35 1    
    68   35   36 1    
    69   35   37 1    
    70   35  112 1    
    71   36  113 1    
    72   36  114 1    
    73   36  115 1    
    74   37   38 am   BACKBONE|DICT|INTERRES
    75   37  116 1    
    76   38   39 2    
    77   38   40 1    
    78   40   41 1    
    79   40   42 1    
    80   40  117 1    
    81   41  118 1    
    82   41  119 1    
    83   41  120 1    
    84   42   43 am   BACKBONE|DICT|INTERRES
    85   42  121 1    
    86   43   44 2    
    87   43   45 1    
    88   45   46 1    
    89   45   47 1    
    90   45  122 1    
    91   46  123 1    
    92   46  124 1    
    93   46  125 1    
    94   47   48 am   BACKBONE|DICT|INTERRES
    95   47  126 1    
    96   48   49 2    
    97   48   50 1    
    98   50   51 1    
    99   50   52 1    
   100   50  127 1    
   101   51  128 1    
   102   51  129 1    
   103   51  130 1    
   104   52   53 am   BACKBONE|DICT|INTERRES
   105   52  131 1    
   106   53   54 2    
   107   53   55 1    
   108   55   56 1    
   109   55   59 1    
   110   55  132 1    
   111   56   57 1    
   112   56  133 1    
   113   56  134 1    
   114   57   58 1    
   115   58  135 1    
   116   58  136 1    
   117   59   60 am   BACKBONE|DICT|INTERRES
   118   59  137 1    
   119   60   61 2    
   120   60   62 1    
   121   62   63 1    
   122   62   64 1    
   123   62  138 1    
   124   63  139 1    
   125   63  140 1    
   126   63  141 1    
   127   64   65 am   BACKBONE|DICT|INTERRES
   128   64  142 1    
   129   65   66 2    
   130   65   67 1    
   131   67   68 1    
   132   67   69 1    
   133   67  143 1    
   134   68  144 1    
   135   68  145 1    
   136   68  146 1    
   137   69   70 am   BACKBONE|DICT|INTERRES
   138   69  147 1    
   139   70   71 2    
   140   70   72 1    
   141   72   73 1    
   142   72   74 1    
   143   72  148 1    
   144   73  149 1    
   145   73  150 1    
   146   73  151 1    
   147   74   75 am   BACKBONE|DICT|INTERRES
   148   74  152 1    
   149   75   76 2    
   150   75   77 1    
   151   77   78 1    
   152   77   79 1    
   153   77  153 1    
   154   78  154 1    
   155   78  155 1    
   156   78  156 1    
   157   79   80 am   BACKBONE|DICT|INTERRES
   158   79  157 1    
   159   80   81 2    
@<TRIPOS>SUBSTRUCTURE
     1 UNK         1 GROUP             0       ****    0 ROOT    
