@<TRIPOS>MOLECULE
3R207
157   159    1
SMALL
USER_CHARGES


@<TRIPOS>ATOM
      1 CA        -44.8365  -29.7285    6.6065 C.3       0 UNK        -0.1975 
      2 C         -46.3361  -29.9765    6.6755 C.2       0 UNK         0.4852 
      3 O         -46.9307  -30.4051    5.6862 O.2       0 UNK        -0.5216 
      4 N         -46.9483  -29.7088    7.8379 N.am      1 UNK        -0.4461 
      5 CA        -48.3881  -29.8666    8.0959 C.3       1 UNK         0.0864 
      6 C6        -48.6997  -29.7965    9.6212 C.3       14 UNK        -0.0898 
      7 S7        -49.6299  -31.2536   10.2059 S.3       14 UNK        -0.2598 
      8 C8        -50.9424  -30.5087   11.2253 C.3       14 UNK         0.0286 
      9 C9        -52.0513  -29.9095   10.3733 C.ar      14 UNK        -0.0844 
     10 C10       -52.1038  -28.5324   10.1500 C.ar      14 UNK        -0.0881 
     11 C11       -53.1046  -27.9718    9.3486 C.ar      14 UNK        -0.0643 
     12 C12       -54.0682  -28.8125    8.7809 C.ar      14 UNK        -0.0930 
     13 C13       -54.0348  -30.1928    9.0035 C.ar      14 UNK        -0.0827 
     14 C14       -53.0266  -30.7337    9.8067 C.ar      14 UNK        -0.1249 
     15 C15       -55.0563  -31.1109    8.3467 C.3       14 UNK         0.0141 
     16 S16       -56.6269  -31.1676    9.2662 S.3       14 UNK        -0.2313 
     17 C17       -57.6135  -29.8864    8.4143 C.3       14 UNK        -0.0915 
     18 CA        -58.4465  -28.9366    9.3286 C.3       13 UNK         0.0968 
     19 C         -59.6088  -29.5910   10.1397 C.2       13 UNK         0.5732 
     20 N         -60.0057  -30.8194    9.8341 N.am      13 UNK        -0.7310 
     21 O         -60.2099  -28.9550   11.0040 O.2       13 UNK        -0.5035 
     22 N         -57.6209  -27.9782   10.0839 N.am      13 UNK        -0.4233 
     23 C         -57.0447  -28.1617   11.2793 C.2       13 UNK         0.4989 
     24 O         -57.0827  -29.2065   11.9358 O.2       13 UNK        -0.4996 
     25 CA        -56.3201  -26.9412   11.8594 C.3       12 UNK         0.0216 
     26 CB        -57.3208  -25.9117   12.4200 C.3       12 UNK        -0.1964 
     27 N         -55.4274  -27.4007   12.9168 N.am      12 UNK        -0.4276 
     28 C         -54.3613  -26.7493   13.3866 C.2       12 UNK         0.5020 
     29 O         -54.0060  -25.6349   12.9960 O.2       12 UNK        -0.5489 
     30 CA        -53.5490  -27.4918   14.4545 C.3       11 UNK         0.0294 
     31 CB        -52.6527  -28.5562   13.8001 C.3       11 UNK        -0.2019 
     32 N         -52.6915  -26.5611   15.1829 N.am      11 UNK        -0.4493 
     33 C         -52.7412  -26.3095   16.4955 C.2       11 UNK         0.4932 
     34 O         -53.5813  -26.7866   17.2610 O.2       11 UNK        -0.5029 
     35 CA        -51.6154  -25.4042   17.0339 C.3       10 UNK         0.0280 
     36 CB        -51.6404  -25.2294   18.5673 C.3       10 UNK        -0.1976 
     37 N         -50.3044  -25.8718   16.5657 N.am      10 UNK        -0.4242 
     38 C         -49.7298  -27.0622   16.8036 C.2       10 UNK         0.5072 
     39 O         -50.1540  -27.8880   17.6131 O.2       10 UNK        -0.5224 
     40 CA        -48.4894  -27.4235   15.9665 C.3       9 UNK         0.0343 
     41 CB        -48.8863  -28.3866   14.8345 C.3       9 UNK        -0.2003 
     42 N         -47.8096  -26.2603   15.3897 N.am      9 UNK        -0.4272 
     43 C         -47.0309  -25.4206   16.0876 C.2       9 UNK         0.4988 
     44 O         -46.7765  -25.5578   17.2848 O.2       9 UNK        -0.5108 
     45 CA        -46.4448  -24.2174   15.3285 C.3       8 UNK         0.0248 
     46 CB        -45.2248  -24.6438   14.4972 C.3       8 UNK        -0.2001 
     47 N         -47.4236  -23.5457   14.4686 N.am      8 UNK        -0.4140 
     48 C         -48.5200  -22.9138   14.9150 C.2       8 UNK         0.5028 
     49 O         -48.8166  -22.8067   16.1049 O.2       8 UNK        -0.5428 
     50 CA        -49.4672  -22.3289   13.8554 C.3       7 UNK         0.0264 
     51 CB        -48.9579  -20.9701   13.3481 C.3       7 UNK        -0.1988 
     52 N         -49.6707  -23.2348   12.7245 N.am      7 UNK        -0.4454 
     53 C         -50.2956  -24.4194   12.8033 C.2       7 UNK         0.5027 
     54 O         -50.7897  -24.8711   13.8360 O.2       7 UNK        -0.5083 
     55 CA        -50.3293  -25.2611   11.5163 C.3       6 UNK         0.0844 
     56 C56       -51.4522  -24.7519   10.5785 C.3       14 UNK        -0.0967 
     57 S57       -51.5501  -25.6410    8.9872 S.3       14 UNK        -0.2604 
     58 C58       -53.1759  -26.4696    9.0806 C.3       14 UNK         0.0134 
     59 N         -49.0082  -25.2915   10.8807 N.am      6 UNK        -0.4116 
     60 C         -47.9179  -25.8523   11.4283 C.2       5 UNK         0.5034 
     61 O         -47.9260  -26.4624   12.4955 O.2       5 UNK        -0.5045 
     62 CA        -46.5771  -25.6625   10.7008 C.3       5 UNK         0.0224 
     63 CB        -46.2840  -26.8553    9.7828 C.3       5 UNK        -0.1978 
     64 N         -46.5143  -24.4102    9.9441 N.am      5 UNK        -0.4737 
     65 C         -46.5036  -23.1997   10.5234 C.2       4 UNK         0.5027 
     66 O         -46.5078  -23.0350   11.7437 O.2       4 UNK        -0.5211 
     67 CA        -46.5402  -21.9664    9.6044 C.3       4 UNK         0.0297 
     68 CB        -45.1203  -21.4204    9.3889 C.3       4 UNK        -0.1993 
     69 N         -47.1726  -22.2050    8.3032 N.am      4 UNK        -0.4486 
     70 C         -48.4410  -22.5968    8.1185 C.2       3 UNK         0.4961 
     71 O         -49.2249  -22.8117    9.0439 O.2       3 UNK        -0.5105 
     72 CA        -48.9167  -22.8082    6.6666 C.3       3 UNK         0.0299 
     73 CB        -47.8884  -22.3823    5.5929 C.3       3 UNK        -0.1972 
     74 N         -49.3576  -24.1870    6.4241 N.am      3 UNK        -0.4305 
     75 C         -48.6456  -25.3060    6.6188 C.2       2 UNK         0.5006 
     76 O         -47.4936  -25.3302    7.0645 O.2       2 UNK        -0.5106 
     77 CA        -49.3269  -26.6201    6.2175 C.3       2 UNK         0.0296 
     78 CB        -49.1902  -26.8711    4.7048 C.3       2 UNK        -0.2002 
     79 N         -48.6975  -27.7071    6.9566 N.am      2 UNK        -0.4032 
     80 C         -49.2579  -28.8798    7.2795 C.2       1 UNK         0.5000 
     81 O         -50.3960  -29.2076    6.9420 O.2       1 UNK        -0.5238 
     82 H82       -44.4416  -29.3420    7.5459 H         1 UNK         0.0889 
     83 H83       -44.6123  -29.0057    5.8225 H         1 UNK         0.0889 
     84 H84       -44.3134  -30.6559    6.3747 H         1 UNK         0.0889 
     85 H85       -46.3921  -29.3962    8.6198 H         1 UNK         0.3028 
     86 H86       -48.6470  -30.8619    7.7273 H         1 UNK         0.0864 
     87 H87       -47.7809  -29.7715   10.2089 H         1 UNK         0.0720 
     88 H88       -49.2263  -28.8795    9.8918 H         1 UNK         0.0720 
     89 H89       -50.5071  -29.7605   11.8896 H         1 UNK         0.0814 
     90 H90       -51.3639  -31.2786   11.8732 H         1 UNK         0.0814 
     91 H91       -51.3493  -27.9014   10.5889 H         1 UNK         0.1469 
     92 H92       -54.8418  -28.3918    8.1548 H         1 UNK         0.1381 
     93 H93       -52.9869  -31.8011    9.9764 H         1 UNK         0.1206 
     94 H94       -54.6583  -32.1253    8.2908 H         1 UNK         0.0813 
     95 H95       -55.2294  -30.8067    7.3135 H         1 UNK         0.0813 
     96 H96       -58.2705  -30.3919    7.7049 H         1 UNK         0.0638 
     97 H97       -56.9531  -29.2802    7.7948 H         1 UNK         0.0638 
     98 H98       -58.9896  -28.2930    8.6358 H         1 UNK         0.0568 
     99 H99       -60.7744  -31.2288   10.3409 H         1 UNK         0.3450 
    100 H100      -59.5150  -31.3580    9.1380 H         1 UNK         0.3450 
    101 H101      -57.5519  -27.0628    9.6649 H         1 UNK         0.2987 
    102 H102      -55.7268  -26.4840   11.0663 H         1 UNK         0.0766 
    103 H103      -56.8093  -25.0360   12.8201 H         1 UNK         0.0798 
    104 H104      -57.9285  -26.3379   13.2192 H         1 UNK         0.0798 
    105 H105      -58.0018  -25.5585   11.6449 H         1 UNK         0.0798 
    106 H106      -55.6341  -28.3413   13.2342 H         1 UNK         0.3198 
    107 H107      -54.2467  -27.9836   15.1358 H         1 UNK         0.0843 
    108 H108      -53.2407  -29.2792   13.2331 H         1 UNK         0.0831 
    109 H109      -52.0891  -29.1130   14.5490 H         1 UNK         0.0831 
    110 H110      -51.9383  -28.1038   13.1123 H         1 UNK         0.0831 
    111 H111      -52.0354  -26.0257   14.6162 H         1 UNK         0.3133 
    112 H112      -51.7661  -24.4204   16.5868 H         1 UNK         0.0566 
    113 H113      -50.8313  -24.5813   18.9039 H         1 UNK         0.0814 
    114 H114      -52.5774  -24.7742   18.8899 H         1 UNK         0.0814 
    115 H115      -51.5475  -26.1818   19.0898 H         1 UNK         0.0814 
    116 H116      -49.8876  -25.2984   15.8429 H         1 UNK         0.3091 
    117 H117      -47.7886  -27.9425   16.6238 H         1 UNK         0.0702 
    118 H118      -48.0153  -28.7099   14.2641 H         1 UNK         0.0785 
    119 H119      -49.5866  -27.9210   14.1399 H         1 UNK         0.0785 
    120 H120      -49.3659  -29.2827   15.2304 H         1 UNK         0.0785 
    121 H121      -47.9228  -26.1216   14.3886 H         1 UNK         0.2998 
    122 H122      -46.1092  -23.4891   16.0698 H         1 UNK         0.0697 
    123 H123      -45.4855  -25.4029   13.7603 H         1 UNK         0.0825 
    124 H124      -44.4478  -25.0657   15.1360 H         1 UNK         0.0825 
    125 H125      -44.7864  -23.7973   13.9680 H         1 UNK         0.0825 
    126 H126      -47.2203  -23.5209   13.4723 H         1 UNK         0.3029 
    127 H127      -50.4371  -22.1710   14.3327 H         1 UNK         0.0897 
    128 H128      -49.6615  -20.5185   12.6485 H         1 UNK         0.0792 
    129 H129      -48.8305  -20.2701   14.1751 H         1 UNK         0.0792 
    130 H130      -47.9943  -21.0571   12.8453 H         1 UNK         0.0792 
    131 H131      -49.2719  -22.9571   11.8382 H         1 UNK         0.3086 
    132 H132      -50.5702  -26.2803   11.8187 H         1 UNK         0.0583 
    133 H133      -52.4134  -24.8054   11.0906 H         1 UNK         0.1020 
    134 H134      -51.3104  -23.6950   10.3468 H         1 UNK         0.1020 
    135 H135      -53.8033  -26.0010    9.8374 H         1 UNK         0.0694 
    136 H136      -53.6765  -26.2965    8.1268 H         1 UNK         0.0694 
    137 H137      -48.9163  -24.7631   10.0216 H         1 UNK         0.2989 
    138 H138      -45.7929  -25.6273   11.4591 H         1 UNK         0.1055 
    139 H139      -46.1870  -27.7716   10.3663 H         1 UNK         0.0806 
    140 H140      -45.3533  -26.7189    9.2316 H         1 UNK         0.0806 
    141 H141      -47.0863  -27.0069    9.0648 H         1 UNK         0.0806 
    142 H142      -46.5569  -24.4754    8.9331 H         1 UNK         0.3061 
    143 H143      -47.1266  -21.2013   10.1177 H         1 UNK         0.0734 
    144 H144      -44.6351  -21.2099   10.3433 H         1 UNK         0.0832 
    145 H145      -44.4903  -22.1323    8.8540 H         1 UNK         0.0832 
    146 H146      -45.1331  -20.4887    8.8230 H         1 UNK         0.0832 
    147 H147      -46.5933  -22.0766    7.4862 H         1 UNK         0.3156 
    148 H148      -49.7985  -22.1773    6.5460 H         1 UNK         0.0589 
    149 H149      -46.9789  -22.9835    5.6280 H         1 UNK         0.0808 
    150 H150      -48.3075  -22.4873    4.5921 H         1 UNK         0.0808 
    151 H151      -47.6054  -21.3347    5.7059 H         1 UNK         0.0808 
    152 H152      -50.3094  -24.2834    6.0985 H         1 UNK         0.3098 
    153 H153      -50.3841  -26.5672    6.4828 H         1 UNK         0.0720 
    154 H154      -49.6485  -26.0665    4.1286 H         1 UNK         0.0791 
    155 H155      -49.6813  -27.7990    4.4112 H         1 UNK         0.0791 
    156 H156      -48.1442  -26.9371    4.4022 H         1 UNK         0.0791 
    157 H157      -47.7593  -27.4972    7.2707 H         1 UNK         0.3028 
@<TRIPOS>BOND
     1    1    2 1    
     2    1   82 1    
     3    1   83 1    
     4    1   84 1    
     5    2    3 2    
     6    2    4 am   BACKBONE|DICT|INTERRES
     7    4    5 1    
     8    4   85 1    
     9    5    6 1    
    10    5   80 1    
    11    5   86 1    
    12    6    7 1    
    13    6   87 1    
    14    6   88 1    
    15    7    8 1    
    16    8    9 1    
    17    8   89 1    
    18    8   90 1    
    19    9   10 ar   
    20    9   14 ar   
    21   10   11 ar   
    22   10   91 1    
    23   11   12 ar   
    24   11   58 1    
    25   12   13 ar   
    26   12   92 1    
    27   13   14 ar   
    28   13   15 1    
    29   14   93 1    
    30   15   16 1    
    31   15   94 1    
    32   15   95 1    
    33   16   17 1    
    34   17   18 1    
    35   17   96 1    
    36   17   97 1    
    37   18   19 1    
    38   18   22 1    
    39   18   98 1    
    40   19   20 am   BACKBONE|DICT|INTERRES
    41   19   21 2    
    42   20   99 1    
    43   20  100 1    
    44   22   23 am   BACKBONE|DICT|INTERRES
    45   22  101 1    
    46   23   24 2    
    47   23   25 1    
    48   25   26 1    
    49   25   27 1    
    50   25  102 1    
    51   26  103 1    
    52   26  104 1    
    53   26  105 1    
    54   27   28 am   BACKBONE|DICT|INTERRES
    55   27  106 1    
    56   28   29 2    
    57   28   30 1    
    58   30   31 1    
    59   30   32 1    
    60   30  107 1    
    61   31  108 1    
    62   31  109 1    
    63   31  110 1    
    64   32   33 am   BACKBONE|DICT|INTERRES
    65   32  111 1    
    66   33   34 2    
    67   33   35 1    
    68   35   36 1    
    69   35   37 1    
    70   35  112 1    
    71   36  113 1    
    72   36  114 1    
    73   36  115 1    
    74   37   38 am   BACKBONE|DICT|INTERRES
    75   37  116 1    
    76   38   39 2    
    77   38   40 1    
    78   40   41 1    
    79   40   42 1    
    80   40  117 1    
    81   41  118 1    
    82   41  119 1    
    83   41  120 1    
    84   42   43 am   BACKBONE|DICT|INTERRES
    85   42  121 1    
    86   43   44 2    
    87   43   45 1    
    88   45   46 1    
    89   45   47 1    
    90   45  122 1    
    91   46  123 1    
    92   46  124 1    
    93   46  125 1    
    94   47   48 am   BACKBONE|DICT|INTERRES
    95   47  126 1    
    96   48   49 2    
    97   48   50 1    
    98   50   51 1    
    99   50   52 1    
   100   50  127 1    
   101   51  128 1    
   102   51  129 1    
   103   51  130 1    
   104   52   53 am   BACKBONE|DICT|INTERRES
   105   52  131 1    
   106   53   54 2    
   107   53   55 1    
   108   55   56 1    
   109   55   59 1    
   110   55  132 1    
   111   56   57 1    
   112   56  133 1    
   113   56  134 1    
   114   57   58 1    
   115   58  135 1    
   116   58  136 1    
   117   59   60 am   BACKBONE|DICT|INTERRES
   118   59  137 1    
   119   60   61 2    
   120   60   62 1    
   121   62   63 1    
   122   62   64 1    
   123   62  138 1    
   124   63  139 1    
   125   63  140 1    
   126   63  141 1    
   127   64   65 am   BACKBONE|DICT|INTERRES
   128   64  142 1    
   129   65   66 2    
   130   65   67 1    
   131   67   68 1    
   132   67   69 1    
   133   67  143 1    
   134   68  144 1    
   135   68  145 1    
   136   68  146 1    
   137   69   70 am   BACKBONE|DICT|INTERRES
   138   69  147 1    
   139   70   71 2    
   140   70   72 1    
   141   72   73 1    
   142   72   74 1    
   143   72  148 1    
   144   73  149 1    
   145   73  150 1    
   146   73  151 1    
   147   74   75 am   BACKBONE|DICT|INTERRES
   148   74  152 1    
   149   75   76 2    
   150   75   77 1    
   151   77   78 1    
   152   77   79 1    
   153   77  153 1    
   154   78  154 1    
   155   78  155 1    
   156   78  156 1    
   157   79   80 am   BACKBONE|DICT|INTERRES
   158   79  157 1    
   159   80   81 2    
@<TRIPOS>SUBSTRUCTURE
     1 UNK         1 GROUP             0       ****    0 ROOT    
