@<TRIPOS>MOLECULE
3R207
157   159    1
SMALL
USER_CHARGES


@<TRIPOS>ATOM
      1 CA        -51.3798  -25.7857    3.2773 C.3       0 UNK        -0.1975 
      2 C         -51.1198  -27.0974    2.5389 C.2       0 UNK         0.4852 
      3 O         -51.1058  -27.1024    1.3087 O.2       0 UNK        -0.5216 
      4 N         -50.9233  -28.2309    3.2283 N.am      1 UNK        -0.4461 
      5 CA        -50.8478  -28.3822    4.6858 C.3       1 UNK         0.0864 
      6 C6        -51.4022  -29.7633    5.1371 C.3       14 UNK        -0.0898 
      7 S7        -52.0765  -29.7242    6.8349 S.3       14 UNK        -0.2598 
      8 C8        -53.7548  -29.0940    6.5235 C.3       14 UNK         0.0286 
      9 C9        -54.1969  -28.0972    7.5856 C.ar      14 UNK        -0.0844 
     10 C10       -53.6141  -26.8254    7.6421 C.ar      14 UNK        -0.0881 
     11 C11       -54.0759  -25.8705    8.5533 C.ar      14 UNK        -0.0643 
     12 C12       -55.1279  -26.2001    9.4137 C.ar      14 UNK        -0.0930 
     13 C13       -55.7147  -27.4681    9.3722 C.ar      14 UNK        -0.0827 
     14 C14       -55.2368  -28.4176    8.4644 C.ar      14 UNK        -0.1249 
     15 C15       -56.9124  -27.7756   10.2592 C.3       14 UNK         0.0141 
     16 S16       -56.4231  -28.1913   11.9591 S.3       14 UNK        -0.2313 
     17 C17       -56.1821  -29.9960   11.8398 C.3       14 UNK        -0.0915 
     18 CA        -55.1214  -30.4973   12.8591 C.3       13 UNK         0.0968 
     19 C         -55.1235  -32.0440   13.0630 C.2       13 UNK         0.5732 
     20 N         -54.0079  -32.6579   13.4433 N.am      13 UNK        -0.7310 
     21 O         -56.1535  -32.6976   12.9130 O.2       13 UNK        -0.5035 
     22 N         -53.7937  -29.9117   12.6200 N.am      13 UNK        -0.4233 
     23 C         -52.9751  -30.1850   11.5918 C.2       13 UNK         0.4989 
     24 O         -53.2557  -30.9598   10.6770 O.2       13 UNK        -0.4996 
     25 CA        -51.5938  -29.4980   11.5814 C.3       12 UNK         0.0216 
     26 CB        -51.5912  -28.3503   10.5584 C.3       12 UNK        -0.1964 
     27 N         -51.1745  -28.9800   12.8882 N.am      12 UNK        -0.4276 
     28 C         -50.9792  -29.7064   13.9998 C.2       12 UNK         0.5020 
     29 O         -50.9799  -30.9376   14.0212 O.2       12 UNK        -0.5489 
     30 CA        -50.8391  -28.9251   15.3219 C.3       11 UNK         0.0294 
     31 CB        -49.3746  -28.8794   15.7867 C.3       11 UNK        -0.2019 
     32 N         -51.3833  -27.5614   15.2467 N.am      11 UNK        -0.4493 
     33 C         -52.6820  -27.2725   15.0696 C.2       11 UNK         0.4932 
     34 O         -53.5566  -28.1382   15.0076 O.2       11 UNK        -0.5029 
     35 CA        -53.0561  -25.7931   14.8514 C.3       10 UNK         0.0280 
     36 CB        -54.5623  -25.5204   15.0525 C.3       10 UNK        -0.1976 
     37 N         -52.2417  -24.8464   15.6225 N.am      10 UNK        -0.4242 
     38 C         -52.1589  -24.7652   16.9596 C.2       10 UNK         0.5072 
     39 O         -52.7451  -25.5278   17.7311 O.2       10 UNK        -0.5224 
     40 CA        -51.2952  -23.6199   17.5273 C.3       9 UNK         0.0343 
     41 CB        -51.0725  -23.7350   19.0509 C.3       9 UNK        -0.2003 
     42 N         -50.0110  -23.4429   16.8404 N.am      9 UNK        -0.4272 
     43 C         -49.0281  -24.3416   16.6896 C.2       9 UNK         0.4988 
     44 O         -49.1053  -25.5116   17.0678 O.2       9 UNK        -0.5108 
     45 CA        -47.7350  -23.8280   16.0190 C.3       8 UNK         0.0248 
     46 CB        -46.6519  -24.9179   15.9230 C.3       8 UNK        -0.2001 
     47 N         -47.9725  -23.2671   14.6848 N.am      8 UNK        -0.4140 
     48 C         -48.5467  -22.0835   14.4257 C.2       8 UNK         0.5028 
     49 O         -48.8963  -21.2917   15.3031 O.2       8 UNK        -0.5428 
     50 CA        -48.8330  -21.7441   12.9522 C.3       7 UNK         0.0264 
     51 CB        -47.5953  -21.1238   12.2853 C.3       7 UNK        -0.1988 
     52 N         -49.2916  -22.8956   12.1693 N.am      7 UNK        -0.4454 
     53 C         -50.4068  -23.5997   12.4214 C.2       7 UNK         0.5027 
     54 O         -51.1948  -23.3322   13.3313 O.2       7 UNK        -0.5083 
     55 CA        -50.6397  -24.8623   11.5605 C.3       6 UNK         0.0844 
     56 C56       -51.1713  -24.5390   10.1437 C.3       14 UNK        -0.0967 
     57 S57       -52.8866  -23.9239   10.1732 S.3       14 UNK        -0.2604 
     58 C58       -53.5068  -24.4562    8.5454 C.3       14 UNK         0.0134 
     59 N         -49.4381  -25.6956   11.5147 N.am      6 UNK        -0.4116 
     60 C         -48.8591  -26.2592   12.5829 C.2       5 UNK         0.5034 
     61 O         -49.3377  -26.2211   13.7140 O.2       5 UNK        -0.5045 
     62 CA        -47.5097  -26.9564   12.3575 C.3       5 UNK         0.0224 
     63 CB        -47.7083  -28.4172   11.9264 C.3       5 UNK        -0.1978 
     64 N         -46.6910  -26.2476   11.3709 N.am      5 UNK        -0.4737 
     65 C         -46.1041  -25.0644   11.6008 C.2       4 UNK         0.5027 
     66 O         -46.1542  -24.4784   12.6808 O.2       4 UNK        -0.5211 
     67 CA        -45.3761  -24.4057   10.4173 C.3       4 UNK         0.0297 
     68 CB        -43.9605  -24.9835   10.2634 C.3       4 UNK        -0.1993 
     69 N         -46.1065  -24.5440    9.1547 N.am      4 UNK        -0.4486 
     70 C         -47.2987  -23.9840    8.9049 C.2       3 UNK         0.4961 
     71 O         -47.8956  -23.2584    9.6995 O.2       3 UNK        -0.5105 
     72 CA        -47.9651  -24.3361    7.5633 C.3       3 UNK         0.0299 
     73 CB        -47.4750  -23.3954    6.4519 C.3       3 UNK        -0.1972 
     74 N         -47.7768  -25.7313    7.1478 N.am      3 UNK        -0.4305 
     75 C         -48.1348  -26.8019    7.8693 C.2       2 UNK         0.5006 
     76 O         -48.6333  -26.7338    8.9934 O.2       2 UNK        -0.5106 
     77 CA        -47.9447  -28.1715    7.2055 C.3       2 UNK         0.0296 
     78 CB        -47.6884  -29.2868    8.2345 C.3       2 UNK        -0.2002 
     79 N         -49.1535  -28.4909    6.4556 N.am      2 UNK        -0.4032 
     80 C         -49.4239  -28.0807    5.2121 C.2       1 UNK         0.5000 
     81 O         -48.6132  -27.4644    4.5144 O.2       1 UNK        -0.5238 
     82 H82       -50.5784  -25.5615    3.9803 H         1 UNK         0.0889 
     83 H83       -52.3250  -25.8276    3.8178 H         1 UNK         0.0889 
     84 H84       -51.4383  -24.9568    2.5722 H         1 UNK         0.0889 
     85 H85       -50.7236  -29.0709    2.7042 H         1 UNK         0.3028 
     86 H86       -51.4896  -27.6210    5.1298 H         1 UNK         0.0864 
     87 H87       -50.6390  -30.5412    5.0689 H         1 UNK         0.0720 
     88 H88       -52.2051  -30.0889    4.4729 H         1 UNK         0.0720 
     89 H89       -54.4424  -29.9394    6.4695 H         1 UNK         0.0814 
     90 H90       -53.8025  -28.6035    5.5503 H         1 UNK         0.0814 
     91 H91       -52.8213  -26.5705    6.9534 H         1 UNK         0.1469 
     92 H92       -55.5068  -25.4576   10.1028 H         1 UNK         0.1381 
     93 H93       -55.6994  -29.3939    8.4174 H         1 UNK         0.1206 
     94 H94       -57.5133  -28.5828    9.8373 H         1 UNK         0.0813 
     95 H95       -57.5667  -26.9032   10.2919 H         1 UNK         0.0813 
     96 H96       -57.1526  -30.4599   12.0230 H         1 UNK         0.0638 
     97 H97       -55.8967  -30.2692   10.8232 H         1 UNK         0.0638 
     98 H98       -55.4209  -30.1160   13.8359 H         1 UNK         0.0568 
     99 H99       -54.0183  -33.6552   13.5854 H         1 UNK         0.3450 
    100 H100      -53.1545  -32.1357   13.5796 H         1 UNK         0.3450 
    101 H101      -53.4873  -29.2669   13.3397 H         1 UNK         0.2987 
    102 H102      -50.8617  -30.2447   11.2676 H         1 UNK         0.0766 
    103 H103      -52.2531  -27.5363   10.8569 H         1 UNK         0.0798 
    104 H104      -51.9363  -28.6964    9.5845 H         1 UNK         0.0798 
    105 H105      -50.5917  -27.9467   10.4115 H         1 UNK         0.0798 
    106 H106      -51.1339  -27.9764   12.9887 H         1 UNK         0.3198 
    107 H107      -51.4140  -29.4667   16.0760 H         1 UNK         0.0843 
    108 H108      -49.2813  -28.3776   16.7501 H         1 UNK         0.0831 
    109 H109      -48.7343  -28.3563   15.0777 H         1 UNK         0.0831 
    110 H110      -48.9725  -29.8864   15.9051 H         1 UNK         0.0831 
    111 H111      -50.7037  -26.8067   15.2282 H         1 UNK         0.3133 
    112 H112      -52.8395  -25.5862   13.8046 H         1 UNK         0.0566 
    113 H113      -54.8053  -24.4753   14.8613 H         1 UNK         0.0814 
    114 H114      -55.1632  -26.1202   14.3673 H         1 UNK         0.0814 
    115 H115      -54.8867  -25.7627   16.0649 H         1 UNK         0.0814 
    116 H116      -51.7145  -24.1828   15.0605 H         1 UNK         0.3091 
    117 H117      -51.8606  -22.7042   17.3485 H         1 UNK         0.0702 
    118 H118      -50.4954  -22.8928   19.4326 H         1 UNK         0.0785 
    119 H119      -50.5422  -24.6515   19.3125 H         1 UNK         0.0785 
    120 H120      -52.0223  -23.7439   19.5870 H         1 UNK         0.0785 
    121 H121      -49.8375  -22.5195   16.4496 H         1 UNK         0.2998 
    122 H122      -47.3416  -23.0331   16.6559 H         1 UNK         0.0697 
    123 H123      -45.7366  -24.5330   15.4732 H         1 UNK         0.0825 
    124 H124      -46.3923  -25.2996   16.9111 H         1 UNK         0.0825 
    125 H125      -46.9901  -25.7645   15.3263 H         1 UNK         0.0825 
    126 H126      -47.6689  -23.8354   13.9008 H         1 UNK         0.3029 
    127 H127      -49.6344  -21.0024   12.9387 H         1 UNK         0.0897 
    128 H128      -47.8135  -20.8021   11.2667 H         1 UNK         0.0792 
    129 H129      -47.2524  -20.2470   12.8363 H         1 UNK         0.0792 
    130 H130      -46.7642  -21.8283   12.2413 H         1 UNK         0.0792 
    131 H131      -48.7163  -23.1582   11.3708 H         1 UNK         0.3086 
    132 H132      -51.3986  -25.4629   12.0625 H         1 UNK         0.0583 
    133 H133      -50.5394  -23.8074    9.6384 H         1 UNK         0.1020 
    134 H134      -51.1439  -25.4397    9.5274 H         1 UNK         0.1020 
    135 H135      -54.2996  -23.7719    8.2405 H         1 UNK         0.0694 
    136 H136      -52.7140  -24.3513    7.8029 H         1 UNK         0.0694 
    137 H137      -49.0144  -25.8471   10.6026 H         1 UNK         0.2989 
    138 H138      -46.9718  -26.9572   13.3074 H         1 UNK         0.1055 
    139 H139      -48.3064  -28.4940   11.0201 H         1 UNK         0.0806 
    140 H140      -48.2228  -28.9858   12.7011 H         1 UNK         0.0806 
    141 H141      -46.7547  -28.9127   11.7443 H         1 UNK         0.0806 
    142 H142      -46.6584  -26.6348   10.4387 H         1 UNK         0.3061 
    143 H143      -45.2868  -23.3395   10.6372 H         1 UNK         0.0734 
    144 H144      -43.4031  -24.4664    9.4822 H         1 UNK         0.0832 
    145 H145      -43.3937  -24.8737   11.1892 H         1 UNK         0.0832 
    146 H146      -43.9787  -26.0460   10.0175 H         1 UNK         0.0832 
    147 H147      -45.6914  -25.1257    8.4416 H         1 UNK         0.3156 
    148 H148      -49.0390  -24.1813    7.6845 H         1 UNK         0.0589 
    149 H149      -46.4120  -23.5285    6.2473 H         1 UNK         0.0808 
    150 H150      -48.0198  -23.5613    5.5222 H         1 UNK         0.0808 
    151 H151      -47.6252  -22.3512    6.7305 H         1 UNK         0.0808 
    152 H152      -47.4203  -25.8839    6.2137 H         1 UNK         0.3098 
    153 H153      -47.0846  -28.1241    6.5341 H         1 UNK         0.0720 
    154 H154      -46.8354  -29.0468    8.8704 H         1 UNK         0.0791 
    155 H155      -47.4676  -30.2330    7.7404 H         1 UNK         0.0791 
    156 H156      -48.5505  -29.4470    8.8830 H         1 UNK         0.0791 
    157 H157      -49.8899  -28.9632    6.9658 H         1 UNK         0.3028 
@<TRIPOS>BOND
     1    1    2 1    
     2    1   82 1    
     3    1   83 1    
     4    1   84 1    
     5    2    3 2    
     6    2    4 am   BACKBONE|DICT|INTERRES
     7    4    5 1    
     8    4   85 1    
     9    5    6 1    
    10    5   80 1    
    11    5   86 1    
    12    6    7 1    
    13    6   87 1    
    14    6   88 1    
    15    7    8 1    
    16    8    9 1    
    17    8   89 1    
    18    8   90 1    
    19    9   10 ar   
    20    9   14 ar   
    21   10   11 ar   
    22   10   91 1    
    23   11   12 ar   
    24   11   58 1    
    25   12   13 ar   
    26   12   92 1    
    27   13   14 ar   
    28   13   15 1    
    29   14   93 1    
    30   15   16 1    
    31   15   94 1    
    32   15   95 1    
    33   16   17 1    
    34   17   18 1    
    35   17   96 1    
    36   17   97 1    
    37   18   19 1    
    38   18   22 1    
    39   18   98 1    
    40   19   20 am   BACKBONE|DICT|INTERRES
    41   19   21 2    
    42   20   99 1    
    43   20  100 1    
    44   22   23 am   BACKBONE|DICT|INTERRES
    45   22  101 1    
    46   23   24 2    
    47   23   25 1    
    48   25   26 1    
    49   25   27 1    
    50   25  102 1    
    51   26  103 1    
    52   26  104 1    
    53   26  105 1    
    54   27   28 am   BACKBONE|DICT|INTERRES
    55   27  106 1    
    56   28   29 2    
    57   28   30 1    
    58   30   31 1    
    59   30   32 1    
    60   30  107 1    
    61   31  108 1    
    62   31  109 1    
    63   31  110 1    
    64   32   33 am   BACKBONE|DICT|INTERRES
    65   32  111 1    
    66   33   34 2    
    67   33   35 1    
    68   35   36 1    
    69   35   37 1    
    70   35  112 1    
    71   36  113 1    
    72   36  114 1    
    73   36  115 1    
    74   37   38 am   BACKBONE|DICT|INTERRES
    75   37  116 1    
    76   38   39 2    
    77   38   40 1    
    78   40   41 1    
    79   40   42 1    
    80   40  117 1    
    81   41  118 1    
    82   41  119 1    
    83   41  120 1    
    84   42   43 am   BACKBONE|DICT|INTERRES
    85   42  121 1    
    86   43   44 2    
    87   43   45 1    
    88   45   46 1    
    89   45   47 1    
    90   45  122 1    
    91   46  123 1    
    92   46  124 1    
    93   46  125 1    
    94   47   48 am   BACKBONE|DICT|INTERRES
    95   47  126 1    
    96   48   49 2    
    97   48   50 1    
    98   50   51 1    
    99   50   52 1    
   100   50  127 1    
   101   51  128 1    
   102   51  129 1    
   103   51  130 1    
   104   52   53 am   BACKBONE|DICT|INTERRES
   105   52  131 1    
   106   53   54 2    
   107   53   55 1    
   108   55   56 1    
   109   55   59 1    
   110   55  132 1    
   111   56   57 1    
   112   56  133 1    
   113   56  134 1    
   114   57   58 1    
   115   58  135 1    
   116   58  136 1    
   117   59   60 am   BACKBONE|DICT|INTERRES
   118   59  137 1    
   119   60   61 2    
   120   60   62 1    
   121   62   63 1    
   122   62   64 1    
   123   62  138 1    
   124   63  139 1    
   125   63  140 1    
   126   63  141 1    
   127   64   65 am   BACKBONE|DICT|INTERRES
   128   64  142 1    
   129   65   66 2    
   130   65   67 1    
   131   67   68 1    
   132   67   69 1    
   133   67  143 1    
   134   68  144 1    
   135   68  145 1    
   136   68  146 1    
   137   69   70 am   BACKBONE|DICT|INTERRES
   138   69  147 1    
   139   70   71 2    
   140   70   72 1    
   141   72   73 1    
   142   72   74 1    
   143   72  148 1    
   144   73  149 1    
   145   73  150 1    
   146   73  151 1    
   147   74   75 am   BACKBONE|DICT|INTERRES
   148   74  152 1    
   149   75   76 2    
   150   75   77 1    
   151   77   78 1    
   152   77   79 1    
   153   77  153 1    
   154   78  154 1    
   155   78  155 1    
   156   78  156 1    
   157   79   80 am   BACKBONE|DICT|INTERRES
   158   79  157 1    
   159   80   81 2    
@<TRIPOS>SUBSTRUCTURE
     1 UNK         1 GROUP             0       ****    0 ROOT    
