@<TRIPOS>MOLECULE
3R207
157   159    1
SMALL
USER_CHARGES


@<TRIPOS>ATOM
      1 CA        -46.3407  -28.6874    2.5699 C.3       0 UNK        -0.1975 
      2 C         -47.7231  -28.5805    3.1963 C.2       0 UNK         0.4852 
      3 O         -48.3863  -27.5541    3.0412 O.2       0 UNK        -0.5216 
      4 N         -48.1645  -29.6324    3.8988 N.am      1 UNK        -0.4461 
      5 CA        -49.4276  -29.6639    4.6429 C.3       1 UNK         0.0864 
      6 C6        -49.8456  -31.1169    4.9766 C.3       14 UNK        -0.0898 
      7 S7        -51.6557  -31.2991    5.0928 S.3       14 UNK        -0.2598 
      8 C8        -51.8309  -32.3771    6.5478 C.3       14 UNK         0.0286 
      9 C9        -51.9378  -31.5832    7.8415 C.ar      14 UNK        -0.0844 
     10 C10       -50.8147  -31.3734    8.6493 C.ar      14 UNK        -0.0881 
     11 C11       -50.9356  -30.7040    9.8723 C.ar      14 UNK        -0.0643 
     12 C12       -52.1890  -30.2314   10.2730 C.ar      14 UNK        -0.0930 
     13 C13       -53.3145  -30.4142    9.4657 C.ar      14 UNK        -0.0827 
     14 C14       -53.1823  -31.0972    8.2537 C.ar      14 UNK        -0.1249 
     15 C15       -54.6765  -29.9017    9.9144 C.3       14 UNK         0.0141 
     16 S16       -55.2502  -28.5242    8.8737 S.3       14 UNK        -0.2313 
     17 C17       -56.8883  -28.1886    9.6029 C.3       14 UNK        -0.0915 
     18 CA        -57.0997  -26.6808    9.9292 C.3       13 UNK         0.0968 
     19 C         -58.5748  -26.3462   10.3144 C.2       13 UNK         0.5732 
     20 N         -58.8281  -25.3543   11.1603 N.am      13 UNK        -0.7310 
     21 O         -59.5104  -26.9669    9.8143 O.2       13 UNK        -0.5035 
     22 N         -56.0793  -26.1356   10.8457 N.am      13 UNK        -0.4233 
     23 C         -55.8991  -26.4842   12.1261 C.2       13 UNK         0.4989 
     24 O         -56.5911  -27.3097   12.7275 O.2       13 UNK        -0.4996 
     25 CA        -54.7825  -25.7307   12.8707 C.3       12 UNK         0.0216 
     26 CB        -55.2882  -24.3641   13.3645 C.3       12 UNK        -0.1964 
     27 N         -54.2751  -26.4887   14.0156 N.am      12 UNK        -0.4276 
     28 C         -53.5276  -27.5956   13.9219 C.2       12 UNK         0.5020 
     29 O         -53.1462  -28.0663   12.8508 O.2       12 UNK        -0.5489 
     30 CA        -53.0997  -28.2432   15.2492 C.3       11 UNK         0.0294 
     31 CB        -52.1115  -29.4085   15.0480 C.3       11 UNK        -0.2019 
     32 N         -52.4667  -27.2224   16.0823 N.am      11 UNK        -0.4493 
     33 C         -52.9615  -26.7194   17.2192 C.2       11 UNK         0.4932 
     34 O         -53.9987  -27.1271   17.7441 O.2       11 UNK        -0.5029 
     35 CA        -52.2122  -25.5264   17.8460 C.3       10 UNK         0.0280 
     36 CB        -52.4120  -25.4225   19.3737 C.3       10 UNK        -0.1976 
     37 N         -50.7923  -25.4498   17.4794 N.am      10 UNK        -0.4242 
     38 C         -49.8014  -26.2795   17.8459 C.2       10 UNK         0.5072 
     39 O         -49.9690  -27.2549   18.5795 O.2       10 UNK        -0.5224 
     40 CA        -48.3788  -25.9930   17.3146 C.3       9 UNK         0.0343 
     41 CB        -47.7830  -27.2376   16.6325 C.3       9 UNK        -0.2003 
     42 N         -48.3107  -24.8662   16.3799 N.am      9 UNK        -0.4272 
     43 C         -48.2769  -23.5705   16.7211 C.2       9 UNK         0.4988 
     44 O         -48.2134  -23.1705   17.8836 O.2       9 UNK        -0.5108 
     45 CA        -48.3855  -22.5458   15.5746 C.3       8 UNK         0.0248 
     46 CB        -46.9941  -22.1897   15.0281 C.3       8 UNK        -0.2001 
     47 N         -49.2468  -22.9964   14.4747 N.am      8 UNK        -0.4140 
     48 C         -50.5530  -23.2775   14.5941 C.2       8 UNK         0.5028 
     49 O         -51.1919  -23.1263   15.6350 O.2       8 UNK        -0.5428 
     50 CA        -51.2487  -23.9070   13.3769 C.3       7 UNK         0.0264 
     51 CB        -51.7029  -22.8360   12.3732 C.3       7 UNK        -0.1988 
     52 N         -50.4107  -24.9030   12.7054 N.am      7 UNK        -0.4454 
     53 C         -50.0429  -26.0686   13.2588 C.2       7 UNK         0.5027 
     54 O         -50.3803  -26.4180   14.3889 O.2       7 UNK        -0.5083 
     55 CA        -49.1017  -26.9709   12.4375 C.3       6 UNK         0.0844 
     56 C56       -49.8947  -27.7671   11.3760 C.3       14 UNK        -0.0967 
     57 S57       -48.8464  -28.9682   10.4853 S.3       14 UNK        -0.2604 
     58 C58       -49.7236  -30.5363   10.7812 C.3       14 UNK         0.0134 
     59 N         -47.9982  -26.2021   11.8572 N.am      6 UNK        -0.4116 
     60 C         -47.0493  -25.5768   12.5670 C.2       5 UNK         0.5034 
     61 O         -46.9705  -25.6142   13.7941 O.2       5 UNK        -0.5045 
     62 CA        -46.0485  -24.7224   11.7731 C.3       5 UNK         0.0224 
     63 CB        -44.8953  -25.5903   11.2457 C.3       5 UNK        -0.1978 
     64 N         -46.6575  -23.9908   10.6573 N.am      5 UNK        -0.4737 
     65 C         -47.6534  -23.1018   10.7536 C.2       4 UNK         0.5027 
     66 O         -48.2038  -22.8172   11.8166 O.2       4 UNK        -0.5211 
     67 CA        -48.1459  -22.4313    9.4584 C.3       4 UNK         0.0297 
     68 CB        -47.3270  -21.1619    9.1578 C.3       4 UNK        -0.1993 
     69 N         -48.2227  -23.3133    8.2824 N.am      4 UNK        -0.4486 
     70 C         -47.2405  -23.9207    7.6027 C.2       3 UNK         0.4961 
     71 O         -46.0508  -23.8658    7.9189 O.2       3 UNK        -0.5105 
     72 CA        -47.6773  -24.7572    6.3853 C.3       3 UNK         0.0299 
     73 CB        -46.4816  -25.2873    5.5721 C.3       3 UNK        -0.1972 
     74 N         -48.5214  -25.8904    6.7679 N.am      3 UNK        -0.4305 
     75 C         -49.8116  -25.8405    7.1202 C.2       2 UNK         0.5006 
     76 O         -50.4477  -24.7878    7.2068 O.2       2 UNK        -0.5106 
     77 CA        -50.4960  -27.1919    7.4124 C.3       2 UNK         0.0296 
     78 CB        -51.9669  -27.0380    7.8355 C.3       2 UNK        -0.2002 
     79 N         -50.4174  -28.1150    6.2762 N.am      2 UNK        -0.4032 
     80 C         -49.3213  -28.7926    5.9107 C.2       1 UNK         0.5000 
     81 O         -48.2507  -28.7370    6.5250 O.2       1 UNK        -0.5238 
     82 H82       -46.4079  -28.5657    1.4892 H         1 UNK         0.0889 
     83 H83       -45.8733  -29.6505    2.7745 H         1 UNK         0.0889 
     84 H84       -45.6911  -27.9052    2.9618 H         1 UNK         0.0889 
     85 H85       -47.5620  -30.4334    4.0227 H         1 UNK         0.3028 
     86 H86       -50.1854  -29.2249    3.9893 H         1 UNK         0.0864 
     87 H87       -49.5244  -31.7933    4.1827 H         1 UNK         0.0720 
     88 H88       -49.3564  -31.4756    5.8844 H         1 UNK         0.0720 
     89 H89       -51.0038  -33.0872    6.5942 H         1 UNK         0.0814 
     90 H90       -52.7310  -32.9810    6.4221 H         1 UNK         0.0814 
     91 H91       -49.8501  -31.7513    8.3398 H         1 UNK         0.1469 
     92 H92       -52.2946  -29.7320   11.2234 H         1 UNK         0.1381 
     93 H93       -54.0535  -31.2546    7.6322 H         1 UNK         0.1206 
     94 H94       -54.6422  -29.5701   10.9540 H         1 UNK         0.0813 
     95 H95       -55.4005  -30.7164    9.8696 H         1 UNK         0.0813 
     96 H96       -57.0331  -28.7968   10.4969 H         1 UNK         0.0638 
     97 H97       -57.6297  -28.5339    8.8805 H         1 UNK         0.0638 
     98 H98       -56.9514  -26.1382    8.9950 H         1 UNK         0.0568 
     99 H99       -59.7846  -25.1388   11.3929 H         1 UNK         0.3450 
    100 H100      -58.0764  -24.8259   11.5712 H         1 UNK         0.3450 
    101 H101      -55.4781  -25.4306   10.4453 H         1 UNK         0.2987 
    102 H102      -53.9522  -25.5696   12.1790 H         1 UNK         0.0766 
    103 H103      -54.5078  -23.8130   13.8893 H         1 UNK         0.0798 
    104 H104      -56.1359  -24.4694   14.0431 H         1 UNK         0.0798 
    105 H105      -55.6138  -23.7400   12.5313 H         1 UNK         0.0798 
    106 H106      -54.5752  -26.1903   14.9319 H         1 UNK         0.3198 
    107 H107      -54.0006  -28.6363   15.7246 H         1 UNK         0.0843 
    108 H108      -51.2005  -29.0830   14.5442 H         1 UNK         0.0831 
    109 H109      -52.5565  -30.1981   14.4412 H         1 UNK         0.0831 
    110 H110      -51.8253  -29.8525   16.0014 H         1 UNK         0.0831 
    111 H111      -51.6287  -26.8058   15.6774 H         1 UNK         0.3133 
    112 H112      -52.6689  -24.6388   17.4067 H         1 UNK         0.0566 
    113 H113      -51.8782  -24.5666   19.7867 H         1 UNK         0.0814 
    114 H114      -53.4662  -25.2945   19.6222 H         1 UNK         0.0814 
    115 H115      -52.0660  -26.3174   19.8914 H         1 UNK         0.0814 
    116 H116      -50.5648  -24.6850   16.8527 H         1 UNK         0.3091 
    117 H117      -47.7588  -25.7593   18.1824 H         1 UNK         0.0702 
    118 H118      -46.7662  -27.0511   16.2861 H         1 UNK         0.0785 
    119 H119      -48.3762  -27.5493   15.7727 H         1 UNK         0.0785 
    120 H120      -47.7388  -28.0821   17.3213 H         1 UNK         0.0785 
    121 H121      -48.3003  -25.1056   15.3947 H         1 UNK         0.2998 
    122 H122      -48.8316  -21.6381   15.9862 H         1 UNK         0.0697 
    123 H123      -46.4879  -23.0617   14.6146 H         1 UNK         0.0825 
    124 H124      -46.3572  -21.7875   15.8171 H         1 UNK         0.0825 
    125 H125      -47.0558  -21.4352   14.2435 H         1 UNK         0.0825 
    126 H126      -48.8132  -23.0926   13.5581 H         1 UNK         0.3029 
    127 H127      -52.1373  -24.4225   13.7460 H         1 UNK         0.0897 
    128 H128      -52.2623  -23.2774   11.5482 H         1 UNK         0.0792 
    129 H129      -52.3579  -22.1079   12.8537 H         1 UNK         0.0792 
    130 H130      -50.8597  -22.2870   11.9532 H         1 UNK         0.0792 
    131 H131      -50.0387  -24.6498   11.8022 H         1 UNK         0.3086 
    132 H132      -48.6638  -27.6899   13.1337 H         1 UNK         0.0583 
    133 H133      -50.7126  -28.2978   11.8624 H         1 UNK         0.1020 
    134 H134      -50.3611  -27.1010   10.6486 H         1 UNK         0.1020 
    135 H135      -49.0253  -31.3579   10.6146 H         1 UNK         0.0694 
    136 H136      -50.0196  -30.6042   11.8293 H         1 UNK         0.0694 
    137 H137      -47.9669  -26.1364   10.8512 H         1 UNK         0.2989 
    138 H138      -45.6348  -23.9828   12.4616 H         1 UNK         0.1055 
    139 H139      -44.4115  -26.1337   12.0588 H         1 UNK         0.0806 
    140 H140      -44.1296  -24.9815   10.7643 H         1 UNK         0.0806 
    141 H141      -45.2418  -26.3273   10.5201 H         1 UNK         0.0806 
    142 H142      -46.2533  -24.1231    9.7321 H         1 UNK         0.3061 
    143 H143      -49.1730  -22.1163    9.6503 H         1 UNK         0.0734 
    144 H144      -47.7221  -20.6306    8.2920 H         1 UNK         0.0832 
    145 H145      -47.3569  -20.4719   10.0023 H         1 UNK         0.0832 
    146 H146      -46.2782  -21.3880    8.9633 H         1 UNK         0.0832 
    147 H147      -49.1655  -23.5167    7.9573 H         1 UNK         0.3156 
    148 H148      -48.2553  -24.1002    5.7320 H         1 UNK         0.0589 
    149 H149      -45.8327  -24.4710    5.2518 H         1 UNK         0.0808 
    150 H150      -45.8727  -25.9812    6.1531 H         1 UNK         0.0808 
    151 H151      -46.8140  -25.8057    4.6726 H         1 UNK         0.0808 
    152 H152      -48.0936  -26.8123    6.7313 H         1 UNK         0.3098 
    153 H153      -49.9628  -27.6407    8.2491 H         1 UNK         0.0720 
    154 H154      -52.5757  -26.6020    7.0427 H         1 UNK         0.0791 
    155 H155      -52.0610  -26.3970    8.7129 H         1 UNK         0.0791 
    156 H156      -52.3972  -28.0041    8.0973 H         1 UNK         0.0791 
    157 H157      -51.2546  -28.2122    5.7198 H         1 UNK         0.3028 
@<TRIPOS>BOND
     1    1    2 1    
     2    1   82 1    
     3    1   83 1    
     4    1   84 1    
     5    2    3 2    
     6    2    4 am   BACKBONE|DICT|INTERRES
     7    4    5 1    
     8    4   85 1    
     9    5    6 1    
    10    5   80 1    
    11    5   86 1    
    12    6    7 1    
    13    6   87 1    
    14    6   88 1    
    15    7    8 1    
    16    8    9 1    
    17    8   89 1    
    18    8   90 1    
    19    9   10 ar   
    20    9   14 ar   
    21   10   11 ar   
    22   10   91 1    
    23   11   12 ar   
    24   11   58 1    
    25   12   13 ar   
    26   12   92 1    
    27   13   14 ar   
    28   13   15 1    
    29   14   93 1    
    30   15   16 1    
    31   15   94 1    
    32   15   95 1    
    33   16   17 1    
    34   17   18 1    
    35   17   96 1    
    36   17   97 1    
    37   18   19 1    
    38   18   22 1    
    39   18   98 1    
    40   19   20 am   BACKBONE|DICT|INTERRES
    41   19   21 2    
    42   20   99 1    
    43   20  100 1    
    44   22   23 am   BACKBONE|DICT|INTERRES
    45   22  101 1    
    46   23   24 2    
    47   23   25 1    
    48   25   26 1    
    49   25   27 1    
    50   25  102 1    
    51   26  103 1    
    52   26  104 1    
    53   26  105 1    
    54   27   28 am   BACKBONE|DICT|INTERRES
    55   27  106 1    
    56   28   29 2    
    57   28   30 1    
    58   30   31 1    
    59   30   32 1    
    60   30  107 1    
    61   31  108 1    
    62   31  109 1    
    63   31  110 1    
    64   32   33 am   BACKBONE|DICT|INTERRES
    65   32  111 1    
    66   33   34 2    
    67   33   35 1    
    68   35   36 1    
    69   35   37 1    
    70   35  112 1    
    71   36  113 1    
    72   36  114 1    
    73   36  115 1    
    74   37   38 am   BACKBONE|DICT|INTERRES
    75   37  116 1    
    76   38   39 2    
    77   38   40 1    
    78   40   41 1    
    79   40   42 1    
    80   40  117 1    
    81   41  118 1    
    82   41  119 1    
    83   41  120 1    
    84   42   43 am   BACKBONE|DICT|INTERRES
    85   42  121 1    
    86   43   44 2    
    87   43   45 1    
    88   45   46 1    
    89   45   47 1    
    90   45  122 1    
    91   46  123 1    
    92   46  124 1    
    93   46  125 1    
    94   47   48 am   BACKBONE|DICT|INTERRES
    95   47  126 1    
    96   48   49 2    
    97   48   50 1    
    98   50   51 1    
    99   50   52 1    
   100   50  127 1    
   101   51  128 1    
   102   51  129 1    
   103   51  130 1    
   104   52   53 am   BACKBONE|DICT|INTERRES
   105   52  131 1    
   106   53   54 2    
   107   53   55 1    
   108   55   56 1    
   109   55   59 1    
   110   55  132 1    
   111   56   57 1    
   112   56  133 1    
   113   56  134 1    
   114   57   58 1    
   115   58  135 1    
   116   58  136 1    
   117   59   60 am   BACKBONE|DICT|INTERRES
   118   59  137 1    
   119   60   61 2    
   120   60   62 1    
   121   62   63 1    
   122   62   64 1    
   123   62  138 1    
   124   63  139 1    
   125   63  140 1    
   126   63  141 1    
   127   64   65 am   BACKBONE|DICT|INTERRES
   128   64  142 1    
   129   65   66 2    
   130   65   67 1    
   131   67   68 1    
   132   67   69 1    
   133   67  143 1    
   134   68  144 1    
   135   68  145 1    
   136   68  146 1    
   137   69   70 am   BACKBONE|DICT|INTERRES
   138   69  147 1    
   139   70   71 2    
   140   70   72 1    
   141   72   73 1    
   142   72   74 1    
   143   72  148 1    
   144   73  149 1    
   145   73  150 1    
   146   73  151 1    
   147   74   75 am   BACKBONE|DICT|INTERRES
   148   74  152 1    
   149   75   76 2    
   150   75   77 1    
   151   77   78 1    
   152   77   79 1    
   153   77  153 1    
   154   78  154 1    
   155   78  155 1    
   156   78  156 1    
   157   79   80 am   BACKBONE|DICT|INTERRES
   158   79  157 1    
   159   80   81 2    
@<TRIPOS>SUBSTRUCTURE
     1 UNK         1 GROUP             0       ****    0 ROOT    
