@<TRIPOS>MOLECULE
3R207
157   159    1
SMALL
USER_CHARGES


@<TRIPOS>ATOM
      1 CA        -46.1081  -27.0621    3.9711 C.3       0 UNK        -0.1975 
      2 C         -47.1480  -26.1103    4.5419 C.2       0 UNK         0.4852 
      3 O         -46.9417  -24.8956    4.5293 O.2       0 UNK        -0.5216 
      4 N         -48.2604  -26.6512    5.0564 N.am      1 UNK        -0.4461 
      5 CA        -49.3490  -25.9048    5.6957 C.3       1 UNK         0.0864 
      6 C6        -50.5521  -26.8332    5.9960 C.3       14 UNK        -0.0898 
      7 S7        -52.1484  -25.9520    5.9872 S.3       14 UNK        -0.2598 
      8 C8        -53.3142  -27.3175    6.3136 C.3       14 UNK         0.0286 
      9 C9        -53.2537  -27.7945    7.7593 C.ar      14 UNK        -0.0844 
     10 C10       -52.3555  -28.7981    8.1327 C.ar      14 UNK        -0.0881 
     11 C11       -52.2634  -29.2158    9.4626 C.ar      14 UNK        -0.0643 
     12 C12       -53.1108  -28.6512   10.4200 C.ar      14 UNK        -0.0930 
     13 C13       -54.0330  -27.6629   10.0565 C.ar      14 UNK        -0.0827 
     14 C14       -54.0937  -27.2334    8.7264 C.ar      14 UNK        -0.1249 
     15 C15       -54.9398  -27.0344   11.1047 C.3       14 UNK         0.0141 
     16 S16       -56.6585  -27.6011   10.9213 S.3       14 UNK        -0.2313 
     17 C17       -57.3565  -27.1740   12.5575 C.3       14 UNK        -0.0915 
     18 CA        -57.6875  -28.4237   13.4191 C.3       13 UNK         0.0968 
     19 C         -58.9969  -29.1252   12.9476 C.2       13 UNK         0.5732 
     20 N         -58.9541  -30.3522   12.4418 N.am      13 UNK        -0.7310 
     21 O         -60.0748  -28.5452   13.0560 O.2       13 UNK        -0.5035 
     22 N         -56.5098  -29.2944   13.5453 N.am      13 UNK        -0.4233 
     23 C         -56.3444  -30.2751   14.4397 C.2       13 UNK         0.4989 
     24 O         -57.1638  -30.5684   15.3101 O.2       13 UNK        -0.4996 
     25 CA        -55.0119  -31.0305   14.3560 C.3       12 UNK         0.0216 
     26 CB        -54.7260  -31.5637   12.9380 C.3       12 UNK        -0.1964 
     27 N         -53.9327  -30.1392   14.7791 N.am      12 UNK        -0.4276 
     28 C         -53.4592  -30.0614   16.0284 C.2       12 UNK         0.5020 
     29 O         -53.8035  -30.8045   16.9486 O.2       12 UNK        -0.5489 
     30 CA        -52.4218  -28.9610   16.2970 C.3       11 UNK         0.0294 
     31 CB        -51.0063  -29.4518   15.9518 C.3       11 UNK        -0.2019 
     32 N         -52.6926  -27.7146   15.5761 N.am      11 UNK        -0.4493 
     33 C         -53.6994  -26.8704   15.8433 C.2       11 UNK         0.4932 
     34 O         -54.5981  -27.1024   16.6530 O.2       11 UNK        -0.5029 
     35 CA        -53.6397  -25.5180   15.1046 C.3       10 UNK         0.0280 
     36 CB        -54.7136  -24.5137   15.5709 C.3       10 UNK        -0.1976 
     37 N         -52.2922  -24.9348   15.1769 N.am      10 UNK        -0.4242 
     38 C         -51.6008  -24.6048   16.2811 C.2       10 UNK         0.5072 
     39 O         -52.0722  -24.5999   17.4189 O.2       10 UNK        -0.5224 
     40 CA        -50.1099  -24.2636   16.0988 C.3       9 UNK         0.0343 
     41 CB        -49.2463  -25.4935   16.4252 C.3       9 UNK        -0.2003 
     42 N         -49.7774  -23.8050   14.7500 N.am      9 UNK        -0.4272 
     43 C         -50.0782  -22.5962   14.2566 C.2       9 UNK         0.4988 
     44 O         -50.6123  -21.6983   14.9080 O.2       9 UNK        -0.5108 
     45 CA        -49.7558  -22.3691   12.7709 C.3       8 UNK         0.0248 
     46 CB        -48.2708  -22.0227   12.5700 C.3       8 UNK        -0.2001 
     47 N         -50.1056  -23.5361   11.9583 N.am      8 UNK        -0.4140 
     48 C         -51.3611  -23.9193   11.6865 C.2       8 UNK         0.5028 
     49 O         -52.3624  -23.3075   12.0568 O.2       8 UNK        -0.5428 
     50 CA        -51.5324  -25.2112   10.8783 C.3       7 UNK         0.0264 
     51 CB        -51.5122  -24.9056    9.3781 C.3       7 UNK        -0.1988 
     52 N         -50.5152  -26.2174   11.1877 N.am      7 UNK        -0.4454 
     53 C         -50.5329  -26.9766   12.2925 C.2       7 UNK         0.5027 
     54 O         -51.4203  -26.9244   13.1450 O.2       7 UNK        -0.5083 
     55 CA        -49.3455  -27.9307   12.5228 C.3       6 UNK         0.0844 
     56 C56       -49.6401  -29.3629   12.0128 C.3       14 UNK        -0.0967 
     57 S57       -49.6084  -29.5554   10.1939 S.3       14 UNK        -0.2604 
     58 C58       -51.2463  -30.2798    9.8472 C.3       14 UNK         0.0134 
     59 N         -48.0627  -27.4049   12.0459 N.am      6 UNK        -0.4116 
     60 C         -47.4945  -26.2615   12.4495 C.2       5 UNK         0.5034 
     61 O         -48.0219  -25.4912   13.2522 O.2       5 UNK        -0.5045 
     62 CA        -46.1316  -25.8743   11.8534 C.3       5 UNK         0.0224 
     63 CB        -44.9829  -26.3010   12.7867 C.3       5 UNK        -0.1978 
     64 N         -45.8970  -26.3164   10.4713 N.am      5 UNK        -0.4737 
     65 C         -45.7267  -27.5571    9.9861 C.2       4 UNK         0.5027 
     66 O         -45.8105  -28.5719   10.6771 O.2       4 UNK        -0.5211 
     67 CA        -45.4372  -27.7011    8.4783 C.3       4 UNK         0.0297 
     68 CB        -46.4777  -28.6081    7.7974 C.3       4 UNK        -0.1993 
     69 N         -45.4005  -26.4033    7.7973 N.am      4 UNK        -0.4486 
     70 C         -44.3081  -25.6298    7.6940 C.2       3 UNK         0.4961 
     71 O         -43.1865  -25.9878    8.0531 O.2       3 UNK        -0.5105 
     72 CA        -44.4852  -24.2074    7.1282 C.3       3 UNK         0.0299 
     73 CB        -43.8631  -24.0919    5.7269 C.3       3 UNK        -0.1972 
     74 N         -45.8831  -23.7652    7.0879 N.am      3 UNK        -0.4305 
     75 C         -46.5876  -23.3934    8.1690 C.2       2 UNK         0.5006 
     76 O         -46.1222  -23.3695    9.3084 O.2       2 UNK        -0.5106 
     77 CA        -48.0760  -23.0536    7.9630 C.3       2 UNK         0.0296 
     78 CB        -48.2542  -21.5609    7.6469 C.3       2 UNK        -0.2002 
     79 N         -48.7174  -23.8611    6.9188 N.am      2 UNK        -0.4032 
     80 C         -48.8258  -25.1966    6.9637 C.2       1 UNK         0.5000 
     81 O         -48.4580  -25.8706    7.9289 O.2       1 UNK        -0.5238 
     82 H82       -45.7919  -26.7251    2.9843 H         1 UNK         0.0889 
     83 H83       -46.4955  -28.0761    3.8732 H         1 UNK         0.0889 
     84 H84       -45.2324  -27.0937    4.6187 H         1 UNK         0.0889 
     85 H85       -48.3641  -27.6556    5.0561 H         1 UNK         0.3028 
     86 H86       -49.6685  -25.1473    4.9764 H         1 UNK         0.0864 
     87 H87       -50.6257  -27.6124    5.2356 H         1 UNK         0.0720 
     88 H88       -50.4148  -27.3530    6.9447 H         1 UNK         0.0720 
     89 H89       -53.1121  -28.1447    5.6315 H         1 UNK         0.0814 
     90 H90       -54.3243  -26.9767    6.0819 H         1 UNK         0.0814 
     91 H91       -51.7074  -29.2425    7.3902 H         1 UNK         0.1469 
     92 H92       -53.0387  -28.9713   11.4492 H         1 UNK         0.1381 
     93 H93       -54.7931  -26.4575    8.4464 H         1 UNK         0.1206 
     94 H94       -54.9133  -25.9475   11.0139 H         1 UNK         0.0813 
     95 H95       -54.5744  -27.2682   12.1057 H         1 UNK         0.0813 
     96 H96       -56.6521  -26.5380   13.0959 H         1 UNK         0.0638 
     97 H97       -58.2432  -26.5553   12.4071 H         1 UNK         0.0638 
     98 H98       -57.9097  -28.0628   14.4252 H         1 UNK         0.0568 
     99 H99       -59.8106  -30.7932   12.1467 H         1 UNK         0.3450 
    100 H100      -58.0767  -30.8348   12.3420 H         1 UNK         0.3450 
    101 H101      -55.8091  -29.1593   12.8343 H         1 UNK         0.2987 
    102 H102      -55.0733  -31.8911   15.0260 H         1 UNK         0.0766 
    103 H103      -54.6040  -30.7686   12.2025 H         1 UNK         0.0798 
    104 H104      -55.5374  -32.2062   12.5933 H         1 UNK         0.0798 
    105 H105      -53.8161  -32.1642   12.9245 H         1 UNK         0.0798 
    106 H106      -53.5978  -29.4607   14.1124 H         1 UNK         0.3198 
    107 H107      -52.4516  -28.7377   17.3660 H         1 UNK         0.0843 
    108 H108      -50.9023  -29.6750   14.8901 H         1 UNK         0.0831 
    109 H109      -50.7666  -30.3637   16.5006 H         1 UNK         0.0831 
    110 H110      -50.2527  -28.7101   16.2162 H         1 UNK         0.0831 
    111 H111      -52.0417  -27.4455   14.8417 H         1 UNK         0.3133 
    112 H112      -53.8253  -25.7312   14.0510 H         1 UNK         0.0566 
    113 H113      -54.6219  -24.2821   16.6324 H         1 UNK         0.0814 
    114 H114      -54.6459  -23.5780   15.0158 H         1 UNK         0.0814 
    115 H115      -55.7154  -24.9143   15.4116 H         1 UNK         0.0814 
    116 H116      -51.7860  -24.9327   14.3018 H         1 UNK         0.3091 
    117 H117      -49.8615  -23.4697   16.8064 H         1 UNK         0.0702 
    118 H118      -48.1834  -25.2564   16.3729 H         1 UNK         0.0785 
    119 H119      -49.4386  -26.3145   15.7332 H         1 UNK         0.0785 
    120 H120      -49.4485  -25.8598   17.4327 H         1 UNK         0.0785 
    121 H121      -49.2632  -24.4568   14.1605 H         1 UNK         0.2998 
    122 H122      -50.3516  -21.5220   12.4239 H         1 UNK         0.0697 
    123 H123      -47.6140  -22.8233   12.9112 H         1 UNK         0.0825 
    124 H124      -48.0038  -21.1248   13.1288 H         1 UNK         0.0825 
    125 H125      -48.0453  -21.8296   11.5207 H         1 UNK         0.0825 
    126 H126      -49.3448  -24.1268   11.6574 H         1 UNK         0.3029 
    127 H127      -52.5076  -25.6268   11.1286 H         1 UNK         0.0897 
    128 H128      -50.6456  -24.3116    9.0959 H         1 UNK         0.0792 
    129 H129      -52.4013  -24.3485    9.0807 H         1 UNK         0.0792 
    130 H130      -51.4914  -25.8252    8.7966 H         1 UNK         0.0792 
    131 H131      -49.7746  -26.3558   10.5134 H         1 UNK         0.3086 
    132 H132      -49.2416  -28.0046   13.6075 H         1 UNK         0.0583 
    133 H133      -48.8925  -30.0450   12.4209 H         1 UNK         0.1020 
    134 H134      -50.5922  -29.7158   12.4121 H         1 UNK         0.1020 
    135 H135      -51.1391  -30.9896    9.0255 H         1 UNK         0.0694 
    136 H136      -51.5999  -30.8654   10.6969 H         1 UNK         0.0694 
    137 H137      -47.5348  -27.9922   11.4075 H         1 UNK         0.2989 
    138 H138      -46.1241  -24.7835   11.8097 H         1 UNK         0.1055 
    139 H139      -45.1124  -25.8735   13.7821 H         1 UNK         0.0806 
    140 H140      -44.0188  -25.9585   12.4107 H         1 UNK         0.0806 
    141 H141      -44.9320  -27.3837   12.9054 H         1 UNK         0.0806 
    142 H142      -45.8509  -25.5570    9.8027 H         1 UNK         0.3061 
    143 H143      -44.4633  -28.1861    8.3840 H         1 UNK         0.0734 
    144 H144      -46.4498  -29.6136    8.2193 H         1 UNK         0.0832 
    145 H145      -46.2867  -28.7026    6.7288 H         1 UNK         0.0832 
    146 H146      -47.4941  -28.2381    7.9293 H         1 UNK         0.0832 
    147 H147      -46.3004  -26.0228    7.5304 H         1 UNK         0.3156 
    148 H148      -43.9377  -23.5308    7.7879 H         1 UNK         0.0589 
    149 H149      -44.3296  -24.7708    5.0143 H         1 UNK         0.0808 
    150 H150      -43.9536  -23.0791    5.3341 H         1 UNK         0.0808 
    151 H151      -42.7997  -24.3335    5.7531 H         1 UNK         0.0808 
    152 H152      -46.3479  -23.8211    6.1863 H         1 UNK         0.3098 
    153 H153      -48.5835  -23.2605    8.9068 H         1 UNK         0.0720 
    154 H154      -49.3089  -21.2901    7.5929 H         1 UNK         0.0791 
    155 H155      -47.7872  -21.2888    6.6994 H         1 UNK         0.0791 
    156 H156      -47.8023  -20.9417    8.4233 H         1 UNK         0.0791 
    157 H157      -49.0079  -23.3758    6.0817 H         1 UNK         0.3028 
@<TRIPOS>BOND
     1    1    2 1    
     2    1   82 1    
     3    1   83 1    
     4    1   84 1    
     5    2    3 2    
     6    2    4 am   BACKBONE|DICT|INTERRES
     7    4    5 1    
     8    4   85 1    
     9    5    6 1    
    10    5   80 1    
    11    5   86 1    
    12    6    7 1    
    13    6   87 1    
    14    6   88 1    
    15    7    8 1    
    16    8    9 1    
    17    8   89 1    
    18    8   90 1    
    19    9   10 ar   
    20    9   14 ar   
    21   10   11 ar   
    22   10   91 1    
    23   11   12 ar   
    24   11   58 1    
    25   12   13 ar   
    26   12   92 1    
    27   13   14 ar   
    28   13   15 1    
    29   14   93 1    
    30   15   16 1    
    31   15   94 1    
    32   15   95 1    
    33   16   17 1    
    34   17   18 1    
    35   17   96 1    
    36   17   97 1    
    37   18   19 1    
    38   18   22 1    
    39   18   98 1    
    40   19   20 am   BACKBONE|DICT|INTERRES
    41   19   21 2    
    42   20   99 1    
    43   20  100 1    
    44   22   23 am   BACKBONE|DICT|INTERRES
    45   22  101 1    
    46   23   24 2    
    47   23   25 1    
    48   25   26 1    
    49   25   27 1    
    50   25  102 1    
    51   26  103 1    
    52   26  104 1    
    53   26  105 1    
    54   27   28 am   BACKBONE|DICT|INTERRES
    55   27  106 1    
    56   28   29 2    
    57   28   30 1    
    58   30   31 1    
    59   30   32 1    
    60   30  107 1    
    61   31  108 1    
    62   31  109 1    
    63   31  110 1    
    64   32   33 am   BACKBONE|DICT|INTERRES
    65   32  111 1    
    66   33   34 2    
    67   33   35 1    
    68   35   36 1    
    69   35   37 1    
    70   35  112 1    
    71   36  113 1    
    72   36  114 1    
    73   36  115 1    
    74   37   38 am   BACKBONE|DICT|INTERRES
    75   37  116 1    
    76   38   39 2    
    77   38   40 1    
    78   40   41 1    
    79   40   42 1    
    80   40  117 1    
    81   41  118 1    
    82   41  119 1    
    83   41  120 1    
    84   42   43 am   BACKBONE|DICT|INTERRES
    85   42  121 1    
    86   43   44 2    
    87   43   45 1    
    88   45   46 1    
    89   45   47 1    
    90   45  122 1    
    91   46  123 1    
    92   46  124 1    
    93   46  125 1    
    94   47   48 am   BACKBONE|DICT|INTERRES
    95   47  126 1    
    96   48   49 2    
    97   48   50 1    
    98   50   51 1    
    99   50   52 1    
   100   50  127 1    
   101   51  128 1    
   102   51  129 1    
   103   51  130 1    
   104   52   53 am   BACKBONE|DICT|INTERRES
   105   52  131 1    
   106   53   54 2    
   107   53   55 1    
   108   55   56 1    
   109   55   59 1    
   110   55  132 1    
   111   56   57 1    
   112   56  133 1    
   113   56  134 1    
   114   57   58 1    
   115   58  135 1    
   116   58  136 1    
   117   59   60 am   BACKBONE|DICT|INTERRES
   118   59  137 1    
   119   60   61 2    
   120   60   62 1    
   121   62   63 1    
   122   62   64 1    
   123   62  138 1    
   124   63  139 1    
   125   63  140 1    
   126   63  141 1    
   127   64   65 am   BACKBONE|DICT|INTERRES
   128   64  142 1    
   129   65   66 2    
   130   65   67 1    
   131   67   68 1    
   132   67   69 1    
   133   67  143 1    
   134   68  144 1    
   135   68  145 1    
   136   68  146 1    
   137   69   70 am   BACKBONE|DICT|INTERRES
   138   69  147 1    
   139   70   71 2    
   140   70   72 1    
   141   72   73 1    
   142   72   74 1    
   143   72  148 1    
   144   73  149 1    
   145   73  150 1    
   146   73  151 1    
   147   74   75 am   BACKBONE|DICT|INTERRES
   148   74  152 1    
   149   75   76 2    
   150   75   77 1    
   151   77   78 1    
   152   77   79 1    
   153   77  153 1    
   154   78  154 1    
   155   78  155 1    
   156   78  156 1    
   157   79   80 am   BACKBONE|DICT|INTERRES
   158   79  157 1    
   159   80   81 2    
@<TRIPOS>SUBSTRUCTURE
     1 UNK         1 GROUP             0       ****    0 ROOT    
