@<TRIPOS>MOLECULE
3R207
157   159    1
SMALL
USER_CHARGES


@<TRIPOS>ATOM
      1 CA        -48.8579  -25.6959    3.2224 C.3       0 UNK        -0.1975 
      2 C         -48.7919  -26.0885    4.6901 C.2       0 UNK         0.4852 
      3 O         -47.7220  -26.0069    5.2945 O.2       0 UNK        -0.5216 
      4 N         -49.9320  -26.4879    5.2741 N.am      1 UNK        -0.4461 
      5 CA        -50.0746  -26.9870    6.6528 C.3       1 UNK         0.0864 
      6 C6        -49.4682  -28.4059    6.8314 C.3       14 UNK        -0.0898 
      7 S7        -50.3803  -29.6189    5.8052 S.3       14 UNK        -0.2598 
      8 C8        -50.6100  -31.0689    6.8942 C.3       14 UNK         0.0286 
      9 C9        -51.1313  -30.7169    8.2819 C.ar      14 UNK        -0.0844 
     10 C10       -50.3765  -31.0563    9.4075 C.ar      14 UNK        -0.0881 
     11 C11       -50.7862  -30.6656   10.6857 C.ar      14 UNK        -0.0643 
     12 C12       -51.9917  -29.9736   10.8338 C.ar      14 UNK        -0.0930 
     13 C13       -52.7779  -29.6611    9.7211 C.ar      14 UNK        -0.0827 
     14 C14       -52.3415  -30.0353    8.4461 C.ar      14 UNK        -0.1249 
     15 C15       -54.0767  -28.8845    9.8855 C.3       14 UNK         0.0141 
     16 S16       -55.5102  -29.9806   10.1101 S.3       14 UNK        -0.2313 
     17 C17       -55.5292  -30.2543   11.9161 C.3       14 UNK        -0.0915 
     18 CA        -56.5745  -29.3480   12.6253 C.3       13 UNK         0.0968 
     19 C         -56.9369  -29.8441   14.0565 C.2       13 UNK         0.5732 
     20 N         -57.0697  -28.9770   15.0528 N.am      13 UNK        -0.7310 
     21 O         -57.1240  -31.0399   14.2683 O.2       13 UNK        -0.5035 
     22 N         -56.1622  -27.9355   12.5911 N.am      13 UNK        -0.4233 
     23 C         -56.9652  -26.9043   12.3104 C.2       13 UNK         0.4989 
     24 O         -58.1533  -27.0182   12.0028 O.2       13 UNK        -0.4996 
     25 CA        -56.3133  -25.5104   12.3910 C.3       12 UNK         0.0216 
     26 CB        -57.3369  -24.3601   12.2792 C.3       12 UNK        -0.1964 
     27 N         -55.4642  -25.3303   13.5772 N.am      12 UNK        -0.4276 
     28 C         -55.8296  -25.4080   14.8650 C.2       12 UNK         0.5020 
     29 O         -56.9463  -25.7612   15.2487 O.2       12 UNK        -0.5489 
     30 CA        -54.7330  -25.0427   15.8807 C.3       11 UNK         0.0294 
     31 CB        -55.2682  -24.8162   17.3113 C.3       11 UNK        -0.2019 
     32 N         -53.6407  -26.0192   15.8515 N.am      11 UNK        -0.4493 
     33 C         -53.6730  -27.3035   16.2366 C.2       11 UNK         0.4932 
     34 O         -54.6375  -27.8435   16.7758 O.2       11 UNK        -0.5029 
     35 CA        -52.4190  -28.1501   15.9575 C.3       10 UNK         0.0280 
     36 CB        -52.6421  -29.0116   14.7043 C.3       10 UNK        -0.1976 
     37 N         -51.1946  -27.3604   15.7914 N.am      10 UNK        -0.4242 
     38 C         -50.5497  -26.7316   16.7849 C.2       10 UNK         0.5072 
     39 O         -50.9019  -26.7704   17.9646 O.2       10 UNK        -0.5224 
     40 CA        -49.3091  -25.9074   16.3965 C.3       9 UNK         0.0343 
     41 CB        -48.0875  -26.8193   16.1969 C.3       9 UNK        -0.2003 
     42 N         -49.5140  -25.0930   15.1960 N.am      9 UNK        -0.4272 
     43 C         -50.3710  -24.0642   15.1065 C.2       9 UNK         0.4988 
     44 O         -51.0622  -23.6605   16.0413 O.2       9 UNK        -0.5108 
     45 CA        -50.5131  -23.3983   13.7277 C.3       8 UNK         0.0248 
     46 CB        -49.3376  -22.4498   13.4386 C.3       8 UNK        -0.2001 
     47 N         -50.6308  -24.3933   12.6617 N.am      8 UNK        -0.4140 
     48 C         -51.7060  -25.1729   12.4809 C.2       8 UNK         0.5028 
     49 O         -52.7477  -25.0655   13.1273 O.2       8 UNK        -0.5428 
     50 CA        -51.5994  -26.2870   11.4295 C.3       7 UNK         0.0264 
     51 CB        -52.2069  -25.8339   10.0951 C.3       7 UNK        -0.1988 
     52 N         -50.2281  -26.7707   11.2354 N.am      7 UNK        -0.4454 
     53 C         -49.5556  -27.4643   12.1673 C.2       7 UNK         0.5027 
     54 O         -50.0211  -27.7431   13.2717 O.2       7 UNK        -0.5083 
     55 CA        -48.1062  -27.8578   11.8358 C.3       6 UNK         0.0844 
     56 C56       -48.0420  -29.0615   10.8675 C.3       14 UNK        -0.0967 
     57 S57       -48.1409  -30.6856   11.6992 S.3       14 UNK        -0.2604 
     58 C58       -49.9355  -30.9731   11.9149 C.3       14 UNK         0.0134 
     59 N         -47.3583  -26.7168   11.3139 N.am      6 UNK        -0.4116 
     60 C         -47.0355  -25.6151   12.0006 C.2       5 UNK         0.5034 
     61 O         -47.3959  -25.4125   13.1606 O.2       5 UNK        -0.5045 
     62 CA        -46.2146  -24.5354   11.2699 C.3       5 UNK         0.0224 
     63 CB        -44.9766  -24.1096   12.0849 C.3       5 UNK        -0.1978 
     64 N         -45.8577  -24.8717    9.8812 N.am      5 UNK        -0.4737 
     65 C         -45.0131  -25.8142    9.4299 C.2       4 UNK         0.5027 
     66 O         -44.3587  -26.5508   10.1667 O.2       4 UNK        -0.5211 
     67 CA        -44.9178  -26.0205    7.9026 C.3       4 UNK         0.0297 
     68 CB        -45.4357  -27.4189    7.5245 C.3       4 UNK        -0.1993 
     69 N         -45.6656  -25.0286    7.1266 N.am      4 UNK        -0.4486 
     70 C         -45.3033  -23.7521    6.9406 C.2       3 UNK         0.4961 
     71 O         -44.2244  -23.2826    7.3017 O.2       3 UNK        -0.5105 
     72 CA        -46.3597  -22.8317    6.3049 C.3       3 UNK         0.0299 
     73 CB        -46.2644  -22.8609    4.7710 C.3       3 UNK        -0.1972 
     74 N         -47.7215  -23.1781    6.7327 N.am      3 UNK        -0.4305 
     75 C         -48.1837  -23.0176    7.9828 C.2       2 UNK         0.5006 
     76 O         -47.5261  -22.5084    8.8886 O.2       2 UNK        -0.5106 
     77 CA        -49.5933  -23.5389    8.3013 C.3       2 UNK         0.0296 
     78 CB        -50.6321  -22.4188    8.1343 C.3       2 UNK        -0.2002 
     79 N         -49.9745  -24.6870    7.4769 N.am      2 UNK        -0.4032 
     80 C         -49.5937  -25.9543    7.7004 C.2       1 UNK         0.5000 
     81 O         -48.9171  -26.3012    8.6734 O.2       1 UNK        -0.5238 
     82 H82       -49.8495  -25.8583    2.8005 H         1 UNK         0.0889 
     83 H83       -48.1448  -26.2855    2.6471 H         1 UNK         0.0889 
     84 H84       -48.6046  -24.6430    3.1024 H         1 UNK         0.0889 
     85 H85       -50.7746  -26.5288    4.7171 H         1 UNK         0.3028 
     86 H86       -51.1474  -27.0743    6.8338 H         1 UNK         0.0864 
     87 H87       -48.4149  -28.4216    6.5488 H         1 UNK         0.0720 
     88 H88       -49.5061  -28.7093    7.8759 H         1 UNK         0.0720 
     89 H89       -49.6582  -31.5982    6.9618 H         1 UNK         0.0814 
     90 H90       -51.3081  -31.7589    6.4187 H         1 UNK         0.0814 
     91 H91       -49.4439  -31.5906    9.2881 H         1 UNK         0.1469 
     92 H92       -52.3121  -29.6696   11.8189 H         1 UNK         0.1381 
     93 H93       -52.9317  -29.7779    7.5772 H         1 UNK         0.1206 
     94 H94       -54.2483  -28.2694    9.0010 H         1 UNK         0.0813 
     95 H95       -54.0095  -28.1904   10.7222 H         1 UNK         0.0813 
     96 H96       -54.5352  -30.1095   12.3385 H         1 UNK         0.0638 
     97 H97       -55.7661  -31.3095   12.0618 H         1 UNK         0.0638 
     98 H98       -57.5081  -29.4545   12.0700 H         1 UNK         0.0568 
     99 H99       -57.2920  -29.3211   15.9727 H         1 UNK         0.3450 
    100 H100      -56.9468  -27.9833   14.9116 H         1 UNK         0.3450 
    101 H101      -55.2189  -27.7411   12.8872 H         1 UNK         0.2987 
    102 H102      -55.6483  -25.4400   11.5289 H         1 UNK         0.0766 
    103 H103      -56.8444  -23.3879   12.2998 H         1 UNK         0.0798 
    104 H104      -58.0636  -24.3852   13.0920 H         1 UNK         0.0798 
    105 H105      -57.8935  -24.4196   11.3431 H         1 UNK         0.0798 
    106 H106      -54.4833  -25.1115   13.3862 H         1 UNK         0.3198 
    107 H107      -54.3005  -24.0972   15.5479 H         1 UNK         0.0843 
    108 H108      -55.7679  -25.6987   17.7111 H         1 UNK         0.0831 
    109 H109      -55.9957  -24.0039   17.3253 H         1 UNK         0.0831 
    110 H110      -54.4646  -24.5457   17.9961 H         1 UNK         0.0831 
    111 H111      -52.8032  -25.7007   15.3809 H         1 UNK         0.3133 
    112 H112      -52.2775  -28.8190   16.8089 H         1 UNK         0.0566 
    113 H113      -52.7773  -28.3947   13.8163 H         1 UNK         0.0814 
    114 H114      -51.7979  -29.6777   14.5282 H         1 UNK         0.0814 
    115 H115      -53.5305  -29.6360   14.8101 H         1 UNK         0.0814 
    116 H116      -50.7853  -27.3439   14.8576 H         1 UNK         0.3091 
    117 H117      -49.0917  -25.2281   17.2235 H         1 UNK         0.0702 
    118 H118      -47.1870  -26.2365   16.0017 H         1 UNK         0.0785 
    119 H119      -48.2261  -27.5057   15.3608 H         1 UNK         0.0785 
    120 H120      -47.8989  -27.4210   17.0869 H         1 UNK         0.0785 
    121 H121      -48.9409  -25.3266   14.3905 H         1 UNK         0.2998 
    122 H122      -51.4291  -22.8032   13.7370 H         1 UNK         0.0697 
    123 H123      -48.3794  -22.9690   13.4366 H         1 UNK         0.0825 
    124 H124      -49.2780  -21.6676   14.1965 H         1 UNK         0.0825 
    125 H125      -49.4537  -21.9556   12.4738 H         1 UNK         0.0825 
    126 H126      -49.8110  -24.5693   12.1020 H         1 UNK         0.3029 
    127 H127      -52.1905  -27.1256   11.7987 H         1 UNK         0.0897 
    128 H128      -53.2645  -25.5944   10.2129 H         1 UNK         0.0792 
    129 H129      -52.1346  -26.6143    9.3379 H         1 UNK         0.0792 
    130 H130      -51.7188  -24.9394    9.7128 H         1 UNK         0.0792 
    131 H131      -49.7738  -26.5763   10.3456 H         1 UNK         0.3086 
    132 H132      -47.6206  -28.1412   12.7724 H         1 UNK         0.0583 
    133 H133      -48.7778  -28.9748   10.0689 H         1 UNK         0.1020 
    134 H134      -47.0787  -29.0634   10.3543 H         1 UNK         0.1020 
    135 H135      -50.0886  -32.0171   12.1905 H         1 UNK         0.0694 
    136 H136      -50.2712  -30.3834   12.7679 H         1 UNK         0.0694 
    137 H137      -47.0836  -26.7598   10.3433 H         1 UNK         0.2989 
    138 H138      -46.8711  -23.6665   11.2058 H         1 UNK         0.1055 
    139 H139      -45.2679  -23.7184   13.0606 H         1 UNK         0.0806 
    140 H140      -44.4182  -23.3238   11.5761 H         1 UNK         0.0806 
    141 H141      -44.2980  -24.9440   12.2634 H         1 UNK         0.0806 
    142 H142      -46.3338  -24.3108    9.1851 H         1 UNK         0.3061 
    143 H143      -43.8634  -25.9538    7.6269 H         1 UNK         0.0734 
    144 H144      -45.3513  -27.5980    6.4524 H         1 UNK         0.0832 
    145 H145      -44.8655  -28.2004    8.0286 H         1 UNK         0.0832 
    146 H146      -46.4825  -27.5470    7.8024 H         1 UNK         0.0832 
    147 H147      -46.5347  -25.3455    6.7025 H         1 UNK         0.3156 
    148 H148      -46.1543  -21.8112    6.6356 H         1 UNK         0.0589 
    149 H149      -46.4232  -23.8621    4.3703 H         1 UNK         0.0808 
    150 H150      -46.9950  -22.1940    4.3131 H         1 UNK         0.0808 
    151 H151      -45.2776  -22.5348    4.4396 H         1 UNK         0.0808 
    152 H152      -48.3065  -23.6399    6.0529 H         1 UNK         0.3098 
    153 H153      -49.5941  -23.8454    9.3495 H         1 UNK         0.0720 
    154 H154      -51.6287  -22.7531    8.4227 H         1 UNK         0.0791 
    155 H155      -50.6827  -22.0619    7.1048 H         1 UNK         0.0791 
    156 H156      -50.3857  -21.5624    8.7639 H         1 UNK         0.0791 
    157 H157      -50.5431  -24.4962    6.6641 H         1 UNK         0.3028 
@<TRIPOS>BOND
     1    1    2 1    
     2    1   82 1    
     3    1   83 1    
     4    1   84 1    
     5    2    3 2    
     6    2    4 am   BACKBONE|DICT|INTERRES
     7    4    5 1    
     8    4   85 1    
     9    5    6 1    
    10    5   80 1    
    11    5   86 1    
    12    6    7 1    
    13    6   87 1    
    14    6   88 1    
    15    7    8 1    
    16    8    9 1    
    17    8   89 1    
    18    8   90 1    
    19    9   10 ar   
    20    9   14 ar   
    21   10   11 ar   
    22   10   91 1    
    23   11   12 ar   
    24   11   58 1    
    25   12   13 ar   
    26   12   92 1    
    27   13   14 ar   
    28   13   15 1    
    29   14   93 1    
    30   15   16 1    
    31   15   94 1    
    32   15   95 1    
    33   16   17 1    
    34   17   18 1    
    35   17   96 1    
    36   17   97 1    
    37   18   19 1    
    38   18   22 1    
    39   18   98 1    
    40   19   20 am   BACKBONE|DICT|INTERRES
    41   19   21 2    
    42   20   99 1    
    43   20  100 1    
    44   22   23 am   BACKBONE|DICT|INTERRES
    45   22  101 1    
    46   23   24 2    
    47   23   25 1    
    48   25   26 1    
    49   25   27 1    
    50   25  102 1    
    51   26  103 1    
    52   26  104 1    
    53   26  105 1    
    54   27   28 am   BACKBONE|DICT|INTERRES
    55   27  106 1    
    56   28   29 2    
    57   28   30 1    
    58   30   31 1    
    59   30   32 1    
    60   30  107 1    
    61   31  108 1    
    62   31  109 1    
    63   31  110 1    
    64   32   33 am   BACKBONE|DICT|INTERRES
    65   32  111 1    
    66   33   34 2    
    67   33   35 1    
    68   35   36 1    
    69   35   37 1    
    70   35  112 1    
    71   36  113 1    
    72   36  114 1    
    73   36  115 1    
    74   37   38 am   BACKBONE|DICT|INTERRES
    75   37  116 1    
    76   38   39 2    
    77   38   40 1    
    78   40   41 1    
    79   40   42 1    
    80   40  117 1    
    81   41  118 1    
    82   41  119 1    
    83   41  120 1    
    84   42   43 am   BACKBONE|DICT|INTERRES
    85   42  121 1    
    86   43   44 2    
    87   43   45 1    
    88   45   46 1    
    89   45   47 1    
    90   45  122 1    
    91   46  123 1    
    92   46  124 1    
    93   46  125 1    
    94   47   48 am   BACKBONE|DICT|INTERRES
    95   47  126 1    
    96   48   49 2    
    97   48   50 1    
    98   50   51 1    
    99   50   52 1    
   100   50  127 1    
   101   51  128 1    
   102   51  129 1    
   103   51  130 1    
   104   52   53 am   BACKBONE|DICT|INTERRES
   105   52  131 1    
   106   53   54 2    
   107   53   55 1    
   108   55   56 1    
   109   55   59 1    
   110   55  132 1    
   111   56   57 1    
   112   56  133 1    
   113   56  134 1    
   114   57   58 1    
   115   58  135 1    
   116   58  136 1    
   117   59   60 am   BACKBONE|DICT|INTERRES
   118   59  137 1    
   119   60   61 2    
   120   60   62 1    
   121   62   63 1    
   122   62   64 1    
   123   62  138 1    
   124   63  139 1    
   125   63  140 1    
   126   63  141 1    
   127   64   65 am   BACKBONE|DICT|INTERRES
   128   64  142 1    
   129   65   66 2    
   130   65   67 1    
   131   67   68 1    
   132   67   69 1    
   133   67  143 1    
   134   68  144 1    
   135   68  145 1    
   136   68  146 1    
   137   69   70 am   BACKBONE|DICT|INTERRES
   138   69  147 1    
   139   70   71 2    
   140   70   72 1    
   141   72   73 1    
   142   72   74 1    
   143   72  148 1    
   144   73  149 1    
   145   73  150 1    
   146   73  151 1    
   147   74   75 am   BACKBONE|DICT|INTERRES
   148   74  152 1    
   149   75   76 2    
   150   75   77 1    
   151   77   78 1    
   152   77   79 1    
   153   77  153 1    
   154   78  154 1    
   155   78  155 1    
   156   78  156 1    
   157   79   80 am   BACKBONE|DICT|INTERRES
   158   79  157 1    
   159   80   81 2    
@<TRIPOS>SUBSTRUCTURE
     1 UNK         1 GROUP             0       ****    0 ROOT    
