@<TRIPOS>MOLECULE
3R207
157   159    1
SMALL
USER_CHARGES


@<TRIPOS>ATOM
      1 CA        -53.8591  -24.1150   11.1891 C.3       0 UNK        -0.1975 
      2 C         -52.6835  -24.8296   10.5387 C.2       0 UNK         0.4852 
      3 O         -51.7245  -25.1778   11.2253 O.2       0 UNK        -0.5216 
      4 N         -52.7449  -25.0298    9.2143 N.am      1 UNK        -0.4461 
      5 CA        -51.6656  -25.5988    8.3984 C.3       1 UNK         0.0864 
      6 C6        -52.1671  -25.9083    6.9636 C.3       14 UNK        -0.0898 
      7 S7        -51.0050  -26.9076    5.9721 S.3       14 UNK        -0.2598 
      8 C8        -51.7588  -28.5623    6.0843 C.3       14 UNK         0.0286 
      9 C9        -51.6138  -29.1442    7.4818 C.ar      14 UNK        -0.0844 
     10 C10       -50.3840  -29.6690    7.8896 C.ar      14 UNK        -0.0881 
     11 C11       -50.2188  -30.1805    9.1796 C.ar      14 UNK        -0.0643 
     12 C12       -51.3121  -30.1884   10.0519 C.ar      14 UNK        -0.0930 
     13 C13       -52.5381  -29.6422    9.6670 C.ar      14 UNK        -0.0827 
     14 C14       -52.6911  -29.1339    8.3744 C.ar      14 UNK        -0.1249 
     15 C15       -53.6609  -29.5431   10.6852 C.3       14 UNK         0.0141 
     16 S16       -54.4053  -31.1636   11.0433 S.3       14 UNK        -0.2313 
     17 C17       -55.8625  -31.1407    9.9435 C.3       14 UNK        -0.0915 
     18 CA        -57.2104  -31.0569   10.7149 C.3       13 UNK         0.0968 
     19 C         -57.6123  -32.3882   11.4149 C.2       13 UNK         0.5732 
     20 N         -58.1613  -32.3640   12.6248 N.am      13 UNK        -0.7310 
     21 O         -57.4526  -33.4648   10.8441 O.2       13 UNK        -0.5035 
     22 N         -57.2736  -29.8848   11.6058 N.am      13 UNK        -0.4233 
     23 C         -57.8265  -28.7061   11.3007 C.2       13 UNK         0.4989 
     24 O         -58.3237  -28.4458   10.2042 O.2       13 UNK        -0.4996 
     25 CA        -57.8656  -27.6331   12.4058 C.3       12 UNK         0.0216 
     26 CB        -59.2715  -27.5602   13.0256 C.3       12 UNK        -0.1964 
     27 N         -56.8812  -27.8262   13.4781 N.am      12 UNK        -0.4276 
     28 C         -55.5790  -27.5377   13.3625 C.2       12 UNK         0.5020 
     29 O         -55.0577  -27.1502   12.3161 O.2       12 UNK        -0.5489 
     30 CA        -54.7157  -27.7300   14.6228 C.3       11 UNK         0.0294 
     31 CB        -54.1727  -29.1664   14.7057 C.3       11 UNK        -0.2019 
     32 N         -53.5929  -26.7888   14.6555 N.am      11 UNK        -0.4493 
     33 C         -53.7094  -25.4774   14.9064 C.2       11 UNK         0.4932 
     34 O         -54.7732  -24.9350   15.2132 O.2       11 UNK        -0.5029 
     35 CA        -52.4184  -24.6409   14.7957 C.3       10 UNK         0.0280 
     36 CB        -52.5776  -23.2016   15.3294 C.3       10 UNK        -0.1976 
     37 N         -51.2514  -25.2951   15.3972 N.am      10 UNK        -0.4242 
     38 C         -51.0821  -25.6492   16.6811 C.2       10 UNK         0.5072 
     39 O         -51.9204  -25.4799   17.5672 O.2       10 UNK        -0.5224 
     40 CA        -49.7350  -26.2958   17.0404 C.3       9 UNK         0.0343 
     41 CB        -49.7467  -27.7968   16.7036 C.3       9 UNK        -0.2003 
     42 N         -48.6271  -25.6435   16.3389 N.am      9 UNK        -0.4272 
     43 C         -47.9466  -24.5859   16.8043 C.2       9 UNK         0.4988 
     44 O         -48.1293  -24.0902   17.9168 O.2       9 UNK        -0.5108 
     45 CA        -46.8728  -23.9739   15.8834 C.3       8 UNK         0.0248 
     46 CB        -45.5002  -24.6049   16.1671 C.3       8 UNK        -0.2001 
     47 N         -47.1809  -24.1143   14.4585 N.am      8 UNK        -0.4140 
     48 C         -48.1681  -23.4617   13.8242 C.2       8 UNK         0.5028 
     49 O         -48.8643  -22.5953   14.3533 O.2       8 UNK        -0.5428 
     50 CA        -48.4418  -23.8508   12.3572 C.3       7 UNK         0.0264 
     51 CB        -47.6724  -22.9044   11.4239 C.3       7 UNK        -0.1988 
     52 N         -48.0858  -25.2340   12.0205 N.am      7 UNK        -0.4454 
     53 C         -48.5148  -26.3313   12.6662 C.2       7 UNK         0.5027 
     54 O         -49.3297  -26.2960   13.5888 O.2       7 UNK        -0.5083 
     55 CA        -47.8957  -27.6965   12.2947 C.3       6 UNK         0.0844 
     56 C56       -48.9220  -28.5428   11.5133 C.3       14 UNK        -0.0967 
     57 S57       -48.4055  -30.2882   11.3489 S.3       14 UNK        -0.2604 
     58 C58       -48.8455  -30.6863    9.6183 C.3       14 UNK         0.0134 
     59 N         -46.6217  -27.5990   11.5792 N.am      6 UNK        -0.4116 
     60 C         -45.5088  -26.9761   11.9921 C.2       5 UNK         0.5034 
     61 O         -45.3795  -26.4638   13.1052 O.2       5 UNK        -0.5045 
     62 CA        -44.3749  -26.8462   10.9550 C.3       5 UNK         0.0224 
     63 CB        -43.2812  -27.8922   11.2227 C.3       5 UNK        -0.1978 
     64 N         -44.8284  -26.9627    9.5586 N.am      5 UNK        -0.4737 
     65 C         -45.7080  -26.1419    8.9649 C.2       4 UNK         0.5027 
     66 O         -46.2036  -25.1637    9.5260 O.2       4 UNK        -0.5211 
     67 CA        -46.1484  -26.5363    7.5486 C.3       4 UNK         0.0297 
     68 CB        -47.0476  -27.7848    7.5977 C.3       4 UNK        -0.1993 
     69 N         -46.9120  -25.4559    6.9264 N.am      4 UNK        -0.4486 
     70 C         -46.5483  -24.7901    5.8226 C.2       3 UNK         0.4961 
     71 O         -45.4915  -24.9944    5.2231 O.2       3 UNK        -0.5105 
     72 CA        -47.5221  -23.7398    5.2508 C.3       3 UNK         0.0299 
     73 CB        -48.1661  -24.2623    3.9553 C.3       3 UNK        -0.1972 
     74 N         -48.5877  -23.3516    6.1747 N.am      3 UNK        -0.4305 
     75 C         -48.4421  -22.5173    7.2124 C.2       2 UNK         0.5006 
     76 O         -47.3936  -21.9271    7.4735 O.2       2 UNK        -0.5106 
     77 CA        -49.6750  -22.2926    8.1116 C.3       2 UNK         0.0296 
     78 CB        -50.3839  -20.9857    7.7197 C.3       2 UNK        -0.2002 
     79 N         -50.6607  -23.3816    8.1233 N.am      2 UNK        -0.4032 
     80 C         -50.4269  -24.6781    8.3881 C.2       1 UNK         0.5000 
     81 O         -49.3111  -25.1477    8.6120 O.2       1 UNK        -0.5238 
     82 H82       -54.6776  -23.9527   10.4883 H         1 UNK         0.0889 
     83 H83       -53.5412  -23.1466   11.5742 H         1 UNK         0.0889 
     84 H84       -54.2429  -24.7001   12.0225 H         1 UNK         0.0889 
     85 H85       -53.5725  -24.7403    8.7129 H         1 UNK         0.3028 
     86 H86       -51.3668  -26.5381    8.8696 H         1 UNK         0.0864 
     87 H87       -53.1201  -26.4369    7.0123 H         1 UNK         0.0720 
     88 H88       -52.3760  -24.9873    6.4162 H         1 UNK         0.0720 
     89 H89       -51.2707  -29.2215    5.3650 H         1 UNK         0.0814 
     90 H90       -52.8076  -28.5138    5.7873 H         1 UNK         0.0814 
     91 H91       -49.5479  -29.6556    7.2038 H         1 UNK         0.1469 
     92 H92       -51.2010  -30.5816   11.0529 H         1 UNK         0.1381 
     93 H93       -53.6376  -28.7061    8.0737 H         1 UNK         0.1206 
     94 H94       -53.2522  -29.1312   11.6074 H         1 UNK         0.0813 
     95 H95       -54.4232  -28.8338   10.3602 H         1 UNK         0.0813 
     96 H96       -55.7877  -30.2999    9.2530 H         1 UNK         0.0638 
     97 H97       -55.8294  -32.0293    9.3109 H         1 UNK         0.0638 
     98 H98       -57.9886  -30.9428    9.9584 H         1 UNK         0.0568 
     99 H99       -58.4224  -33.2363   13.0571 H         1 UNK         0.3450 
    100 H100      -58.3657  -31.4951   13.0893 H         1 UNK         0.3450 
    101 H101      -56.8623  -30.0091   12.5183 H         1 UNK         0.2987 
    102 H102      -57.6609  -26.6735   11.9255 H         1 UNK         0.0766 
    103 H103      -59.3465  -26.7447   13.7453 H         1 UNK         0.0798 
    104 H104      -59.5387  -28.4862   13.5363 H         1 UNK         0.0798 
    105 H105      -60.0279  -27.3817   12.2598 H         1 UNK         0.0798 
    106 H106      -57.2361  -28.1409   14.3704 H         1 UNK         0.3198 
    107 H107      -55.3393  -27.5459   15.5006 H         1 UNK         0.0843 
    108 H108      -53.4938  -29.3948   13.8847 H         1 UNK         0.0831 
    109 H109      -54.9815  -29.8974   14.6715 H         1 UNK         0.0831 
    110 H110      -53.6319  -29.3296   15.6381 H         1 UNK         0.0831 
    111 H111      -52.6931  -27.1408   14.3640 H         1 UNK         0.3133 
    112 H112      -52.1969  -24.5652   13.7320 H         1 UNK         0.0566 
    113 H113      -51.6565  -22.6313   15.2068 H         1 UNK         0.0814 
    114 H114      -53.3616  -22.6694   14.7894 H         1 UNK         0.0814 
    115 H115      -52.8432  -23.1879   16.3868 H         1 UNK         0.0814 
    116 H116      -50.5139  -25.5468   14.7405 H         1 UNK         0.3091 
    117 H117      -49.5913  -26.1966   18.1186 H         1 UNK         0.0702 
    118 H118      -50.5537  -28.3068   17.2315 H         1 UNK         0.0785 
    119 H119      -49.8904  -27.9774   15.6379 H         1 UNK         0.0785 
    120 H120      -48.8131  -28.2750   17.0004 H         1 UNK         0.0785 
    121 H121      -48.4611  -25.9475   15.3871 H         1 UNK         0.2998 
    122 H122      -46.8117  -22.9077   16.1120 H         1 UNK         0.0697 
    123 H123      -45.4903  -25.6712   15.9366 H         1 UNK         0.0825 
    124 H124      -45.2290  -24.4950   17.2180 H         1 UNK         0.0825 
    125 H125      -44.7152  -24.1289   15.5791 H         1 UNK         0.0825 
    126 H126      -46.6435  -24.8008   13.9415 H         1 UNK         0.3029 
    127 H127      -49.5122  -23.7383   12.1728 H         1 UNK         0.0897 
    128 H128      -47.7946  -23.1918   10.3809 H         1 UNK         0.0792 
    129 H129      -46.6023  -22.9117   11.6363 H         1 UNK         0.0792 
    130 H130      -48.0228  -21.8770   11.5292 H         1 UNK         0.0792 
    131 H131      -47.4436  -25.3461   11.2421 H         1 UNK         0.3086 
    132 H132      -47.6866  -28.2012   13.2402 H         1 UNK         0.0583 
    133 H133      -49.8892  -28.5407   12.0211 H         1 UNK         0.1020 
    134 H134      -49.0986  -28.1019   10.5298 H         1 UNK         0.1020 
    135 H135      -48.0692  -30.2768    8.9717 H         1 UNK         0.0694 
    136 H136      -48.8133  -31.7688    9.4894 H         1 UNK         0.0694 
    137 H137      -46.6104  -27.9980   10.6534 H         1 UNK         0.2989 
    138 H138      -43.9415  -25.8515   11.0811 H         1 UNK         0.1055 
    139 H139      -42.9070  -27.8125   12.2446 H         1 UNK         0.0806 
    140 H140      -42.4284  -27.7553   10.5575 H         1 UNK         0.0806 
    141 H141      -43.6525  -28.9093   11.0906 H         1 UNK         0.0806 
    142 H142      -44.4610  -27.7421    9.0304 H         1 UNK         0.3061 
    143 H143      -45.2530  -26.7668    6.9678 H         1 UNK         0.0734 
    144 H144      -47.3898  -28.0626    6.6005 H         1 UNK         0.0832 
    145 H145      -46.5137  -28.6443    8.0036 H         1 UNK         0.0832 
    146 H146      -47.9322  -27.6202    8.2152 H         1 UNK         0.0832 
    147 H147      -47.7527  -25.1809    7.4301 H         1 UNK         0.3156 
    148 H148      -46.9363  -22.8515    5.0049 H         1 UNK         0.0589 
    149 H149      -48.7688  -25.1537    4.1356 H         1 UNK         0.0808 
    150 H150      -48.8073  -23.5088    3.4973 H         1 UNK         0.0808 
    151 H151      -47.4057  -24.5274    3.2192 H         1 UNK         0.0808 
    152 H152      -49.4845  -23.7955    6.0419 H         1 UNK         0.3098 
    153 H153      -49.3174  -22.1769    9.1336 H         1 UNK         0.0720 
    154 H154      -51.1879  -20.7440    8.4153 H         1 UNK         0.0791 
    155 H155      -50.8102  -21.0426    6.7173 H         1 UNK         0.0791 
    156 H156      -49.6884  -20.1450    7.7303 H         1 UNK         0.0791 
    157 H157      -51.6183  -23.1068    7.9612 H         1 UNK         0.3028 
@<TRIPOS>BOND
     1    1    2 1    
     2    1   82 1    
     3    1   83 1    
     4    1   84 1    
     5    2    3 2    
     6    2    4 am   BACKBONE|DICT|INTERRES
     7    4    5 1    
     8    4   85 1    
     9    5    6 1    
    10    5   80 1    
    11    5   86 1    
    12    6    7 1    
    13    6   87 1    
    14    6   88 1    
    15    7    8 1    
    16    8    9 1    
    17    8   89 1    
    18    8   90 1    
    19    9   10 ar   
    20    9   14 ar   
    21   10   11 ar   
    22   10   91 1    
    23   11   12 ar   
    24   11   58 1    
    25   12   13 ar   
    26   12   92 1    
    27   13   14 ar   
    28   13   15 1    
    29   14   93 1    
    30   15   16 1    
    31   15   94 1    
    32   15   95 1    
    33   16   17 1    
    34   17   18 1    
    35   17   96 1    
    36   17   97 1    
    37   18   19 1    
    38   18   22 1    
    39   18   98 1    
    40   19   20 am   BACKBONE|DICT|INTERRES
    41   19   21 2    
    42   20   99 1    
    43   20  100 1    
    44   22   23 am   BACKBONE|DICT|INTERRES
    45   22  101 1    
    46   23   24 2    
    47   23   25 1    
    48   25   26 1    
    49   25   27 1    
    50   25  102 1    
    51   26  103 1    
    52   26  104 1    
    53   26  105 1    
    54   27   28 am   BACKBONE|DICT|INTERRES
    55   27  106 1    
    56   28   29 2    
    57   28   30 1    
    58   30   31 1    
    59   30   32 1    
    60   30  107 1    
    61   31  108 1    
    62   31  109 1    
    63   31  110 1    
    64   32   33 am   BACKBONE|DICT|INTERRES
    65   32  111 1    
    66   33   34 2    
    67   33   35 1    
    68   35   36 1    
    69   35   37 1    
    70   35  112 1    
    71   36  113 1    
    72   36  114 1    
    73   36  115 1    
    74   37   38 am   BACKBONE|DICT|INTERRES
    75   37  116 1    
    76   38   39 2    
    77   38   40 1    
    78   40   41 1    
    79   40   42 1    
    80   40  117 1    
    81   41  118 1    
    82   41  119 1    
    83   41  120 1    
    84   42   43 am   BACKBONE|DICT|INTERRES
    85   42  121 1    
    86   43   44 2    
    87   43   45 1    
    88   45   46 1    
    89   45   47 1    
    90   45  122 1    
    91   46  123 1    
    92   46  124 1    
    93   46  125 1    
    94   47   48 am   BACKBONE|DICT|INTERRES
    95   47  126 1    
    96   48   49 2    
    97   48   50 1    
    98   50   51 1    
    99   50   52 1    
   100   50  127 1    
   101   51  128 1    
   102   51  129 1    
   103   51  130 1    
   104   52   53 am   BACKBONE|DICT|INTERRES
   105   52  131 1    
   106   53   54 2    
   107   53   55 1    
   108   55   56 1    
   109   55   59 1    
   110   55  132 1    
   111   56   57 1    
   112   56  133 1    
   113   56  134 1    
   114   57   58 1    
   115   58  135 1    
   116   58  136 1    
   117   59   60 am   BACKBONE|DICT|INTERRES
   118   59  137 1    
   119   60   61 2    
   120   60   62 1    
   121   62   63 1    
   122   62   64 1    
   123   62  138 1    
   124   63  139 1    
   125   63  140 1    
   126   63  141 1    
   127   64   65 am   BACKBONE|DICT|INTERRES
   128   64  142 1    
   129   65   66 2    
   130   65   67 1    
   131   67   68 1    
   132   67   69 1    
   133   67  143 1    
   134   68  144 1    
   135   68  145 1    
   136   68  146 1    
   137   69   70 am   BACKBONE|DICT|INTERRES
   138   69  147 1    
   139   70   71 2    
   140   70   72 1    
   141   72   73 1    
   142   72   74 1    
   143   72  148 1    
   144   73  149 1    
   145   73  150 1    
   146   73  151 1    
   147   74   75 am   BACKBONE|DICT|INTERRES
   148   74  152 1    
   149   75   76 2    
   150   75   77 1    
   151   77   78 1    
   152   77   79 1    
   153   77  153 1    
   154   78  154 1    
   155   78  155 1    
   156   78  156 1    
   157   79   80 am   BACKBONE|DICT|INTERRES
   158   79  157 1    
   159   80   81 2    
@<TRIPOS>SUBSTRUCTURE
     1 UNK         1 GROUP             0       ****    0 ROOT    
