@<TRIPOS>MOLECULE
3R207
157   159    1
SMALL
USER_CHARGES


@<TRIPOS>ATOM
      1 CA        -48.9247  -29.9261    9.6116 C.3       0 UNK        -0.1975 
      2 C         -48.6728  -30.1288    8.1246 C.2       0 UNK         0.4852 
      3 O         -47.8891  -30.9983    7.7441 O.2       0 UNK        -0.5216 
      4 N         -49.3253  -29.3200    7.2810 N.am      1 UNK        -0.4461 
      5 CA        -49.2216  -29.3277    5.8135 C.3       1 UNK         0.0864 
      6 C6        -50.5147  -28.7882    5.1419 C.3       14 UNK        -0.0898 
      7 S7        -51.1882  -27.2781    5.9235 S.3       14 UNK        -0.2598 
      8 C8        -52.8621  -27.8604    6.3480 C.3       14 UNK         0.0286 
      9 C9        -53.5821  -26.8980    7.2786 C.ar      14 UNK        -0.0844 
     10 C10       -53.9018  -25.6096    6.8474 C.ar      14 UNK        -0.0881 
     11 C11       -54.5458  -24.7148    7.7045 C.ar      14 UNK        -0.0643 
     12 C12       -54.9168  -25.1357    8.9866 C.ar      14 UNK        -0.0930 
     13 C13       -54.6062  -26.4252    9.4358 C.ar      14 UNK        -0.0827 
     14 C14       -53.9309  -27.2968    8.5717 C.ar      14 UNK        -0.1249 
     15 C15       -54.9687  -26.8095   10.8723 C.3       14 UNK         0.0141 
     16 S16       -55.2224  -28.5939   11.1817 S.3       14 UNK        -0.2313 
     17 C17       -53.5297  -29.1767   11.5513 C.3       14 UNK        -0.0915 
     18 CA        -53.4880  -30.2099   12.7116 C.3       13 UNK         0.0968 
     19 C         -52.0838  -30.8644   12.8719 C.2       13 UNK         0.5732 
     20 N         -51.5875  -31.1059   14.0805 N.am      13 UNK        -0.7310 
     21 O         -51.4326  -31.1819   11.8799 O.2       13 UNK        -0.5035 
     22 N         -53.9886  -29.6432   13.9734 N.am      13 UNK        -0.4233 
     23 C         -54.9686  -30.1694   14.7180 C.2       13 UNK         0.4989 
     24 O         -55.6332  -31.1510   14.3795 O.2       13 UNK        -0.4996 
     25 CA        -55.2541  -29.4893   16.0744 C.3       12 UNK         0.0216 
     26 CB        -56.0333  -30.4009   17.0464 C.3       12 UNK        -0.1964 
     27 N         -54.0616  -28.9433   16.7369 N.am      12 UNK        -0.4276 
     28 C         -52.9424  -29.6024   17.0828 C.2       12 UNK         0.5020 
     29 O         -52.7616  -30.7986   16.8496 O.2       12 UNK        -0.5489 
     30 CA        -51.8208  -28.7932   17.7651 C.3       11 UNK         0.0294 
     31 CB        -50.4284  -29.2370   17.2790 C.3       11 UNK        -0.2019 
     32 N         -51.9697  -27.3629   17.4991 N.am      11 UNK        -0.4493 
     33 C         -52.3229  -26.4262   18.3896 C.2       11 UNK         0.4932 
     34 O         -52.4825  -26.6473   19.5899 O.2       11 UNK        -0.5029 
     35 CA        -52.5679  -25.0013   17.8500 C.3       10 UNK         0.0280 
     36 CB        -51.3410  -24.1133   18.1101 C.3       10 UNK        -0.1976 
     37 N         -52.8954  -24.9603   16.4203 N.am      10 UNK        -0.4242 
     38 C         -53.9880  -25.5121   15.8667 C.2       10 UNK         0.5072 
     39 O         -54.8845  -26.0470   16.5188 O.2       10 UNK        -0.5224 
     40 CA        -54.0543  -25.5599   14.3283 C.3       9 UNK         0.0343 
     41 CB        -54.8373  -24.3509   13.7940 C.3       9 UNK        -0.2003 
     42 N         -52.7325  -25.6157   13.6915 N.am      9 UNK        -0.4272 
     43 C         -51.8150  -26.5732   13.9131 C.2       9 UNK         0.4988 
     44 O         -52.0565  -27.5819   14.5752 O.2       9 UNK        -0.5108 
     45 CA        -50.3856  -26.3732   13.3709 C.3       8 UNK         0.0248 
     46 CB        -50.0491  -27.4376   12.3153 C.3       8 UNK        -0.2001 
     47 N         -50.1406  -25.0346   12.8262 N.am      8 UNK        -0.4140 
     48 C         -50.1361  -23.9033   13.5528 C.2       8 UNK         0.5028 
     49 O         -50.2362  -23.8894   14.7805 O.2       8 UNK        -0.5428 
     50 CA        -50.1107  -22.5625   12.7927 C.3       7 UNK         0.0264 
     51 CB        -48.7612  -21.8457   12.9547 C.3       7 UNK        -0.1988 
     52 N         -50.4593  -22.6931   11.3711 N.am      7 UNK        -0.4454 
     53 C         -51.6934  -23.0172   10.9469 C.2       7 UNK         0.5027 
     54 O         -52.6380  -23.1837   11.7193 O.2       7 UNK        -0.5083 
     55 CA        -51.9296  -23.2528    9.4411 C.3       6 UNK         0.0844 
     56 C56       -52.7448  -22.0879    8.8254 C.3       14 UNK        -0.0967 
     57 S57       -53.2171  -22.3643    7.0835 S.3       14 UNK        -0.2604 
     58 C58       -54.7871  -23.2818    7.2526 C.3       14 UNK         0.0134 
     59 N         -50.7163  -23.5823    8.6884 N.am      6 UNK        -0.4116 
     60 C         -50.0051  -24.7047    8.8652 C.2       5 UNK         0.5034 
     61 O         -50.2861  -25.5637    9.7012 O.2       5 UNK        -0.5045 
     62 CA        -48.7211  -24.8840    8.0341 C.3       5 UNK         0.0224 
     63 CB        -48.5468  -23.8570    6.8937 C.3       5 UNK        -0.1978 
     64 N         -47.5365  -24.8927    8.9009 N.am      5 UNK        -0.4737 
     65 C         -47.1950  -23.9621    9.8077 C.2       4 UNK         0.5027 
     66 O         -47.8280  -22.9231    9.9997 O.2       4 UNK        -0.5211 
     67 CA        -45.9387  -24.2425   10.6512 C.3       4 UNK         0.0297 
     68 CB        -46.3123  -25.0428   11.9112 C.3       4 UNK        -0.1993 
     69 N         -44.9167  -24.9819    9.9105 N.am      4 UNK        -0.4486 
     70 C         -44.2398  -24.5203    8.8516 C.2       3 UNK         0.4961 
     71 O         -44.3025  -23.3607    8.4423 O.2       3 UNK        -0.5105 
     72 CA        -43.3662  -25.5389    8.0989 C.3       3 UNK         0.0299 
     73 CB        -42.6785  -26.5620    9.0310 C.3       3 UNK        -0.1972 
     74 N         -44.1085  -26.2186    7.0290 N.am      3 UNK        -0.4305 
     75 C         -45.2146  -26.9687    7.1469 C.2       2 UNK         0.5006 
     76 O         -45.8012  -27.1886    8.2126 O.2       2 UNK        -0.5106 
     77 CA        -45.7505  -27.5918    5.8527 C.3       2 UNK         0.0296 
     78 CB        -44.7706  -28.6522    5.3068 C.3       2 UNK        -0.2002 
     79 N         -47.0437  -28.2013    6.1478 N.am      2 UNK        -0.4032 
     80 C         -47.9429  -28.6475    5.2645 C.2       1 UNK         0.5000 
     81 O         -47.7864  -28.5564    4.0447 O.2       1 UNK        -0.5238 
     82 H82       -49.7077  -29.1905    9.7958 H         1 UNK         0.0889 
     83 H83       -48.0147  -29.5847   10.1042 H         1 UNK         0.0889 
     84 H84       -49.2318  -30.8645   10.0730 H         1 UNK         0.0889 
     85 H85       -49.9563  -28.6206    7.6486 H         1 UNK         0.3028 
     86 H86       -49.1252  -30.3709    5.5044 H         1 UNK         0.0864 
     87 H87       -51.2715  -29.5729    5.1781 H         1 UNK         0.0720 
     88 H88       -50.3723  -28.5950    4.0770 H         1 UNK         0.0720 
     89 H89       -53.4440  -27.9843    5.4336 H         1 UNK         0.0814 
     90 H90       -52.7948  -28.8474    6.8088 H         1 UNK         0.0814 
     91 H91       -53.6130  -25.2891    5.8555 H         1 UNK         0.1469 
     92 H92       -55.4095  -24.4410    9.6535 H         1 UNK         0.1381 
     93 H93       -53.6689  -28.2911    8.8974 H         1 UNK         0.1206 
     94 H94       -54.1932  -26.4295   11.5342 H         1 UNK         0.0813 
     95 H95       -55.8902  -26.3000   11.1575 H         1 UNK         0.0813 
     96 H96       -53.1322  -29.6202   10.6376 H         1 UNK         0.0638 
     97 H97       -52.8897  -28.3262   11.7810 H         1 UNK         0.0638 
     98 H98       -54.1297  -31.0386   12.4091 H         1 UNK         0.0568 
     99 H99       -52.1192  -30.9088   14.9206 H         1 UNK         0.3450 
    100 H100      -50.6815  -31.5383   14.1544 H         1 UNK         0.3450 
    101 H101      -53.4397  -28.8715   14.3417 H         1 UNK         0.2987 
    102 H102      -55.8905  -28.6329   15.8466 H         1 UNK         0.0766 
    103 H103      -56.2512  -29.8875   17.9829 H         1 UNK         0.0798 
    104 H104      -56.9887  -30.7077   16.6188 H         1 UNK         0.0798 
    105 H105      -55.4754  -31.3077   17.2827 H         1 UNK         0.0798 
    106 H106      -54.1105  -27.9509   16.9413 H         1 UNK         0.3198 
    107 H107      -51.8911  -28.9930   18.8362 H         1 UNK         0.0843 
    108 H108      -50.3235  -29.1210   16.1993 H         1 UNK         0.0831 
    109 H109      -50.2444  -30.2861   17.5143 H         1 UNK         0.0831 
    110 H110      -49.6385  -28.6574   17.7568 H         1 UNK         0.0831 
    111 H111      -51.8927  -27.1059   16.5204 H         1 UNK         0.3133 
    112 H112      -53.4157  -24.5845   18.3975 H         1 UNK         0.0566 
    113 H113      -50.4616  -24.4740   17.5746 H         1 UNK         0.0814 
    114 H114      -51.0910  -24.0920   19.1718 H         1 UNK         0.0814 
    115 H115      -51.5219  -23.0839   17.8000 H         1 UNK         0.0814 
    116 H116      -52.1953  -24.5538   15.8106 H         1 UNK         0.3091 
    117 H117      -54.5925  -26.4690   14.0519 H         1 UNK         0.0702 
    118 H118      -54.9602  -24.3970   12.7124 H         1 UNK         0.0785 
    119 H119      -54.3365  -23.4110   14.0302 H         1 UNK         0.0785 
    120 H120      -55.8362  -24.3082   14.2304 H         1 UNK         0.0785 
    121 H121      -52.4838  -24.8226   13.1111 H         1 UNK         0.2998 
    122 H122      -49.7063  -26.5129   14.2142 H         1 UNK         0.0697 
    123 H123      -50.7330  -27.3968   11.4679 H         1 UNK         0.0825 
    124 H124      -50.1165  -28.4410   12.7378 H         1 UNK         0.0825 
    125 H125      -49.0356  -27.3157   11.9331 H         1 UNK         0.0825 
    126 H126      -50.0864  -24.9682   11.8160 H         1 UNK         0.3029 
    127 H127      -50.8694  -21.9294   13.2585 H         1 UNK         0.0897 
    128 H128      -48.7680  -20.8728   12.4632 H         1 UNK         0.0792 
    129 H129      -48.5381  -21.6738   14.0086 H         1 UNK         0.0792 
    130 H130      -47.9357  -22.4213   12.5419 H         1 UNK         0.0792 
    131 H131      -49.6955  -22.6196   10.7035 H         1 UNK         0.3086 
    132 H132      -52.5436  -24.1489    9.4007 H         1 UNK         0.0583 
    133 H133      -53.6536  -21.9075    9.4036 H         1 UNK         0.1020 
    134 H134      -52.1719  -21.1600    8.8753 H         1 UNK         0.1020 
    135 H135      -55.4506  -22.7559    7.9407 H         1 UNK         0.0694 
    136 H136      -55.2938  -23.2939    6.2866 H         1 UNK         0.0694 
    137 H137      -50.4140  -22.9116    7.9979 H         1 UNK         0.2989 
    138 H138      -48.7904  -25.8747    7.5823 H         1 UNK         0.1055 
    139 H139      -47.6657  -24.0903    6.2957 H         1 UNK         0.0806 
    140 H140      -48.4268  -22.8390    7.2662 H         1 UNK         0.0806 
    141 H141      -49.4022  -23.8703    6.2163 H         1 UNK         0.0806 
    142 H142      -46.9472  -25.7178    8.8314 H         1 UNK         0.3061 
    143 H143      -45.5170  -23.2824   10.9559 H         1 UNK         0.0734 
    144 H144      -47.0765  -24.5332   12.4967 H         1 UNK         0.0832 
    145 H145      -46.7064  -26.0288   11.6611 H         1 UNK         0.0832 
    146 H146      -45.4493  -25.1820   12.5625 H         1 UNK         0.0832 
    147 H147      -44.8312  -25.9674   10.1176 H         1 UNK         0.3156 
    148 H148      -42.5764  -24.9658    7.6104 H         1 UNK         0.0589 
    149 H149      -43.3828  -27.2580    9.4871 H         1 UNK         0.0808 
    150 H150      -41.9456  -27.1544    8.4831 H         1 UNK         0.0808 
    151 H151      -42.1438  -26.0588    9.8379 H         1 UNK         0.0808 
    152 H152      -43.7351  -26.0794    6.0999 H         1 UNK         0.3098 
    153 H153      -45.8924  -26.7971    5.1175 H         1 UNK         0.0720 
    154 H154      -45.1306  -29.0922    4.3769 H         1 UNK         0.0791 
    155 H155      -43.7923  -28.2208    5.0923 H         1 UNK         0.0791 
    156 H156      -44.6206  -29.4628    6.0213 H         1 UNK         0.0791 
    157 H157      -47.2334  -28.2902    7.1386 H         1 UNK         0.3028 
@<TRIPOS>BOND
     1    1    2 1    
     2    1   82 1    
     3    1   83 1    
     4    1   84 1    
     5    2    3 2    
     6    2    4 am   BACKBONE|DICT|INTERRES
     7    4    5 1    
     8    4   85 1    
     9    5    6 1    
    10    5   80 1    
    11    5   86 1    
    12    6    7 1    
    13    6   87 1    
    14    6   88 1    
    15    7    8 1    
    16    8    9 1    
    17    8   89 1    
    18    8   90 1    
    19    9   10 ar   
    20    9   14 ar   
    21   10   11 ar   
    22   10   91 1    
    23   11   12 ar   
    24   11   58 1    
    25   12   13 ar   
    26   12   92 1    
    27   13   14 ar   
    28   13   15 1    
    29   14   93 1    
    30   15   16 1    
    31   15   94 1    
    32   15   95 1    
    33   16   17 1    
    34   17   18 1    
    35   17   96 1    
    36   17   97 1    
    37   18   19 1    
    38   18   22 1    
    39   18   98 1    
    40   19   20 am   BACKBONE|DICT|INTERRES
    41   19   21 2    
    42   20   99 1    
    43   20  100 1    
    44   22   23 am   BACKBONE|DICT|INTERRES
    45   22  101 1    
    46   23   24 2    
    47   23   25 1    
    48   25   26 1    
    49   25   27 1    
    50   25  102 1    
    51   26  103 1    
    52   26  104 1    
    53   26  105 1    
    54   27   28 am   BACKBONE|DICT|INTERRES
    55   27  106 1    
    56   28   29 2    
    57   28   30 1    
    58   30   31 1    
    59   30   32 1    
    60   30  107 1    
    61   31  108 1    
    62   31  109 1    
    63   31  110 1    
    64   32   33 am   BACKBONE|DICT|INTERRES
    65   32  111 1    
    66   33   34 2    
    67   33   35 1    
    68   35   36 1    
    69   35   37 1    
    70   35  112 1    
    71   36  113 1    
    72   36  114 1    
    73   36  115 1    
    74   37   38 am   BACKBONE|DICT|INTERRES
    75   37  116 1    
    76   38   39 2    
    77   38   40 1    
    78   40   41 1    
    79   40   42 1    
    80   40  117 1    
    81   41  118 1    
    82   41  119 1    
    83   41  120 1    
    84   42   43 am   BACKBONE|DICT|INTERRES
    85   42  121 1    
    86   43   44 2    
    87   43   45 1    
    88   45   46 1    
    89   45   47 1    
    90   45  122 1    
    91   46  123 1    
    92   46  124 1    
    93   46  125 1    
    94   47   48 am   BACKBONE|DICT|INTERRES
    95   47  126 1    
    96   48   49 2    
    97   48   50 1    
    98   50   51 1    
    99   50   52 1    
   100   50  127 1    
   101   51  128 1    
   102   51  129 1    
   103   51  130 1    
   104   52   53 am   BACKBONE|DICT|INTERRES
   105   52  131 1    
   106   53   54 2    
   107   53   55 1    
   108   55   56 1    
   109   55   59 1    
   110   55  132 1    
   111   56   57 1    
   112   56  133 1    
   113   56  134 1    
   114   57   58 1    
   115   58  135 1    
   116   58  136 1    
   117   59   60 am   BACKBONE|DICT|INTERRES
   118   59  137 1    
   119   60   61 2    
   120   60   62 1    
   121   62   63 1    
   122   62   64 1    
   123   62  138 1    
   124   63  139 1    
   125   63  140 1    
   126   63  141 1    
   127   64   65 am   BACKBONE|DICT|INTERRES
   128   64  142 1    
   129   65   66 2    
   130   65   67 1    
   131   67   68 1    
   132   67   69 1    
   133   67  143 1    
   134   68  144 1    
   135   68  145 1    
   136   68  146 1    
   137   69   70 am   BACKBONE|DICT|INTERRES
   138   69  147 1    
   139   70   71 2    
   140   70   72 1    
   141   72   73 1    
   142   72   74 1    
   143   72  148 1    
   144   73  149 1    
   145   73  150 1    
   146   73  151 1    
   147   74   75 am   BACKBONE|DICT|INTERRES
   148   74  152 1    
   149   75   76 2    
   150   75   77 1    
   151   77   78 1    
   152   77   79 1    
   153   77  153 1    
   154   78  154 1    
   155   78  155 1    
   156   78  156 1    
   157   79   80 am   BACKBONE|DICT|INTERRES
   158   79  157 1    
   159   80   81 2    
@<TRIPOS>SUBSTRUCTURE
     1 UNK         1 GROUP             0       ****    0 ROOT    
