@<TRIPOS>MOLECULE
3R207
157   159    1
SMALL
USER_CHARGES


@<TRIPOS>ATOM
      1 CA        -43.8106  -28.6474    9.0560 C.3       0 UNK        -0.1975 
      2 C         -44.9897  -29.1571    8.2427 C.2       0 UNK         0.4852 
      3 O         -44.7887  -29.8598    7.2515 O.2       0 UNK        -0.5216 
      4 N         -46.2166  -28.8190    8.6609 N.am      1 UNK        -0.4461 
      5 CA        -47.4607  -29.2509    8.0111 C.3       1 UNK         0.0864 
      6 C6        -48.6584  -29.2564    9.0046 C.3       14 UNK        -0.0898 
      7 S7        -49.6698  -30.7775    8.9473 S.3       14 UNK        -0.2598 
      8 C8        -50.9094  -30.4501    7.6456 C.3       14 UNK         0.0286 
      9 C9        -51.8704  -29.3244    8.0026 C.ar      14 UNK        -0.0844 
     10 C10       -51.5725  -28.0079    7.6453 C.ar      14 UNK        -0.0881 
     11 C11       -52.4266  -26.9585    7.9932 C.ar      14 UNK        -0.0643 
     12 C12       -53.6283  -27.2493    8.6513 C.ar      14 UNK        -0.0930 
     13 C13       -53.9640  -28.5703    8.9793 C.ar      14 UNK        -0.0827 
     14 C14       -53.0730  -29.6002    8.6583 C.ar      14 UNK        -0.1249 
     15 C15       -55.3017  -28.9108    9.6334 C.3       14 UNK         0.0141 
     16 S16       -55.6615  -27.9024   11.1051 S.3       14 UNK        -0.2313 
     17 C17       -57.1677  -28.7127   11.7502 C.3       14 UNK        -0.0915 
     18 CA        -56.9989  -29.3500   13.1591 C.3       13 UNK         0.0968 
     19 C         -56.0925  -30.6129   13.1548 C.2       13 UNK         0.5732 
     20 N         -55.0540  -30.6938   13.9766 N.am      13 UNK        -0.7310 
     21 O         -56.3582  -31.5557   12.4129 O.2       13 UNK        -0.5035 
     22 N         -56.6405  -28.3453   14.1760 N.am      13 UNK        -0.4233 
     23 C         -57.4923  -27.7891   15.0457 C.2       13 UNK         0.4989 
     24 O         -58.6790  -28.1115   15.1362 O.2       13 UNK        -0.4996 
     25 CA        -56.9479  -26.6512   15.9347 C.3       12 UNK         0.0216 
     26 CB        -57.8928  -26.2842   17.1002 C.3       12 UNK        -0.1964 
     27 N         -55.5773  -26.8579   16.4172 N.am      12 UNK        -0.4276 
     28 C         -55.1274  -27.8024   17.2581 C.2       12 UNK         0.5020 
     29 O         -55.8442  -28.6811   17.7393 O.2       12 UNK        -0.5489 
     30 CA        -53.6289  -27.7755   17.6415 C.3       11 UNK         0.0294 
     31 CB        -52.9571  -29.1284   17.3479 C.3       11 UNK        -0.2019 
     32 N         -52.8637  -26.7151   16.9765 N.am      11 UNK        -0.4493 
     33 C         -52.8201  -25.4299   17.3563 C.2       11 UNK         0.4932 
     34 O         -53.3443  -25.0017   18.3840 O.2       11 UNK        -0.5029 
     35 CA        -52.1320  -24.4443   16.3899 C.3       10 UNK         0.0280 
     36 CB        -50.6301  -24.3228   16.6921 C.3       10 UNK        -0.1976 
     37 N         -52.3365  -24.8081   14.9822 N.am      10 UNK        -0.4242 
     38 C         -53.5346  -24.8065   14.3774 C.2       10 UNK         0.5072 
     39 O         -54.5650  -24.3945   14.9094 O.2       10 UNK        -0.5224 
     40 CA        -53.6259  -25.4457   12.9851 C.3       9 UNK         0.0343 
     41 CB        -53.3842  -24.4110   11.8759 C.3       9 UNK        -0.2003 
     42 N         -52.7195  -26.5890   12.8376 N.am      9 UNK        -0.4272 
     43 C         -52.9157  -27.7727   13.4395 C.2       9 UNK         0.4988 
     44 O         -53.8802  -28.0087   14.1636 O.2       9 UNK        -0.5108 
     45 CA        -51.8544  -28.8693   13.2466 C.3       8 UNK         0.0248 
     46 CB        -52.1040  -29.6347   11.9411 C.3       8 UNK        -0.2001 
     47 N         -50.4884  -28.3541   13.2438 N.am      8 UNK        -0.4140 
     48 C         -49.9122  -27.6866   14.2525 C.2       8 UNK         0.5028 
     49 O         -50.4351  -27.5269   15.3548 O.2       8 UNK        -0.5428 
     50 CA        -48.5603  -27.0185   13.9398 C.3       7 UNK         0.0264 
     51 CB        -47.3959  -27.9593   14.2851 C.3       7 UNK        -0.1988 
     52 N         -48.4478  -26.5953   12.5372 N.am      7 UNK        -0.4454 
     53 C         -49.2614  -25.7157   11.9341 C.2       7 UNK         0.5027 
     54 O         -50.1422  -25.0962   12.5321 O.2       7 UNK        -0.5083 
     55 CA        -49.0845  -25.5386   10.4111 C.3       6 UNK         0.0844 
     56 C56       -50.3244  -24.8804    9.7518 C.3       14 UNK        -0.0967 
     57 S57       -50.3366  -25.0657    7.9393 S.3       14 UNK        -0.2604 
     58 C58       -52.0790  -25.5211    7.6108 C.3       14 UNK         0.0134 
     59 N         -47.8364  -24.8257   10.1275 N.am      6 UNK        -0.4116 
     60 C         -46.6115  -25.3603   10.2354 C.2       5 UNK         0.5034 
     61 O         -46.4231  -26.5646   10.4324 O.2       5 UNK        -0.5045 
     62 CA        -45.4050  -24.4099   10.1338 C.3       5 UNK         0.0224 
     63 CB        -44.1669  -25.1008    9.5368 C.3       5 UNK        -0.1978 
     64 N         -45.7089  -23.2161    9.3448 N.am      5 UNK        -0.4737 
     65 C         -46.0189  -22.0137    9.8486 C.2       4 UNK         0.5027 
     66 O         -46.1138  -21.7894   11.0550 O.2       4 UNK        -0.5211 
     67 CA        -46.2636  -20.8617    8.8552 C.3       4 UNK         0.0297 
     68 CB        -45.0948  -19.8633    8.8950 C.3       4 UNK        -0.1993 
     69 N         -46.4563  -21.3110    7.4743 N.am      4 UNK        -0.4486 
     70 C         -47.5581  -21.9164    7.0134 C.2       3 UNK         0.4961 
     71 O         -48.5603  -22.1126    7.7007 O.2       3 UNK        -0.5105 
     72 CA        -47.5428  -22.3879    5.5443 C.3       3 UNK         0.0299 
     73 CB        -46.2588  -22.0083    4.7697 C.3       3 UNK        -0.1972 
     74 N         -47.7958  -23.8275    5.4104 N.am      3 UNK        -0.4305 
     75 C         -47.1300  -24.8279    6.0056 C.2       2 UNK         0.5006 
     76 O         -46.2116  -24.6753    6.8147 O.2       2 UNK        -0.5106 
     77 CA        -47.5204  -26.2437    5.5713 C.3       2 UNK         0.0296 
     78 CB        -46.7177  -26.6530    4.3198 C.3       2 UNK        -0.2002 
     79 N         -47.2733  -27.1787    6.6674 N.am      2 UNK        -0.4032 
     80 C         -47.7699  -28.4218    6.7431 C.2       1 UNK         0.5000 
     81 O         -48.4550  -28.9249    5.8520 O.2       1 UNK        -0.5238 
     82 H82       -44.1297  -28.2426   10.0160 H         1 UNK         0.0889 
     83 H83       -43.2820  -27.8690    8.5070 H         1 UNK         0.0889 
     84 H84       -43.1114  -29.4596    9.2530 H         1 UNK         0.0889 
     85 H85       -46.3141  -28.1861    9.4515 H         1 UNK         0.3028 
     86 H86       -47.3002  -30.2766    7.6708 H         1 UNK         0.0864 
     87 H87       -48.2932  -29.1918   10.0308 H         1 UNK         0.0720 
     88 H88       -49.2969  -28.3857    8.8860 H         1 UNK         0.0720 
     89 H89       -51.4750  -31.3677    7.4776 H         1 UNK         0.0814 
     90 H90       -50.4136  -30.2413    6.6993 H         1 UNK         0.0814 
     91 H91       -50.6627  -27.7953    7.1022 H         1 UNK         0.1469 
     92 H92       -54.3142  -26.4498    8.8954 H         1 UNK         0.1381 
     93 H93       -53.3168  -30.6227    8.9130 H         1 UNK         0.1206 
     94 H94       -56.0984  -28.7714    8.9017 H         1 UNK         0.0813 
     95 H95       -55.3251  -29.9627    9.9234 H         1 UNK         0.0813 
     96 H96       -57.9526  -27.9562   11.7907 H         1 UNK         0.0638 
     97 H97       -57.5225  -29.4568   11.0351 H         1 UNK         0.0638 
     98 H98       -57.9752  -29.7595   13.4226 H         1 UNK         0.0568 
     99 H99       -54.7838  -29.8949   14.5314 H         1 UNK         0.3450 
    100 H100      -54.4926  -31.5295   13.9783 H         1 UNK         0.3450 
    101 H101      -55.6620  -28.0618   14.1778 H         1 UNK         0.2987 
    102 H102      -56.8978  -25.7792   15.2813 H         1 UNK         0.0766 
    103 H103      -58.0505  -27.1261   17.7750 H         1 UNK         0.0798 
    104 H104      -57.4965  -25.4542   17.6852 H         1 UNK         0.0798 
    105 H105      -58.8718  -25.9777   16.7297 H         1 UNK         0.0798 
    106 H106      -54.9017  -26.1932   16.0600 H         1 UNK         0.3198 
    107 H107      -53.5836  -27.6082   18.7196 H         1 UNK         0.0843 
    108 H108      -53.4426  -29.9354   17.8981 H         1 UNK         0.0831 
    109 H109      -51.9074  -29.1227   17.6422 H         1 UNK         0.0831 
    110 H110      -53.0052  -29.3828   16.2899 H         1 UNK         0.0831 
    111 H111      -52.3354  -26.9892   16.1545 H         1 UNK         0.3133 
    112 H112      -52.5836  -23.4621   16.5447 H         1 UNK         0.0566 
    113 H113      -50.1467  -23.6080   16.0260 H         1 UNK         0.0814 
    114 H114      -50.4689  -23.9742   17.7131 H         1 UNK         0.0814 
    115 H115      -50.1133  -25.2767   16.5930 H         1 UNK         0.0814 
    116 H116      -51.5353  -25.1496   14.4665 H         1 UNK         0.3091 
    117 H117      -54.6481  -25.8110   12.8714 H         1 UNK         0.0702 
    118 H118      -53.4958  -24.8577   10.8881 H         1 UNK         0.0785 
    119 H119      -52.3938  -23.9618   11.9407 H         1 UNK         0.0785 
    120 H120      -54.1093  -23.5990   11.9438 H         1 UNK         0.0785 
    121 H121      -51.8656  -26.4281   12.3230 H         1 UNK         0.2998 
    122 H122      -51.9457  -29.5699   14.0786 H         1 UNK         0.0697 
    123 H123      -51.9236  -29.0010   11.0730 H         1 UNK         0.0825 
    124 H124      -53.1343  -29.9878   11.8788 H         1 UNK         0.0825 
    125 H125      -51.4563  -30.5075   11.8577 H         1 UNK         0.0825 
    126 H126      -49.9682  -28.4560   12.3857 H         1 UNK         0.3029 
    127 H127      -48.4834  -26.1266   14.5655 H         1 UNK         0.0897 
    128 H128      -46.4332  -27.4683   14.1410 H         1 UNK         0.0792 
    129 H129      -47.4453  -28.2725   15.3291 H         1 UNK         0.0792 
    130 H130      -47.4079  -28.8617   13.6726 H         1 UNK         0.0792 
    131 H131      -47.6990  -27.0022   11.9864 H         1 UNK         0.3086 
    132 H132      -48.9992  -26.5417    9.9990 H         1 UNK         0.0583 
    133 H133      -51.2379  -25.3388   10.1323 H         1 UNK         0.1020 
    134 H134      -50.3865  -23.8201   10.0033 H         1 UNK         0.1020 
    135 H135      -52.7312  -24.8138    8.1257 H         1 UNK         0.0694 
    136 H136      -52.2717  -25.3962    6.5447 H         1 UNK         0.0694 
    137 H137      -47.9143  -23.8372    9.9362 H         1 UNK         0.2989 
    138 H138      -45.1551  -24.1217   11.1572 H         1 UNK         0.1055 
    139 H139      -44.3767  -25.5399    8.5612 H         1 UNK         0.0806 
    140 H140      -43.8148  -25.8970   10.1923 H         1 UNK         0.0806 
    141 H141      -43.3403  -24.4003    9.4174 H         1 UNK         0.0806 
    142 H142      -45.7330  -23.3532    8.3387 H         1 UNK         0.3061 
    143 H143      -47.1683  -20.3413    9.1773 H         1 UNK         0.0734 
    144 H144      -44.9457  -19.4768    9.9044 H         1 UNK         0.0832 
    145 H145      -44.1573  -20.3252    8.5827 H         1 UNK         0.0832 
    146 H146      -45.2810  -19.0061    8.2477 H         1 UNK         0.0832 
    147 H147      -45.6743  -21.1984    6.8452 H         1 UNK         0.3156 
    148 H148      -48.3797  -21.8828    5.0599 H         1 UNK         0.0589 
    149 H149      -45.3705  -22.4891    5.1817 H         1 UNK         0.0808 
    150 H150      -46.3339  -22.3084    3.7243 H         1 UNK         0.0808 
    151 H151      -46.0935  -20.9300    4.7740 H         1 UNK         0.0808 
    152 H152      -48.5572  -24.0714    4.7926 H         1 UNK         0.3098 
    153 H153      -48.5882  -26.2533    5.3416 H         1 UNK         0.0720 
    154 H154      -47.0262  -27.6282    3.9434 H         1 UNK         0.0791 
    155 H155      -45.6482  -26.6992    4.5293 H         1 UNK         0.0791 
    156 H156      -46.8611  -25.9381    3.5085 H         1 UNK         0.0791 
    157 H157      -46.7131  -26.8076    7.4238 H         1 UNK         0.3028 
@<TRIPOS>BOND
     1    1    2 1    
     2    1   82 1    
     3    1   83 1    
     4    1   84 1    
     5    2    3 2    
     6    2    4 am   BACKBONE|DICT|INTERRES
     7    4    5 1    
     8    4   85 1    
     9    5    6 1    
    10    5   80 1    
    11    5   86 1    
    12    6    7 1    
    13    6   87 1    
    14    6   88 1    
    15    7    8 1    
    16    8    9 1    
    17    8   89 1    
    18    8   90 1    
    19    9   10 ar   
    20    9   14 ar   
    21   10   11 ar   
    22   10   91 1    
    23   11   12 ar   
    24   11   58 1    
    25   12   13 ar   
    26   12   92 1    
    27   13   14 ar   
    28   13   15 1    
    29   14   93 1    
    30   15   16 1    
    31   15   94 1    
    32   15   95 1    
    33   16   17 1    
    34   17   18 1    
    35   17   96 1    
    36   17   97 1    
    37   18   19 1    
    38   18   22 1    
    39   18   98 1    
    40   19   20 am   BACKBONE|DICT|INTERRES
    41   19   21 2    
    42   20   99 1    
    43   20  100 1    
    44   22   23 am   BACKBONE|DICT|INTERRES
    45   22  101 1    
    46   23   24 2    
    47   23   25 1    
    48   25   26 1    
    49   25   27 1    
    50   25  102 1    
    51   26  103 1    
    52   26  104 1    
    53   26  105 1    
    54   27   28 am   BACKBONE|DICT|INTERRES
    55   27  106 1    
    56   28   29 2    
    57   28   30 1    
    58   30   31 1    
    59   30   32 1    
    60   30  107 1    
    61   31  108 1    
    62   31  109 1    
    63   31  110 1    
    64   32   33 am   BACKBONE|DICT|INTERRES
    65   32  111 1    
    66   33   34 2    
    67   33   35 1    
    68   35   36 1    
    69   35   37 1    
    70   35  112 1    
    71   36  113 1    
    72   36  114 1    
    73   36  115 1    
    74   37   38 am   BACKBONE|DICT|INTERRES
    75   37  116 1    
    76   38   39 2    
    77   38   40 1    
    78   40   41 1    
    79   40   42 1    
    80   40  117 1    
    81   41  118 1    
    82   41  119 1    
    83   41  120 1    
    84   42   43 am   BACKBONE|DICT|INTERRES
    85   42  121 1    
    86   43   44 2    
    87   43   45 1    
    88   45   46 1    
    89   45   47 1    
    90   45  122 1    
    91   46  123 1    
    92   46  124 1    
    93   46  125 1    
    94   47   48 am   BACKBONE|DICT|INTERRES
    95   47  126 1    
    96   48   49 2    
    97   48   50 1    
    98   50   51 1    
    99   50   52 1    
   100   50  127 1    
   101   51  128 1    
   102   51  129 1    
   103   51  130 1    
   104   52   53 am   BACKBONE|DICT|INTERRES
   105   52  131 1    
   106   53   54 2    
   107   53   55 1    
   108   55   56 1    
   109   55   59 1    
   110   55  132 1    
   111   56   57 1    
   112   56  133 1    
   113   56  134 1    
   114   57   58 1    
   115   58  135 1    
   116   58  136 1    
   117   59   60 am   BACKBONE|DICT|INTERRES
   118   59  137 1    
   119   60   61 2    
   120   60   62 1    
   121   62   63 1    
   122   62   64 1    
   123   62  138 1    
   124   63  139 1    
   125   63  140 1    
   126   63  141 1    
   127   64   65 am   BACKBONE|DICT|INTERRES
   128   64  142 1    
   129   65   66 2    
   130   65   67 1    
   131   67   68 1    
   132   67   69 1    
   133   67  143 1    
   134   68  144 1    
   135   68  145 1    
   136   68  146 1    
   137   69   70 am   BACKBONE|DICT|INTERRES
   138   69  147 1    
   139   70   71 2    
   140   70   72 1    
   141   72   73 1    
   142   72   74 1    
   143   72  148 1    
   144   73  149 1    
   145   73  150 1    
   146   73  151 1    
   147   74   75 am   BACKBONE|DICT|INTERRES
   148   74  152 1    
   149   75   76 2    
   150   75   77 1    
   151   77   78 1    
   152   77   79 1    
   153   77  153 1    
   154   78  154 1    
   155   78  155 1    
   156   78  156 1    
   157   79   80 am   BACKBONE|DICT|INTERRES
   158   79  157 1    
   159   80   81 2    
@<TRIPOS>SUBSTRUCTURE
     1 UNK         1 GROUP             0       ****    0 ROOT    
