@<TRIPOS>MOLECULE
3R207
157   159    1
SMALL
USER_CHARGES


@<TRIPOS>ATOM
      1 CA        -48.3394  -24.1494    2.9078 C.3       0 UNK        -0.1975 
      2 C         -48.5506  -24.9034    4.2117 C.2       0 UNK         0.4852 
      3 O         -47.9529  -24.5402    5.2261 O.2       0 UNK        -0.5216 
      4 N         -49.3866  -25.9530    4.1845 N.am      1 UNK        -0.4461 
      5 CA        -49.7657  -26.7982    5.3266 C.3       1 UNK         0.0864 
      6 C6        -50.7129  -27.9476    4.9047 C.3       14 UNK        -0.0898 
      7 S7        -52.3623  -27.3373    4.4262 S.3       14 UNK        -0.2598 
      8 C8        -53.4580  -28.4911    5.3180 C.3       14 UNK         0.0286 
      9 C9        -53.4426  -28.2650    6.8246 C.ar      14 UNK        -0.0844 
     10 C10       -54.1615  -27.2031    7.3806 C.ar      14 UNK        -0.0881 
     11 C11       -54.1766  -26.9913    8.7632 C.ar      14 UNK        -0.0643 
     12 C12       -53.4678  -27.8715    9.5913 C.ar      14 UNK        -0.0930 
     13 C13       -52.7347  -28.9299    9.0487 C.ar      14 UNK        -0.0827 
     14 C14       -52.7308  -29.1260    7.6654 C.ar      14 UNK        -0.1249 
     15 C15       -51.9326  -29.8505    9.9547 C.3       14 UNK         0.0141 
     16 S16       -52.8815  -31.3441   10.3865 S.3       14 UNK        -0.2313 
     17 C17       -52.7479  -31.3852   12.2076 C.3       14 UNK        -0.0915 
     18 CA        -54.1016  -31.1171   12.9154 C.3       13 UNK         0.0968 
     19 C         -53.9510  -31.2687   14.4561 C.2       13 UNK         0.5732 
     20 N         -53.9539  -30.1888   15.2300 N.am      13 UNK        -0.7310 
     21 O         -53.8375  -32.3860   14.9544 O.2       13 UNK        -0.5035 
     22 N         -54.6868  -29.8312   12.5130 N.am      13 UNK        -0.4233 
     23 C         -55.9783  -29.5099   12.6384 C.2       13 UNK         0.4989 
     24 O         -56.8572  -30.2936   13.0024 O.2       13 UNK        -0.4996 
     25 CA        -56.3328  -28.0408   12.3509 C.3       12 UNK         0.0216 
     26 CB        -57.7137  -27.8976   11.6874 C.3       12 UNK        -0.1964 
     27 N         -56.2940  -27.2314   13.5718 N.am      12 UNK        -0.4276 
     28 C         -55.1984  -26.9834   14.3009 C.2       12 UNK         0.5020 
     29 O         -54.0696  -27.3966   14.0165 O.2       12 UNK        -0.5489 
     30 CA        -55.4027  -26.1887   15.5939 C.3       11 UNK         0.0294 
     31 CB        -55.8752  -27.1281   16.7222 C.3       11 UNK        -0.2019 
     32 N         -54.1293  -25.5663   15.9398 N.am      11 UNK        -0.4493 
     33 C         -53.9016  -24.6729   16.9091 C.2       11 UNK         0.4932 
     34 O         -54.7847  -24.2198   17.6396 O.2       11 UNK        -0.5029 
     35 CA        -52.4449  -24.1938   17.0803 C.3       10 UNK         0.0280 
     36 CB        -52.1371  -23.6826   18.5037 C.3       10 UNK        -0.1976 
     37 N         -51.4555  -25.1871   16.6446 N.am      10 UNK        -0.4242 
     38 C         -51.2108  -26.3973   17.1706 C.2       10 UNK         0.5072 
     39 O         -51.7632  -26.8394   18.1787 O.2       10 UNK        -0.5224 
     40 CA        -50.1856  -27.2805   16.4358 C.3       9 UNK         0.0343 
     41 CB        -50.9073  -28.2989   15.5390 C.3       9 UNK        -0.2003 
     42 N         -49.2396  -26.5123   15.6221 N.am      9 UNK        -0.4272 
     43 C         -48.2075  -25.8139   16.1172 C.2       9 UNK         0.4988 
     44 O         -47.9040  -25.7909   17.3106 O.2       9 UNK        -0.5108 
     45 CA        -47.3868  -24.9834   15.1145 C.3       8 UNK         0.0248 
     46 CB        -46.4247  -25.8803   14.3197 C.3       8 UNK        -0.2001 
     47 N         -48.2289  -24.2127   14.1944 N.am      8 UNK        -0.4140 
     48 C         -49.0461  -23.2166   14.5702 C.2       8 UNK         0.5028 
     49 O         -49.1508  -22.8105   15.7273 O.2       8 UNK        -0.5428 
     50 CA        -49.9152  -22.5785   13.4774 C.3       7 UNK         0.0264 
     51 CB        -49.1472  -21.4628   12.7505 C.3       7 UNK        -0.1988 
     52 N         -50.3909  -23.5653   12.5078 N.am      7 UNK        -0.4454 
     53 C         -51.3679  -24.4522   12.7518 C.2       7 UNK         0.5027 
     54 O         -51.9750  -24.5215   13.8197 O.2       7 UNK        -0.5083 
     55 CA        -51.6976  -25.4441   11.6171 C.3       6 UNK         0.0844 
     56 C56       -52.6195  -24.7794   10.5557 C.3       14 UNK        -0.0967 
     57 S57       -54.3795  -25.1102   10.8993 S.3       14 UNK        -0.2604 
     58 C58       -54.9726  -25.8057    9.3148 C.3       14 UNK         0.0134 
     59 N         -50.4915  -26.0145   11.0111 N.am      6 UNK        -0.4116 
     60 C         -49.5352  -26.6971   11.6588 C.2       5 UNK         0.5034 
     61 O         -49.5962  -27.0143   12.8450 O.2       5 UNK        -0.5045 
     62 CA        -48.2590  -27.0206   10.8631 C.3       5 UNK         0.0224 
     63 CB        -48.3357  -28.4359   10.2725 C.3       5 UNK        -0.1978 
     64 N         -47.9766  -26.0456    9.8020 N.am      5 UNK        -0.4737 
     65 C         -47.7439  -24.7423   10.0175 C.2       4 UNK         0.5027 
     66 O         -47.7139  -24.2431   11.1454 O.2       4 UNK        -0.5211 
     67 CA        -47.5910  -23.8499    8.7714 C.3       4 UNK         0.0297 
     68 CB        -47.2247  -22.3915    9.1196 C.3       4 UNK        -0.1993 
     69 N         -46.6673  -24.3940    7.7717 N.am      4 UNK        -0.4486 
     70 C         -45.3616  -24.6595    7.9256 C.2       3 UNK         0.4961 
     71 O         -44.7370  -24.4998    8.9760 O.2       3 UNK        -0.5105 
     72 CA        -44.6413  -25.1797    6.6669 C.3       3 UNK         0.0299 
     73 CB        -43.1370  -25.4523    6.8869 C.3       3 UNK        -0.1972 
     74 N         -45.3189  -26.3464    6.0907 N.am      3 UNK        -0.4305 
     75 C         -45.4884  -27.5523    6.6555 C.2       2 UNK         0.5006 
     76 O         -45.0194  -27.8826    7.7460 O.2       2 UNK        -0.5106 
     77 CA        -46.3493  -28.5475    5.8497 C.3       2 UNK         0.0296 
     78 CB        -46.6525  -29.8498    6.6224 C.3       2 UNK        -0.2002 
     79 N         -47.5935  -27.9457    5.3496 N.am      2 UNK        -0.4032 
     80 C         -48.5554  -27.3679    6.0883 C.2       1 UNK         0.5000 
     81 O         -48.5110  -27.2411    7.3109 O.2       1 UNK        -0.5238 
     82 H82       -48.6379  -23.1082    3.0263 H         1 UNK         0.0889 
     83 H83       -48.9180  -24.5774    2.0895 H         1 UNK         0.0889 
     84 H84       -47.2866  -24.1721    2.6281 H         1 UNK         0.0889 
     85 H85       -49.8529  -26.1796    3.3173 H         1 UNK         0.3028 
     86 H86       -50.2989  -26.1569    6.0321 H         1 UNK         0.0864 
     87 H87       -50.2947  -28.5098    4.0678 H         1 UNK         0.0720 
     88 H88       -50.8262  -28.6673    5.7161 H         1 UNK         0.0720 
     89 H89       -54.4760  -28.3646    4.9465 H         1 UNK         0.0814 
     90 H90       -53.1763  -29.5177    5.0778 H         1 UNK         0.0814 
     91 H91       -54.7102  -26.5365    6.7289 H         1 UNK         0.1469 
     92 H92       -53.4679  -27.7267   10.6605 H         1 UNK         0.1381 
     93 H93       -52.1739  -29.9527    7.2460 H         1 UNK         0.1206 
     94 H94       -51.0128  -30.1552    9.4537 H         1 UNK         0.0813 
     95 H95       -51.6212  -29.3055   10.8465 H         1 UNK         0.0813 
     96 H96       -52.3754  -32.3753   12.4772 H         1 UNK         0.0638 
     97 H97       -51.9890  -30.6806   12.5512 H         1 UNK         0.0638 
     98 H98       -54.7920  -31.9021   12.6007 H         1 UNK         0.0568 
     99 H99       -53.8628  -30.2995   16.2264 H         1 UNK         0.3450 
    100 H100      -54.0067  -29.2641   14.8189 H         1 UNK         0.3450 
    101 H101      -54.0295  -29.0930   12.3118 H         1 UNK         0.2987 
    102 H102      -55.5937  -27.6441   11.6561 H         1 UNK         0.0766 
    103 H103      -57.9124  -26.8628   11.4072 H         1 UNK         0.0798 
    104 H104      -58.5186  -28.2289   12.3449 H         1 UNK         0.0798 
    105 H105      -57.7700  -28.4946   10.7761 H         1 UNK         0.0798 
    106 H106      -57.1825  -26.8860   13.9048 H         1 UNK         0.3198 
    107 H107      -56.1427  -25.4050   15.4200 H         1 UNK         0.0843 
    108 H108      -55.1215  -27.8809   16.9572 H         1 UNK         0.0831 
    109 H109      -56.7876  -27.6561   16.4422 H         1 UNK         0.0831 
    110 H110      -56.0940  -26.5801   17.6384 H         1 UNK         0.0831 
    111 H111      -53.3636  -25.8438   15.3332 H         1 UNK         0.3133 
    112 H112      -52.3286  -23.3485   16.4006 H         1 UNK         0.0566 
    113 H113      -51.1030  -23.3485   18.5882 H         1 UNK         0.0814 
    114 H114      -52.7726  -22.8342   18.7602 H         1 UNK         0.0814 
    115 H115      -52.3055  -24.4525   19.2572 H         1 UNK         0.0814 
    116 H116      -50.9863  -24.9563   15.7781 H         1 UNK         0.3091 
    117 H117      -49.6230  -27.8325   17.1918 H         1 UNK         0.0702 
    118 H118      -51.5905  -28.9155   16.1234 H         1 UNK         0.0785 
    119 H119      -51.4925  -27.8073   14.7607 H         1 UNK         0.0785 
    120 H120      -50.2011  -28.9702   15.0502 H         1 UNK         0.0785 
    121 H121      -49.3864  -26.5360   14.6143 H         1 UNK         0.2998 
    122 H122      -46.7882  -24.2688   15.6835 H         1 UNK         0.0697 
    123 H123      -46.9532  -26.6783   13.7996 H         1 UNK         0.0825 
    124 H124      -45.7016  -26.3544   14.9846 H         1 UNK         0.0825 
    125 H125      -45.8617  -25.3094   13.5808 H         1 UNK         0.0825 
    126 H126      -48.1667  -24.4376   13.2071 H         1 UNK         0.3029 
    127 H127      -50.7845  -22.1295   13.9639 H         1 UNK         0.0897 
    128 H128      -49.7647  -20.9841   11.9903 H         1 UNK         0.0792 
    129 H129      -48.2458  -21.8385   12.2653 H         1 UNK         0.0792 
    130 H130      -48.8372  -20.6865   13.4514 H         1 UNK         0.0792 
    131 H131      -49.8808  -23.6219   11.6368 H         1 UNK         0.3086 
    132 H132      -52.2193  -26.2864   12.0769 H         1 UNK         0.0583 
    133 H133      -52.4721  -23.6991   10.4902 H         1 UNK         0.1020 
    134 H134      -52.3843  -25.1483    9.5569 H         1 UNK         0.1020 
    135 H135      -56.0102  -26.1164    9.4425 H         1 UNK         0.0694 
    136 H136      -54.9817  -24.9969    8.5822 H         1 UNK         0.0694 
    137 H137      -50.3385  -25.8216   10.0327 H         1 UNK         0.2989 
    138 H138      -47.4206  -26.9909   11.5600 H         1 UNK         0.1055 
    139 H139      -48.5085  -29.1780   11.0532 H         1 UNK         0.0806 
    140 H140      -47.4053  -28.7021    9.7708 H         1 UNK         0.0806 
    141 H141      -49.1454  -28.5273    9.5483 H         1 UNK         0.0806 
    142 H142      -48.0181  -26.3962    8.8444 H         1 UNK         0.3061 
    143 H143      -48.5705  -23.8333    8.2913 H         1 UNK         0.0734 
    144 H144      -47.1412  -21.7778    8.2228 H         1 UNK         0.0832 
    145 H145      -47.9888  -21.9371    9.7509 H         1 UNK         0.0832 
    146 H146      -46.2791  -22.3294    9.6593 H         1 UNK         0.0832 
    147 H147      -47.0809  -24.5595    6.8541 H         1 UNK         0.3156 
    148 H148      -44.7200  -24.3856    5.9225 H         1 UNK         0.0589 
    149 H149      -42.9655  -26.2044    7.6576 H         1 UNK         0.0808 
    150 H150      -42.6572  -25.7952    5.9704 H         1 UNK         0.0808 
    151 H151      -42.6211  -24.5448    7.2027 H         1 UNK         0.0808 
    152 H152      -45.7829  -26.1794    5.2087 H         1 UNK         0.3098 
    153 H153      -45.7593  -28.8173    4.9724 H         1 UNK         0.0720 
    154 H154      -47.2182  -30.5513    6.0093 H         1 UNK         0.0791 
    155 H155      -47.2280  -29.6592    7.5283 H         1 UNK         0.0791 
    156 H156      -45.7316  -30.3518    6.9213 H         1 UNK         0.0791 
    157 H157      -47.7221  -27.9679    4.3474 H         1 UNK         0.3028 
@<TRIPOS>BOND
     1    1    2 1    
     2    1   82 1    
     3    1   83 1    
     4    1   84 1    
     5    2    3 2    
     6    2    4 am   BACKBONE|DICT|INTERRES
     7    4    5 1    
     8    4   85 1    
     9    5    6 1    
    10    5   80 1    
    11    5   86 1    
    12    6    7 1    
    13    6   87 1    
    14    6   88 1    
    15    7    8 1    
    16    8    9 1    
    17    8   89 1    
    18    8   90 1    
    19    9   10 ar   
    20    9   14 ar   
    21   10   11 ar   
    22   10   91 1    
    23   11   12 ar   
    24   11   58 1    
    25   12   13 ar   
    26   12   92 1    
    27   13   14 ar   
    28   13   15 1    
    29   14   93 1    
    30   15   16 1    
    31   15   94 1    
    32   15   95 1    
    33   16   17 1    
    34   17   18 1    
    35   17   96 1    
    36   17   97 1    
    37   18   19 1    
    38   18   22 1    
    39   18   98 1    
    40   19   20 am   BACKBONE|DICT|INTERRES
    41   19   21 2    
    42   20   99 1    
    43   20  100 1    
    44   22   23 am   BACKBONE|DICT|INTERRES
    45   22  101 1    
    46   23   24 2    
    47   23   25 1    
    48   25   26 1    
    49   25   27 1    
    50   25  102 1    
    51   26  103 1    
    52   26  104 1    
    53   26  105 1    
    54   27   28 am   BACKBONE|DICT|INTERRES
    55   27  106 1    
    56   28   29 2    
    57   28   30 1    
    58   30   31 1    
    59   30   32 1    
    60   30  107 1    
    61   31  108 1    
    62   31  109 1    
    63   31  110 1    
    64   32   33 am   BACKBONE|DICT|INTERRES
    65   32  111 1    
    66   33   34 2    
    67   33   35 1    
    68   35   36 1    
    69   35   37 1    
    70   35  112 1    
    71   36  113 1    
    72   36  114 1    
    73   36  115 1    
    74   37   38 am   BACKBONE|DICT|INTERRES
    75   37  116 1    
    76   38   39 2    
    77   38   40 1    
    78   40   41 1    
    79   40   42 1    
    80   40  117 1    
    81   41  118 1    
    82   41  119 1    
    83   41  120 1    
    84   42   43 am   BACKBONE|DICT|INTERRES
    85   42  121 1    
    86   43   44 2    
    87   43   45 1    
    88   45   46 1    
    89   45   47 1    
    90   45  122 1    
    91   46  123 1    
    92   46  124 1    
    93   46  125 1    
    94   47   48 am   BACKBONE|DICT|INTERRES
    95   47  126 1    
    96   48   49 2    
    97   48   50 1    
    98   50   51 1    
    99   50   52 1    
   100   50  127 1    
   101   51  128 1    
   102   51  129 1    
   103   51  130 1    
   104   52   53 am   BACKBONE|DICT|INTERRES
   105   52  131 1    
   106   53   54 2    
   107   53   55 1    
   108   55   56 1    
   109   55   59 1    
   110   55  132 1    
   111   56   57 1    
   112   56  133 1    
   113   56  134 1    
   114   57   58 1    
   115   58  135 1    
   116   58  136 1    
   117   59   60 am   BACKBONE|DICT|INTERRES
   118   59  137 1    
   119   60   61 2    
   120   60   62 1    
   121   62   63 1    
   122   62   64 1    
   123   62  138 1    
   124   63  139 1    
   125   63  140 1    
   126   63  141 1    
   127   64   65 am   BACKBONE|DICT|INTERRES
   128   64  142 1    
   129   65   66 2    
   130   65   67 1    
   131   67   68 1    
   132   67   69 1    
   133   67  143 1    
   134   68  144 1    
   135   68  145 1    
   136   68  146 1    
   137   69   70 am   BACKBONE|DICT|INTERRES
   138   69  147 1    
   139   70   71 2    
   140   70   72 1    
   141   72   73 1    
   142   72   74 1    
   143   72  148 1    
   144   73  149 1    
   145   73  150 1    
   146   73  151 1    
   147   74   75 am   BACKBONE|DICT|INTERRES
   148   74  152 1    
   149   75   76 2    
   150   75   77 1    
   151   77   78 1    
   152   77   79 1    
   153   77  153 1    
   154   78  154 1    
   155   78  155 1    
   156   78  156 1    
   157   79   80 am   BACKBONE|DICT|INTERRES
   158   79  157 1    
   159   80   81 2    
@<TRIPOS>SUBSTRUCTURE
     1 UNK         1 GROUP             0       ****    0 ROOT    
