@<TRIPOS>MOLECULE
3R207
157   159    1
SMALL
USER_CHARGES


@<TRIPOS>ATOM
      1 CA        -47.8341  -26.6592    4.0528 C.3       0 UNK        -0.1975 
      2 C         -48.5232  -25.7062    5.0174 C.2       0 UNK         0.4852 
      3 O         -48.2689  -24.5018    4.9759 O.2       0 UNK        -0.5216 
      4 N         -49.3811  -26.2411    5.8956 N.am      1 UNK        -0.4461 
      5 CA        -50.1598  -25.5165    6.9066 C.3       1 UNK         0.0864 
      6 C6        -51.1704  -26.4532    7.6110 C.3       14 UNK        -0.0898 
      7 S7        -52.4576  -27.0735    6.4741 S.3       14 UNK        -0.2598 
      8 C8        -51.9708  -28.8121    6.2119 C.3       14 UNK         0.0286 
      9 C9        -52.1163  -29.6486    7.4753 C.ar      14 UNK        -0.0844 
     10 C10       -50.9858  -30.0245    8.2073 C.ar      14 UNK        -0.0881 
     11 C11       -51.1152  -30.7608    9.3899 C.ar      14 UNK        -0.0643 
     12 C12       -52.3861  -31.1641    9.8075 C.ar      14 UNK        -0.0930 
     13 C13       -53.5227  -30.8146    9.0731 C.ar      14 UNK        -0.0827 
     14 C14       -53.3828  -30.0509    7.9106 C.ar      14 UNK        -0.1249 
     15 C15       -54.8956  -31.2767    9.5357 C.3       14 UNK         0.0141 
     16 S16       -55.3721  -30.4838   11.1014 S.3       14 UNK        -0.2313 
     17 C17       -56.9401  -31.3445   11.4585 C.3       14 UNK        -0.0915 
     18 CA        -58.0729  -30.3674   11.8649 C.3       13 UNK         0.0968 
     19 C         -59.4328  -31.1175   11.9821 C.2       13 UNK         0.5732 
     20 N         -60.0318  -31.2370   13.1612 N.am      13 UNK        -0.7310 
     21 O         -59.9569  -31.5955   10.9787 O.2       13 UNK        -0.5035 
     22 N         -57.6961  -29.5793   13.0499 N.am      13 UNK        -0.4233 
     23 C         -58.2897  -28.4456   13.4417 C.2       13 UNK         0.4989 
     24 O         -59.2313  -27.9209   12.8460 O.2       13 UNK        -0.4996 
     25 CA        -57.7520  -27.7849   14.7227 C.3       12 UNK         0.0216 
     26 CB        -58.6020  -28.1996   15.9353 C.3       12 UNK        -0.1964 
     27 N         -56.3411  -28.0809   14.9981 N.am      12 UNK        -0.4276 
     28 C         -55.3123  -27.5488   14.3250 C.2       12 UNK         0.5020 
     29 O         -55.4390  -26.7902   13.3609 O.2       12 UNK        -0.5489 
     30 CA        -53.9003  -27.8962   14.8338 C.3       11 UNK         0.0294 
     31 CB        -53.1187  -28.7031   13.7829 C.3       11 UNK        -0.2019 
     32 N         -53.1574  -26.6783   15.1684 N.am      11 UNK        -0.4493 
     33 C         -53.5012  -25.8300   16.1494 C.2       11 UNK         0.4932 
     34 O         -54.4000  -26.0580   16.9621 O.2       11 UNK        -0.5029 
     35 CA        -52.7237  -24.5032   16.2177 C.3       10 UNK         0.0280 
     36 CB        -53.0808  -23.6460   17.4514 C.3       10 UNK        -0.1976 
     37 N         -51.2750  -24.6821   16.1029 N.am      10 UNK        -0.4242 
     38 C         -50.4515  -25.3282   16.9426 C.2       10 UNK         0.5072 
     39 O         -50.8227  -25.8862   17.9763 O.2       10 UNK        -0.5224 
     40 CA        -48.9517  -25.3663   16.5784 C.3       9 UNK         0.0343 
     41 CB        -48.5122  -26.8064   16.2641 C.3       9 UNK        -0.2003 
     42 N         -48.5936  -24.5072   15.4455 N.am      9 UNK        -0.4272 
     43 C         -48.5404  -23.1675   15.4681 C.2       9 UNK         0.4988 
     44 O         -48.6858  -22.4918   16.4866 O.2       9 UNK        -0.5108 
     45 CA        -48.3538  -22.4639   14.1114 C.3       8 UNK         0.0248 
     46 CB        -46.8657  -22.3703   13.7354 C.3       8 UNK        -0.2001 
     47 N         -49.1032  -23.1242   13.0358 N.am      8 UNK        -0.4140 
     48 C         -50.4425  -23.1452   12.9450 C.2       8 UNK         0.5028 
     49 O         -51.1881  -22.5599   13.7287 O.2       8 UNK        -0.5428 
     50 CA        -51.0600  -24.0037   11.8273 C.3       7 UNK         0.0264 
     51 CB        -51.2530  -23.1797   10.5458 C.3       7 UNK        -0.1988 
     52 N         -50.2714  -25.2088   11.5491 N.am      7 UNK        -0.4454 
     53 C         -50.2053  -26.2528   12.3915 C.2       7 UNK         0.5027 
     54 O         -50.8476  -26.3213   13.4403 O.2       7 UNK        -0.5083 
     55 CA        -49.2256  -27.3831   12.0252 C.3       6 UNK         0.0844 
     56 C56       -49.9086  -28.4169   11.1005 C.3       14 UNK        -0.0967 
     57 S57       -48.7671  -29.7193   10.5194 S.3       14 UNK        -0.2604 
     58 C58       -49.8950  -31.1236   10.2304 C.3       14 UNK         0.0134 
     59 N         -47.9838  -26.8465   11.4611 N.am      6 UNK        -0.4116 
     60 C         -47.0620  -26.1638   12.1505 C.2       5 UNK         0.5034 
     61 O         -47.1996  -25.8662   13.3363 O.2       5 UNK        -0.5045 
     62 CA        -45.8046  -25.6780   11.4051 C.3       5 UNK         0.0224 
     63 CB        -44.5116  -26.0123   12.1765 C.3       5 UNK        -0.1978 
     64 N         -45.7244  -26.1023   10.0009 N.am      5 UNK        -0.4737 
     65 C         -45.5258  -27.3322    9.4991 C.2       4 UNK         0.5027 
     66 O         -45.3142  -28.3287   10.1880 O.2       4 UNK        -0.5211 
     67 CA        -45.6144  -27.4883    7.9673 C.3       4 UNK         0.0297 
     68 CB        -46.8476  -28.3251    7.5833 C.3       4 UNK        -0.1993 
     69 N         -45.6894  -26.1982    7.2776 N.am      4 UNK        -0.4486 
     70 C         -44.6359  -25.4333    6.9582 C.2       3 UNK         0.4961 
     71 O         -43.4648  -25.7868    7.0929 O.2       3 UNK        -0.5105 
     72 CA        -44.9428  -24.0179    6.4347 C.3       3 UNK         0.0299 
     73 CB        -44.8537  -23.9687    4.9012 C.3       3 UNK        -0.1972 
     74 N         -46.2544  -23.5236    6.8731 N.am      3 UNK        -0.4305 
     75 C         -46.5267  -23.1377    8.1300 C.2       2 UNK         0.5006 
     76 O         -45.6926  -23.1316    9.0340 O.2       2 UNK        -0.5106 
     77 CA        -47.9766  -22.7524    8.4612 C.3       2 UNK         0.0296 
     78 CB        -48.2122  -21.2538    8.2183 C.3       2 UNK        -0.2002 
     79 N         -48.9535  -23.5351    7.7023 N.am      2 UNK        -0.4032 
     80 C         -49.2324  -24.8258    7.9282 C.2       1 UNK         0.5000 
     81 O         -48.7665  -25.4701    8.8728 O.2       1 UNK        -0.5238 
     82 H82       -48.3050  -27.6420    4.0467 H         1 UNK         0.0889 
     83 H83       -46.7878  -26.7849    4.3289 H         1 UNK         0.0889 
     84 H84       -47.8745  -26.2608    3.0394 H         1 UNK         0.0889 
     85 H85       -49.5397  -27.2365    5.8727 H         1 UNK         0.3028 
     86 H86       -50.7286  -24.7390    6.3918 H         1 UNK         0.0864 
     87 H87       -51.6820  -25.9298    8.4209 H         1 UNK         0.0720 
     88 H88       -50.6500  -27.2898    8.0739 H         1 UNK         0.0720 
     89 H89       -50.9496  -28.8555    5.8318 H         1 UNK         0.0814 
     90 H90       -52.6007  -29.2362    5.4286 H         1 UNK         0.0814 
     91 H91       -50.0026  -29.7212    7.8748 H         1 UNK         0.1469 
     92 H92       -52.4978  -31.7441   10.7136 H         1 UNK         0.1381 
     93 H93       -54.2579  -29.7660    7.3422 H         1 UNK         0.1206 
     94 H94       -55.6527  -31.0621    8.7798 H         1 UNK         0.0813 
     95 H95       -54.8825  -32.3598    9.6664 H         1 UNK         0.0813 
     96 H96       -56.7588  -32.0729   12.2508 H         1 UNK         0.0638 
     97 H97       -57.2348  -31.9197   10.5786 H         1 UNK         0.0638 
     98 H98       -58.2017  -29.6610   11.0426 H         1 UNK         0.0568 
     99 H99       -60.9134  -31.7218   13.2191 H         1 UNK         0.3450 
    100 H100      -59.6126  -30.8496   13.9904 H         1 UNK         0.3450 
    101 H101      -56.9239  -29.9349   13.5918 H         1 UNK         0.2987 
    102 H102      -57.8517  -26.7046   14.5950 H         1 UNK         0.0766 
    103 H103      -58.2956  -27.6655   16.8352 H         1 UNK         0.0798 
    104 H104      -58.5282  -29.2688   16.1374 H         1 UNK         0.0798 
    105 H105      -59.6561  -27.9710   15.7703 H         1 UNK         0.0798 
    106 H106      -56.1481  -28.6713   15.7950 H         1 UNK         0.3198 
    107 H107      -53.9787  -28.5005   15.7401 H         1 UNK         0.0843 
    108 H108      -53.0244  -28.1562   12.8436 H         1 UNK         0.0831 
    109 H109      -53.6215  -29.6450   13.5610 H         1 UNK         0.0831 
    110 H110      -52.1145  -28.9446   14.1317 H         1 UNK         0.0831 
    111 H111      -52.3871  -26.4331   14.5499 H         1 UNK         0.3133 
    112 H112      -53.0247  -23.9376   15.3348 H         1 UNK         0.0566 
    113 H113      -52.5349  -22.7025   17.4489 H         1 UNK         0.0814 
    114 H114      -54.1442  -23.4042   17.4634 H         1 UNK         0.0814 
    115 H115      -52.8556  -24.1623   18.3850 H         1 UNK         0.0814 
    116 H116      -50.8621  -24.2734   15.2753 H         1 UNK         0.3091 
    117 H117      -48.3971  -25.0225   17.4538 H         1 UNK         0.0702 
    118 H118      -47.4445  -26.8582   16.0496 H         1 UNK         0.0785 
    119 H119      -49.0464  -27.2098   15.4034 H         1 UNK         0.0785 
    120 H120      -48.7056  -27.4694   17.1083 H         1 UNK         0.0785 
    121 H121      -48.3558  -24.9864   14.5811 H         1 UNK         0.2998 
    122 H122      -48.7402  -21.4471   14.2102 H         1 UNK         0.0697 
    123 H123      -46.3995  -23.3521   13.6556 H         1 UNK         0.0825 
    124 H124      -46.3117  -21.8129   14.4919 H         1 UNK         0.0825 
    125 H125      -46.7255  -21.8522   12.7866 H         1 UNK         0.0825 
    126 H126      -48.5684  -23.6525   12.3642 H         1 UNK         0.3029 
    127 H127      -52.0486  -24.3214   12.1680 H         1 UNK         0.0897 
    128 H128      -50.3146  -22.7660   10.1826 H         1 UNK         0.0792 
    129 H129      -51.9234  -22.3385   10.7273 H         1 UNK         0.0792 
    130 H130      -51.6956  -23.7762    9.7485 H         1 UNK         0.0792 
    131 H131      -49.7221  -25.2342   10.6956 H         1 UNK         0.3086 
    132 H132      -48.9628  -27.8961   12.9529 H         1 UNK         0.0583 
    133 H133      -50.7439  -28.8875   11.6233 H         1 UNK         0.1020 
    134 H134      -50.3366  -27.9286   10.2252 H         1 UNK         0.1020 
    135 H135      -49.3445  -31.9206    9.7293 H         1 UNK         0.0694 
    136 H136      -50.2000  -31.5199   11.2002 H         1 UNK         0.0694 
    137 H137      -47.8259  -27.0127   10.4772 H         1 UNK         0.2989 
    138 H138      -45.8879  -24.5906   11.3754 H         1 UNK         0.1055 
    139 H139      -44.5173  -25.5518   13.1654 H         1 UNK         0.0806 
    140 H140      -43.6303  -25.6415   11.6533 H         1 UNK         0.0806 
    141 H141      -44.3901  -27.0857   12.3236 H         1 UNK         0.0806 
    142 H142      -45.8637  -25.3521    9.3364 H         1 UNK         0.3061 
    143 H143      -44.7206  -28.0224    7.6376 H         1 UNK         0.0734 
    144 H144      -46.9101  -28.4719    6.5053 H         1 UNK         0.0832 
    145 H145      -46.8018  -29.3152    8.0390 H         1 UNK         0.0832 
    146 H146      -47.7754  -27.8601    7.9180 H         1 UNK         0.0832 
    147 H147      -46.6121  -25.8125    7.1449 H         1 UNK         0.3156 
    148 H148      -44.1771  -23.3495    6.8346 H         1 UNK         0.0589 
    149 H149      -45.5876  -24.6195    4.4273 H         1 UNK         0.0808 
    150 H150      -45.0132  -22.9572    4.5274 H         1 UNK         0.0808 
    151 H151      -43.8683  -24.2877    4.5585 H         1 UNK         0.0808 
    152 H152      -47.0035  -23.5513    6.1862 H         1 UNK         0.3098 
    153 H153      -48.1230  -22.9512    9.5245 H         1 UNK         0.0720 
    154 H154      -48.0869  -20.9886    7.1677 H         1 UNK         0.0791 
    155 H155      -47.5082  -20.6504    8.7933 H         1 UNK         0.0791 
    156 H156      -49.2156  -20.9556    8.5226 H         1 UNK         0.0791 
    157 H157      -49.3448  -23.0961    6.8798 H         1 UNK         0.3028 
@<TRIPOS>BOND
     1    1    2 1    
     2    1   82 1    
     3    1   83 1    
     4    1   84 1    
     5    2    3 2    
     6    2    4 am   BACKBONE|DICT|INTERRES
     7    4    5 1    
     8    4   85 1    
     9    5    6 1    
    10    5   80 1    
    11    5   86 1    
    12    6    7 1    
    13    6   87 1    
    14    6   88 1    
    15    7    8 1    
    16    8    9 1    
    17    8   89 1    
    18    8   90 1    
    19    9   10 ar   
    20    9   14 ar   
    21   10   11 ar   
    22   10   91 1    
    23   11   12 ar   
    24   11   58 1    
    25   12   13 ar   
    26   12   92 1    
    27   13   14 ar   
    28   13   15 1    
    29   14   93 1    
    30   15   16 1    
    31   15   94 1    
    32   15   95 1    
    33   16   17 1    
    34   17   18 1    
    35   17   96 1    
    36   17   97 1    
    37   18   19 1    
    38   18   22 1    
    39   18   98 1    
    40   19   20 am   BACKBONE|DICT|INTERRES
    41   19   21 2    
    42   20   99 1    
    43   20  100 1    
    44   22   23 am   BACKBONE|DICT|INTERRES
    45   22  101 1    
    46   23   24 2    
    47   23   25 1    
    48   25   26 1    
    49   25   27 1    
    50   25  102 1    
    51   26  103 1    
    52   26  104 1    
    53   26  105 1    
    54   27   28 am   BACKBONE|DICT|INTERRES
    55   27  106 1    
    56   28   29 2    
    57   28   30 1    
    58   30   31 1    
    59   30   32 1    
    60   30  107 1    
    61   31  108 1    
    62   31  109 1    
    63   31  110 1    
    64   32   33 am   BACKBONE|DICT|INTERRES
    65   32  111 1    
    66   33   34 2    
    67   33   35 1    
    68   35   36 1    
    69   35   37 1    
    70   35  112 1    
    71   36  113 1    
    72   36  114 1    
    73   36  115 1    
    74   37   38 am   BACKBONE|DICT|INTERRES
    75   37  116 1    
    76   38   39 2    
    77   38   40 1    
    78   40   41 1    
    79   40   42 1    
    80   40  117 1    
    81   41  118 1    
    82   41  119 1    
    83   41  120 1    
    84   42   43 am   BACKBONE|DICT|INTERRES
    85   42  121 1    
    86   43   44 2    
    87   43   45 1    
    88   45   46 1    
    89   45   47 1    
    90   45  122 1    
    91   46  123 1    
    92   46  124 1    
    93   46  125 1    
    94   47   48 am   BACKBONE|DICT|INTERRES
    95   47  126 1    
    96   48   49 2    
    97   48   50 1    
    98   50   51 1    
    99   50   52 1    
   100   50  127 1    
   101   51  128 1    
   102   51  129 1    
   103   51  130 1    
   104   52   53 am   BACKBONE|DICT|INTERRES
   105   52  131 1    
   106   53   54 2    
   107   53   55 1    
   108   55   56 1    
   109   55   59 1    
   110   55  132 1    
   111   56   57 1    
   112   56  133 1    
   113   56  134 1    
   114   57   58 1    
   115   58  135 1    
   116   58  136 1    
   117   59   60 am   BACKBONE|DICT|INTERRES
   118   59  137 1    
   119   60   61 2    
   120   60   62 1    
   121   62   63 1    
   122   62   64 1    
   123   62  138 1    
   124   63  139 1    
   125   63  140 1    
   126   63  141 1    
   127   64   65 am   BACKBONE|DICT|INTERRES
   128   64  142 1    
   129   65   66 2    
   130   65   67 1    
   131   67   68 1    
   132   67   69 1    
   133   67  143 1    
   134   68  144 1    
   135   68  145 1    
   136   68  146 1    
   137   69   70 am   BACKBONE|DICT|INTERRES
   138   69  147 1    
   139   70   71 2    
   140   70   72 1    
   141   72   73 1    
   142   72   74 1    
   143   72  148 1    
   144   73  149 1    
   145   73  150 1    
   146   73  151 1    
   147   74   75 am   BACKBONE|DICT|INTERRES
   148   74  152 1    
   149   75   76 2    
   150   75   77 1    
   151   77   78 1    
   152   77   79 1    
   153   77  153 1    
   154   78  154 1    
   155   78  155 1    
   156   78  156 1    
   157   79   80 am   BACKBONE|DICT|INTERRES
   158   79  157 1    
   159   80   81 2    
@<TRIPOS>SUBSTRUCTURE
     1 UNK         1 GROUP             0       ****    0 ROOT    
