@<TRIPOS>MOLECULE
3R207
157   159    1
SMALL
USER_CHARGES


@<TRIPOS>ATOM
      1 CA        -50.0771  -31.0887    4.8036 C.3       0 UNK        -0.1975 
      2 C         -49.5946  -30.6706    6.1904 C.2       0 UNK         0.4852 
      3 O         -49.9010  -31.3575    7.1630 O.2       0 UNK        -0.5216 
      4 N         -48.8450  -29.5732    6.3419 N.am      1 UNK        -0.4461 
      5 CA        -48.3711  -28.6359    5.3244 C.3       1 UNK         0.0864 
      6 C6        -49.4908  -27.7295    4.7346 C.3       14 UNK        -0.0898 
      7 S7        -50.3917  -26.7429    5.9815 S.3       14 UNK        -0.2598 
      8 C8        -52.0102  -27.5757    5.9752 C.3       14 UNK         0.0286 
      9 C9        -52.8209  -27.2052    7.2055 C.ar      14 UNK        -0.0844 
     10 C10       -53.3877  -25.9345    7.3172 C.ar      14 UNK        -0.0881 
     11 C11       -54.1073  -25.5742    8.4605 C.ar      14 UNK        -0.0643 
     12 C12       -54.2776  -26.5073    9.4897 C.ar      14 UNK        -0.0930 
     13 C13       -53.7117  -27.7832    9.3884 C.ar      14 UNK        -0.0827 
     14 C14       -52.9929  -28.1274    8.2401 C.ar      14 UNK        -0.1249 
     15 C15       -53.8265  -28.7840   10.5282 C.3       14 UNK         0.0141 
     16 S16       -55.3641  -29.7480   10.4308 S.3       14 UNK        -0.2313 
     17 C17       -54.8721  -31.3012   11.2555 C.3       14 UNK        -0.0915 
     18 CA        -55.4900  -31.4867   12.6661 C.3       13 UNK         0.0968 
     19 C         -55.2306  -32.9347   13.1804 C.2       13 UNK         0.5732 
     20 N         -54.4000  -33.1448   14.1953 N.am      13 UNK        -0.7310 
     21 O         -55.7994  -33.8851   12.6481 O.2       13 UNK        -0.5035 
     22 N         -55.0833  -30.4185   13.5977 N.am      13 UNK        -0.4233 
     23 C         -55.6777  -30.1777   14.7750 C.2       13 UNK         0.4989 
     24 O         -56.6501  -30.8078   15.1933 O.2       13 UNK        -0.4996 
     25 CA        -55.0932  -29.0517   15.6472 C.3       12 UNK         0.0216 
     26 CB        -54.0426  -29.6164   16.6169 C.3       12 UNK        -0.1964 
     27 N         -54.5117  -27.9316   14.9000 N.am      12 UNK        -0.4276 
     28 C         -55.2014  -27.1112   14.0918 C.2       12 UNK         0.5020 
     29 O         -56.3975  -27.2578   13.8342 O.2       12 UNK        -0.5489 
     30 CA        -54.4301  -25.9244   13.4791 C.3       11 UNK         0.0294 
     31 CB        -55.3592  -24.7836   13.0127 C.3       11 UNK        -0.2019 
     32 N         -53.3693  -25.4038   14.3471 N.am      11 UNK        -0.4493 
     33 C         -53.5037  -24.8776   15.5733 C.2       11 UNK         0.4932 
     34 O         -54.5842  -24.7575   16.1537 O.2       11 UNK        -0.5029 
     35 CA        -52.2093  -24.4066   16.2689 C.3       10 UNK         0.0280 
     36 CB        -52.3448  -24.3804   17.8062 C.3       10 UNK        -0.1976 
     37 N         -50.9956  -25.1424   15.8851 N.am      10 UNK        -0.4242 
     38 C         -50.7775  -26.4646   15.9895 C.2       10 UNK         0.5072 
     39 O         -51.6521  -27.2708   16.3110 O.2       10 UNK        -0.5224 
     40 CA        -49.3600  -26.9953   15.6886 C.3       9 UNK         0.0343 
     41 CB        -49.3946  -28.1700   14.6996 C.3       9 UNK        -0.2003 
     42 N         -48.4403  -25.9689   15.1885 N.am      9 UNK        -0.4272 
     43 C         -47.7254  -25.1482   15.9692 C.2       9 UNK         0.4988 
     44 O         -47.7349  -25.1901   17.1999 O.2       9 UNK        -0.5108 
     45 CA        -46.8774  -24.0774   15.2618 C.3       8 UNK         0.0248 
     46 CB        -45.5157  -24.6554   14.8421 C.3       8 UNK        -0.2001 
     47 N         -47.5274  -23.4632   14.0985 N.am      8 UNK        -0.4140 
     48 C         -48.6910  -22.7990   14.1134 C.2       8 UNK         0.5028 
     49 O         -49.4031  -22.6948   15.1122 O.2       8 UNK        -0.5428 
     50 CA        -49.1185  -22.1175   12.8017 C.3       7 UNK         0.0264 
     51 CB        -47.9438  -21.4447   12.0651 C.3       7 UNK        -0.1988 
     52 N         -49.7977  -23.0366   11.8893 N.am      7 UNK        -0.4454 
     53 C         -51.0531  -23.4821   12.0398 C.2       7 UNK         0.5027 
     54 O         -51.7643  -23.2056   13.0040 O.2       7 UNK        -0.5083 
     55 CA        -51.6137  -24.3767   10.9177 C.3       6 UNK         0.0844 
     56 C56       -52.0912  -23.5410    9.6982 C.3       14 UNK        -0.0967 
     57 S57       -53.8691  -23.1378    9.8482 S.3       14 UNK        -0.2604 
     58 C58       -54.6797  -24.1663    8.5735 C.3       14 UNK         0.0134 
     59 N         -50.6403  -25.4038   10.5491 N.am      6 UNK        -0.4116 
     60 C         -50.5843  -26.6221   11.1050 C.2       5 UNK         0.5034 
     61 O         -51.3966  -27.0338   11.9339 O.2       5 UNK        -0.5045 
     62 CA        -49.4035  -27.5292   10.7035 C.3       5 UNK         0.0224 
     63 CB        -49.7872  -28.4622    9.5488 C.3       5 UNK        -0.1978 
     64 N         -48.1937  -26.7854   10.3457 N.am      5 UNK        -0.4737 
     65 C         -47.4956  -26.0413   11.2135 C.2       4 UNK         0.5027 
     66 O         -47.7642  -25.9619   12.4114 O.2       4 UNK        -0.5211 
     67 CA        -46.3320  -25.2089   10.6532 C.3       4 UNK         0.0297 
     68 CB        -45.0210  -26.0044   10.7398 C.3       4 UNK        -0.1993 
     69 N         -46.5217  -24.7435    9.2764 N.am      4 UNK        -0.4486 
     70 C         -47.5491  -24.0349    8.7907 C.2       3 UNK         0.4961 
     71 O         -48.5218  -23.6991    9.4668 O.2       3 UNK        -0.5105 
     72 CA        -47.5127  -23.6499    7.2986 C.3       3 UNK         0.0299 
     73 CB        -46.8714  -22.2623    7.1099 C.3       3 UNK        -0.1972 
     74 N         -46.9053  -24.6532    6.4079 N.am      3 UNK        -0.4305 
     75 C         -45.6385  -25.0979    6.3670 C.2       2 UNK         0.5006 
     76 O         -44.7427  -24.6629    7.0925 O.2       2 UNK        -0.5106 
     77 CA        -45.3270  -26.2467    5.3838 C.3       2 UNK         0.0296 
     78 CB        -44.1279  -27.1031    5.8463 C.3       2 UNK        -0.2002 
     79 N         -46.4791  -27.1075    5.0749 N.am      2 UNK        -0.4032 
     80 C         -47.2211  -27.8175    5.9407 C.2       1 UNK         0.5000 
     81 O         -47.0486  -27.8244    7.1654 O.2       1 UNK        -0.5238 
     82 H82       -50.2806  -32.1592    4.7860 H         1 UNK         0.0889 
     83 H83       -49.3411  -30.8896    4.0271 H         1 UNK         0.0889 
     84 H84       -51.0022  -30.5724    4.5513 H         1 UNK         0.0889 
     85 H85       -48.5000  -29.3286    7.2622 H         1 UNK         0.3028 
     86 H86       -47.9222  -29.2139    4.5150 H         1 UNK         0.0864 
     87 H87       -49.0755  -27.0375    4.0002 H         1 UNK         0.0720 
     88 H88       -50.2014  -28.3320    4.1693 H         1 UNK         0.0720 
     89 H89       -51.8665  -28.6557    5.9361 H         1 UNK         0.0814 
     90 H90       -52.5575  -27.3020    5.0721 H         1 UNK         0.0814 
     91 H91       -53.2449  -25.2183    6.5195 H         1 UNK         0.1469 
     92 H92       -54.8317  -26.2310   10.3748 H         1 UNK         0.1381 
     93 H93       -52.5495  -29.1107    8.1602 H         1 UNK         0.1206 
     94 H94       -52.9628  -29.4489   10.5062 H         1 UNK         0.0813 
     95 H95       -53.7851  -28.2752   11.4892 H         1 UNK         0.0813 
     96 H96       -55.1927  -32.1099   10.5958 H         1 UNK         0.0638 
     97 H97       -53.7851  -31.3786   11.3057 H         1 UNK         0.0638 
     98 H98       -56.5732  -31.4077   12.5547 H         1 UNK         0.0568 
     99 H99       -54.2463  -34.0870   14.5180 H         1 UNK         0.3450 
    100 H100      -53.9269  -32.3755   14.6395 H         1 UNK         0.3450 
    101 H101      -54.2891  -29.8598   13.3285 H         1 UNK         0.2987 
    102 H102      -55.9166  -28.6492   16.2412 H         1 UNK         0.0766 
    103 H103      -53.7237  -28.8616   17.3363 H         1 UNK         0.0798 
    104 H104      -53.1550  -29.9709   16.0915 H         1 UNK         0.0798 
    105 H105      -54.4439  -30.4550   17.1880 H         1 UNK         0.0798 
    106 H106      -53.5445  -27.7049   15.1035 H         1 UNK         0.3198 
    107 H107      -53.9235  -26.3129   12.5982 H         1 UNK         0.0843 
    108 H108      -55.9665  -24.3973   13.8317 H         1 UNK         0.0831 
    109 H109      -56.0435  -25.1255   12.2356 H         1 UNK         0.0831 
    110 H110      -54.7882  -23.9522   12.6003 H         1 UNK         0.0831 
    111 H111      -52.4348  -25.4347   13.9616 H         1 UNK         0.3133 
    112 H112      -52.0511  -23.3802   15.9351 H         1 UNK         0.0566 
    113 H113      -51.4323  -24.0160   18.2782 H         1 UNK         0.0814 
    114 H114      -53.1541  -23.7201   18.1198 H         1 UNK         0.0814 
    115 H115      -52.5582  -25.3718   18.2076 H         1 UNK         0.0814 
    116 H116      -50.2284  -24.5502   15.5827 H         1 UNK         0.3091 
    117 H117      -48.9705  -27.3825   16.6324 H         1 UNK         0.0702 
    118 H118      -49.9810  -29.0007   15.0943 H         1 UNK         0.0785 
    119 H119      -49.8446  -27.8758   13.7560 H         1 UNK         0.0785 
    120 H120      -48.3933  -28.5479   14.4925 H         1 UNK         0.0785 
    121 H121      -48.3302  -25.8943   14.1776 H         1 UNK         0.2998 
    122 H122      -46.6968  -23.2790   15.9845 H         1 UNK         0.0697 
    123 H123      -45.6238  -25.4449   14.0975 H         1 UNK         0.0825 
    124 H124      -44.9950  -25.0863   15.6984 H         1 UNK         0.0825 
    125 H125      -44.8666  -23.8855   14.4249 H         1 UNK         0.0825 
    126 H126      -47.0376  -23.5415   13.2211 H         1 UNK         0.3029 
    127 H127      -49.8237  -21.3288   13.0741 H         1 UNK         0.0897 
    128 H128      -47.2480  -22.1676   11.6402 H         1 UNK         0.0792 
    129 H129      -47.3791  -20.7950   12.7355 H         1 UNK         0.0792 
    130 H130      -48.3047  -20.8225   11.2457 H         1 UNK         0.0792 
    131 H131      -49.2891  -23.3008   11.0470 H         1 UNK         0.3086 
    132 H132      -52.4850  -24.8865   11.3317 H         1 UNK         0.0583 
    133 H133      -51.5243  -22.6143    9.5865 H         1 UNK         0.1020 
    134 H134      -51.9188  -24.0802    8.7671 H         1 UNK         0.1020 
    135 H135      -55.7447  -24.2303    8.8005 H         1 UNK         0.0694 
    136 H136      -54.6062  -23.6464    7.6171 H         1 UNK         0.0694 
    137 H137      -49.8951  -25.1149    9.9265 H         1 UNK         0.2989 
    138 H138      -49.1628  -28.1523   11.5664 H         1 UNK         0.1055 
    139 H139      -50.6511  -29.0720    9.8123 H         1 UNK         0.0806 
    140 H140      -48.9748  -29.1472    9.3074 H         1 UNK         0.0806 
    141 H141      -50.0405  -27.9039    8.6483 H         1 UNK         0.0806 
    142 H142      -47.8934  -26.8164    9.3796 H         1 UNK         0.3061 
    143 H143      -46.2332  -24.3233   11.2817 H         1 UNK         0.0734 
    144 H144      -44.1655  -25.3933   10.4513 H         1 UNK         0.0832 
    145 H145      -44.8399  -26.3539   11.7573 H         1 UNK         0.0832 
    146 H146      -45.0401  -26.8816   10.0913 H         1 UNK         0.0832 
    147 H147      -45.7581  -24.9189    8.6275 H         1 UNK         0.3156 
    148 H148      -48.5536  -23.5739    6.9798 H         1 UNK         0.0589 
    149 H149      -45.8279  -22.2466    7.4257 H         1 UNK         0.0808 
    150 H150      -46.9115  -21.9453    6.0679 H         1 UNK         0.0808 
    151 H151      -47.3973  -21.5090    7.6982 H         1 UNK         0.0808 
    152 H152      -47.5604  -25.1095    5.7887 H         1 UNK         0.3098 
    153 H153      -45.0453  -25.7657    4.4460 H         1 UNK         0.0720 
    154 H154      -43.9078  -27.8968    5.1325 H         1 UNK         0.0791 
    155 H155      -44.3131  -27.5661    6.8163 H         1 UNK         0.0791 
    156 H156      -43.2250  -26.4985    5.9418 H         1 UNK         0.0791 
    157 H157      -46.7170  -27.1620    4.0936 H         1 UNK         0.3028 
@<TRIPOS>BOND
     1    1    2 1    
     2    1   82 1    
     3    1   83 1    
     4    1   84 1    
     5    2    3 2    
     6    2    4 am   BACKBONE|DICT|INTERRES
     7    4    5 1    
     8    4   85 1    
     9    5    6 1    
    10    5   80 1    
    11    5   86 1    
    12    6    7 1    
    13    6   87 1    
    14    6   88 1    
    15    7    8 1    
    16    8    9 1    
    17    8   89 1    
    18    8   90 1    
    19    9   10 ar   
    20    9   14 ar   
    21   10   11 ar   
    22   10   91 1    
    23   11   12 ar   
    24   11   58 1    
    25   12   13 ar   
    26   12   92 1    
    27   13   14 ar   
    28   13   15 1    
    29   14   93 1    
    30   15   16 1    
    31   15   94 1    
    32   15   95 1    
    33   16   17 1    
    34   17   18 1    
    35   17   96 1    
    36   17   97 1    
    37   18   19 1    
    38   18   22 1    
    39   18   98 1    
    40   19   20 am   BACKBONE|DICT|INTERRES
    41   19   21 2    
    42   20   99 1    
    43   20  100 1    
    44   22   23 am   BACKBONE|DICT|INTERRES
    45   22  101 1    
    46   23   24 2    
    47   23   25 1    
    48   25   26 1    
    49   25   27 1    
    50   25  102 1    
    51   26  103 1    
    52   26  104 1    
    53   26  105 1    
    54   27   28 am   BACKBONE|DICT|INTERRES
    55   27  106 1    
    56   28   29 2    
    57   28   30 1    
    58   30   31 1    
    59   30   32 1    
    60   30  107 1    
    61   31  108 1    
    62   31  109 1    
    63   31  110 1    
    64   32   33 am   BACKBONE|DICT|INTERRES
    65   32  111 1    
    66   33   34 2    
    67   33   35 1    
    68   35   36 1    
    69   35   37 1    
    70   35  112 1    
    71   36  113 1    
    72   36  114 1    
    73   36  115 1    
    74   37   38 am   BACKBONE|DICT|INTERRES
    75   37  116 1    
    76   38   39 2    
    77   38   40 1    
    78   40   41 1    
    79   40   42 1    
    80   40  117 1    
    81   41  118 1    
    82   41  119 1    
    83   41  120 1    
    84   42   43 am   BACKBONE|DICT|INTERRES
    85   42  121 1    
    86   43   44 2    
    87   43   45 1    
    88   45   46 1    
    89   45   47 1    
    90   45  122 1    
    91   46  123 1    
    92   46  124 1    
    93   46  125 1    
    94   47   48 am   BACKBONE|DICT|INTERRES
    95   47  126 1    
    96   48   49 2    
    97   48   50 1    
    98   50   51 1    
    99   50   52 1    
   100   50  127 1    
   101   51  128 1    
   102   51  129 1    
   103   51  130 1    
   104   52   53 am   BACKBONE|DICT|INTERRES
   105   52  131 1    
   106   53   54 2    
   107   53   55 1    
   108   55   56 1    
   109   55   59 1    
   110   55  132 1    
   111   56   57 1    
   112   56  133 1    
   113   56  134 1    
   114   57   58 1    
   115   58  135 1    
   116   58  136 1    
   117   59   60 am   BACKBONE|DICT|INTERRES
   118   59  137 1    
   119   60   61 2    
   120   60   62 1    
   121   62   63 1    
   122   62   64 1    
   123   62  138 1    
   124   63  139 1    
   125   63  140 1    
   126   63  141 1    
   127   64   65 am   BACKBONE|DICT|INTERRES
   128   64  142 1    
   129   65   66 2    
   130   65   67 1    
   131   67   68 1    
   132   67   69 1    
   133   67  143 1    
   134   68  144 1    
   135   68  145 1    
   136   68  146 1    
   137   69   70 am   BACKBONE|DICT|INTERRES
   138   69  147 1    
   139   70   71 2    
   140   70   72 1    
   141   72   73 1    
   142   72   74 1    
   143   72  148 1    
   144   73  149 1    
   145   73  150 1    
   146   73  151 1    
   147   74   75 am   BACKBONE|DICT|INTERRES
   148   74  152 1    
   149   75   76 2    
   150   75   77 1    
   151   77   78 1    
   152   77   79 1    
   153   77  153 1    
   154   78  154 1    
   155   78  155 1    
   156   78  156 1    
   157   79   80 am   BACKBONE|DICT|INTERRES
   158   79  157 1    
   159   80   81 2    
@<TRIPOS>SUBSTRUCTURE
     1 UNK         1 GROUP             0       ****    0 ROOT    
