@<TRIPOS>MOLECULE
3R207
157   159    1
SMALL
USER_CHARGES


@<TRIPOS>ATOM
      1 CA        -51.0312  -23.1280    3.0500 C.3       0 UNK        -0.1975 
      2 C         -50.6122  -24.0432    4.1904 C.2       0 UNK         0.4852 
      3 O         -49.4955  -24.5603    4.1749 O.2       0 UNK        -0.5216 
      4 N         -51.4928  -24.2284    5.1861 N.am      1 UNK        -0.4461 
      5 CA        -51.3218  -25.0964    6.3623 C.3       1 UNK         0.0864 
      6 C6        -51.4828  -26.6005    6.0107 C.3       14 UNK        -0.0898 
      7 S7        -52.1731  -27.5558    7.4048 S.3       14 UNK        -0.2598 
      8 C8        -51.0189  -28.9580    7.4650 C.3       14 UNK         0.0286 
      9 C9        -51.1978  -29.7802    8.7328 C.ar      14 UNK        -0.0844 
     10 C10       -50.2642  -29.6878    9.7680 C.ar      14 UNK        -0.0881 
     11 C11       -50.3903  -30.4692   10.9226 C.ar      14 UNK        -0.0643 
     12 C12       -51.4853  -31.3303   11.0388 C.ar      14 UNK        -0.0930 
     13 C13       -52.4532  -31.4045   10.0296 C.ar      14 UNK        -0.0827 
     14 C14       -52.2906  -30.6396    8.8705 C.ar      14 UNK        -0.1249 
     15 C15       -53.6842  -32.2968   10.1760 C.3       14 UNK         0.0141 
     16 S16       -54.4582  -32.2254   11.8299 S.3       14 UNK        -0.2313 
     17 C17       -54.6813  -30.4297   12.0842 C.3       14 UNK        -0.0915 
     18 CA        -56.0534  -30.0405   12.6987 C.3       13 UNK         0.0968 
     19 C         -56.1510  -30.3492   14.2264 C.2       13 UNK         0.5732 
     20 N         -56.4355  -29.3870   15.0980 N.am      13 UNK        -0.7310 
     21 O         -55.9936  -31.4952   14.6387 O.2       13 UNK        -0.5035 
     22 N         -56.3775  -28.6475   12.3621 N.am      13 UNK        -0.4233 
     23 C         -57.6153  -28.1660   12.1872 C.2       13 UNK         0.4989 
     24 O         -58.6254  -28.8721   12.1813 O.2       13 UNK        -0.4996 
     25 CA        -57.7471  -26.6385   11.9871 C.3       12 UNK         0.0216 
     26 CB        -59.1458  -26.1079   12.3696 C.3       12 UNK        -0.1964 
     27 N         -56.6971  -25.8604   12.6628 N.am      12 UNK        -0.4276 
     28 C         -56.4109  -25.8697   13.9725 C.2       12 UNK         0.5020 
     29 O         -57.0365  -26.5167   14.8160 O.2       12 UNK        -0.5489 
     30 CA        -55.1746  -25.0676   14.4076 C.3       11 UNK         0.0294 
     31 CB        -55.5733  -23.8748   15.2907 C.3       11 UNK        -0.2019 
     32 N         -54.2263  -25.9138   15.1333 N.am      11 UNK        -0.4493 
     33 C         -53.6277  -27.0057   14.6401 C.2       11 UNK         0.4932 
     34 O         -53.7922  -27.4148   13.4882 O.2       11 UNK        -0.5029 
     35 CA        -52.6778  -27.7456   15.5995 C.3       10 UNK         0.0280 
     36 CB        -52.0988  -29.0325   14.9852 C.3       10 UNK        -0.1976 
     37 N         -51.5722  -26.8814   16.0152 N.am      10 UNK        -0.4242 
     38 C         -51.6240  -25.9691   16.9957 C.2       10 UNK         0.5072 
     39 O         -52.6331  -25.7441   17.6658 O.2       10 UNK        -0.5224 
     40 CA        -50.3494  -25.1512   17.2448 C.3       9 UNK         0.0343 
     41 CB        -49.2382  -26.0256   17.8506 C.3       9 UNK        -0.2003 
     42 N         -49.8817  -24.5565   15.9943 N.am      9 UNK        -0.4272 
     43 C         -50.2007  -23.3255   15.5681 C.2       9 UNK         0.4988 
     44 O         -50.8342  -22.5083   16.2369 O.2       9 UNK        -0.5108 
     45 CA        -49.7466  -22.9379   14.1478 C.3       8 UNK         0.0248 
     46 CB        -48.3786  -22.2390   14.1891 C.3       8 UNK        -0.2001 
     47 N         -49.6834  -24.0903   13.2449 N.am      8 UNK        -0.4140 
     48 C         -50.7639  -24.7631   12.8164 C.2       8 UNK         0.5028 
     49 O         -51.9174  -24.3886   13.0238 O.2       8 UNK        -0.5428 
     50 CA        -50.5384  -26.0767   12.0433 C.3       7 UNK         0.0264 
     51 CB        -50.8119  -25.8617   10.5491 C.3       7 UNK        -0.1988 
     52 N         -49.2003  -26.6534   12.2002 N.am      7 UNK        -0.4454 
     53 C         -48.6597  -27.0854   13.3493 C.2       7 UNK         0.5027 
     54 O         -49.2473  -27.0531   14.4315 O.2       7 UNK        -0.5083 
     55 CA        -47.2018  -27.5924   13.2921 C.3       6 UNK         0.0844 
     56 C56       -47.1325  -29.1395   13.2115 C.3       14 UNK        -0.0967 
     57 S57       -47.7201  -29.8322   11.6244 S.3       14 UNK        -0.2604 
     58 C58       -49.4064  -30.3631   12.0869 C.3       14 UNK         0.0134 
     59 N         -46.3913  -26.9437   12.2525 N.am      6 UNK        -0.4116 
     60 C         -46.1610  -25.6287   12.1370 C.2       5 UNK         0.5034 
     61 O         -46.6531  -24.7856   12.8876 O.2       5 UNK        -0.5045 
     62 CA        -45.2668  -25.1598   10.9760 C.3       5 UNK         0.0224 
     63 CB        -43.7735  -25.3042   11.3274 C.3       5 UNK        -0.1978 
     64 N         -45.5830  -25.7663    9.6736 N.am      5 UNK        -0.4737 
     65 C         -45.4452  -27.0405    9.2738 C.2       4 UNK         0.5027 
     66 O         -44.9967  -27.9316    9.9950 O.2       4 UNK        -0.5211 
     67 CA        -45.9210  -27.4047    7.8538 C.3       4 UNK         0.0297 
     68 CB        -47.1371  -28.3381    7.9282 C.3       4 UNK        -0.1993 
     69 N         -46.2811  -26.2355    7.0485 N.am      4 UNK        -0.4486 
     70 C         -45.4014  -25.4660    6.3902 C.2       3 UNK         0.4961 
     71 O         -44.1973  -25.7136    6.3200 O.2       3 UNK        -0.5105 
     72 CA        -45.9422  -24.1885    5.7178 C.3       3 UNK         0.0299 
     73 CB        -46.1571  -24.4245    4.2149 C.3       3 UNK        -0.1972 
     74 N         -47.1843  -23.6889    6.3185 N.am      3 UNK        -0.4305 
     75 C         -47.2911  -23.2444    7.5814 C.2       2 UNK         0.5006 
     76 O         -46.3330  -23.1570    8.3492 O.2       2 UNK        -0.5106 
     77 CA        -48.6895  -22.8778    8.1129 C.3       2 UNK         0.0296 
     78 CB        -48.8569  -21.3509    8.1684 C.3       2 UNK        -0.2002 
     79 N         -49.8148  -23.4565    7.3725 N.am      2 UNK        -0.4032 
     80 C         -50.0425  -24.7633    7.1684 C.2       1 UNK         0.5000 
     81 O         -49.2767  -25.6531    7.5487 O.2       1 UNK        -0.5238 
     82 H82       -51.0120  -23.6736    2.1070 H         1 UNK         0.0889 
     83 H83       -50.3420  -22.2878    2.9715 H         1 UNK         0.0889 
     84 H84       -52.0363  -22.7313    3.1917 H         1 UNK         0.0889 
     85 H85       -52.3859  -23.7571    5.1323 H         1 UNK         0.3028 
     86 H86       -52.1487  -24.8238    7.0205 H         1 UNK         0.0864 
     87 H87       -52.1829  -26.7179    5.1821 H         1 UNK         0.0720 
     88 H88       -50.5419  -27.0289    5.6601 H         1 UNK         0.0720 
     89 H89       -49.9978  -28.5832    7.3979 H         1 UNK         0.0814 
     90 H90       -51.1731  -29.5910    6.5900 H         1 UNK         0.0814 
     91 H91       -49.4392  -29.0000    9.6723 H         1 UNK         0.1469 
     92 H92       -51.6025  -31.9238   11.9351 H         1 UNK         0.1381 
     93 H93       -53.0228  -30.6979    8.0765 H         1 UNK         0.1206 
     94 H94       -53.3984  -33.3278    9.9652 H         1 UNK         0.0813 
     95 H95       -54.4400  -32.0283    9.4362 H         1 UNK         0.0813 
     96 H96       -54.5745  -29.9461   11.1117 H         1 UNK         0.0638 
     97 H97       -53.8562  -30.0519   12.6879 H         1 UNK         0.0638 
     98 H98       -56.8067  -30.6719   12.2244 H         1 UNK         0.0568 
     99 H99       -56.6153  -28.4322   14.8040 H         1 UNK         0.3450 
    100 H100      -56.5083  -29.6258   16.0733 H         1 UNK         0.3450 
    101 H101      -55.5996  -28.0008   12.4199 H         1 UNK         0.2987 
    102 H102      -57.6123  -26.4673   10.9180 H         1 UNK         0.0766 
    103 H103      -59.2221  -25.0333   12.2035 H         1 UNK         0.0798 
    104 H104      -59.3795  -26.3026   13.4169 H         1 UNK         0.0798 
    105 H105      -59.9239  -26.5816   11.7697 H         1 UNK         0.0798 
    106 H106      -56.1013  -25.3168   12.0524 H         1 UNK         0.3198 
    107 H107      -54.6616  -24.6852   13.5224 H         1 UNK         0.0843 
    108 H108      -56.0643  -24.1995   16.2092 H         1 UNK         0.0831 
    109 H109      -56.2660  -23.2155   14.7659 H         1 UNK         0.0831 
    110 H110      -54.7036  -23.2778   15.5667 H         1 UNK         0.0831 
    111 H111      -54.0180  -25.6604   16.0926 H         1 UNK         0.3133 
    112 H112      -53.2562  -28.0319   16.4805 H         1 UNK         0.0566 
    113 H113      -51.5912  -28.8328   14.0419 H         1 UNK         0.0814 
    114 H114      -51.3856  -29.5108   15.6565 H         1 UNK         0.0814 
    115 H115      -52.8900  -29.7559   14.7881 H         1 UNK         0.0814 
    116 H116      -50.7093  -26.9741   15.4818 H         1 UNK         0.3091 
    117 H117      -50.5868  -24.3660   17.9660 H         1 UNK         0.0702 
    118 H118      -48.3529  -25.4325   18.0806 H         1 UNK         0.0785 
    119 H119      -48.9342  -26.8296   17.1791 H         1 UNK         0.0785 
    120 H120      -49.5700  -26.4862   18.7821 H         1 UNK         0.0785 
    121 H121      -49.3939  -25.1770   15.3597 H         1 UNK         0.2998 
    122 H122      -50.4771  -22.2325   13.7459 H         1 UNK         0.0697 
    123 H123      -47.6063  -22.8860   14.6070 H         1 UNK         0.0825 
    124 H124      -48.4192  -21.3407   14.8066 H         1 UNK         0.0825 
    125 H125      -48.0569  -21.9340   13.1931 H         1 UNK         0.0825 
    126 H126      -48.7589  -24.4423   13.0216 H         1 UNK         0.3029 
    127 H127      -51.2580  -26.8047   12.4238 H         1 UNK         0.0897 
    128 H128      -51.8277  -25.5000   10.3840 H         1 UNK         0.0792 
    129 H129      -50.7059  -26.7873    9.9844 H         1 UNK         0.0792 
    130 H130      -50.1289  -25.1269   10.1239 H         1 UNK         0.0792 
    131 H131      -48.6380  -26.7223   11.3649 H         1 UNK         0.3086 
    132 H132      -46.7513  -27.3033   14.2439 H         1 UNK         0.0583 
    133 H133      -46.0975  -29.4584   13.3448 H         1 UNK         0.1020 
    134 H134      -47.6780  -29.5933   14.0415 H         1 UNK         0.1020 
    135 H135      -49.3301  -31.3221   12.6016 H         1 UNK         0.0694 
    136 H136      -49.8242  -29.6599   12.8050 H         1 UNK         0.0694 
    137 H137      -45.9505  -27.5543   11.5678 H         1 UNK         0.2989 
    138 H138      -45.4653  -24.0934   10.8521 H         1 UNK         0.1055 
    139 H139      -43.5354  -24.7563   12.2401 H         1 UNK         0.0806 
    140 H140      -43.1409  -24.9035   10.5353 H         1 UNK         0.0806 
    141 H141      -43.4870  -26.3433   11.4916 H         1 UNK         0.0806 
    142 H142      -45.9534  -25.1081    8.9963 H         1 UNK         0.3061 
    143 H143      -45.1069  -27.9423    7.3631 H         1 UNK         0.0734 
    144 H144      -47.4606  -28.6520    6.9358 H         1 UNK         0.0832 
    145 H145      -46.9107  -29.2409    8.4976 H         1 UNK         0.0832 
    146 H146      -47.9752  -27.8430    8.4169 H         1 UNK         0.0832 
    147 H147      -47.2598  -25.9625    7.0630 H         1 UNK         0.3156 
    148 H148      -45.1843  -23.4111    5.8347 H         1 UNK         0.0589 
    149 H149      -46.8833  -25.2175    4.0320 H         1 UNK         0.0808 
    150 H150      -46.5114  -23.5228    3.7151 H         1 UNK         0.0808 
    151 H151      -45.2256  -24.7195    3.7299 H         1 UNK         0.0808 
    152 H152      -48.0225  -23.7737    5.7558 H         1 UNK         0.3098 
    153 H153      -48.7466  -23.2617    9.1334 H         1 UNK         0.0720 
    154 H154      -49.7934  -21.0702    8.6509 H         1 UNK         0.0791 
    155 H155      -48.8440  -20.9072    7.1720 H         1 UNK         0.0791 
    156 H156      -48.0509  -20.8892    8.7409 H         1 UNK         0.0791 
    157 H157      -50.4825  -22.8005    6.9935 H         1 UNK         0.3028 
@<TRIPOS>BOND
     1    1    2 1    
     2    1   82 1    
     3    1   83 1    
     4    1   84 1    
     5    2    3 2    
     6    2    4 am   BACKBONE|DICT|INTERRES
     7    4    5 1    
     8    4   85 1    
     9    5    6 1    
    10    5   80 1    
    11    5   86 1    
    12    6    7 1    
    13    6   87 1    
    14    6   88 1    
    15    7    8 1    
    16    8    9 1    
    17    8   89 1    
    18    8   90 1    
    19    9   10 ar   
    20    9   14 ar   
    21   10   11 ar   
    22   10   91 1    
    23   11   12 ar   
    24   11   58 1    
    25   12   13 ar   
    26   12   92 1    
    27   13   14 ar   
    28   13   15 1    
    29   14   93 1    
    30   15   16 1    
    31   15   94 1    
    32   15   95 1    
    33   16   17 1    
    34   17   18 1    
    35   17   96 1    
    36   17   97 1    
    37   18   19 1    
    38   18   22 1    
    39   18   98 1    
    40   19   20 am   BACKBONE|DICT|INTERRES
    41   19   21 2    
    42   20   99 1    
    43   20  100 1    
    44   22   23 am   BACKBONE|DICT|INTERRES
    45   22  101 1    
    46   23   24 2    
    47   23   25 1    
    48   25   26 1    
    49   25   27 1    
    50   25  102 1    
    51   26  103 1    
    52   26  104 1    
    53   26  105 1    
    54   27   28 am   BACKBONE|DICT|INTERRES
    55   27  106 1    
    56   28   29 2    
    57   28   30 1    
    58   30   31 1    
    59   30   32 1    
    60   30  107 1    
    61   31  108 1    
    62   31  109 1    
    63   31  110 1    
    64   32   33 am   BACKBONE|DICT|INTERRES
    65   32  111 1    
    66   33   34 2    
    67   33   35 1    
    68   35   36 1    
    69   35   37 1    
    70   35  112 1    
    71   36  113 1    
    72   36  114 1    
    73   36  115 1    
    74   37   38 am   BACKBONE|DICT|INTERRES
    75   37  116 1    
    76   38   39 2    
    77   38   40 1    
    78   40   41 1    
    79   40   42 1    
    80   40  117 1    
    81   41  118 1    
    82   41  119 1    
    83   41  120 1    
    84   42   43 am   BACKBONE|DICT|INTERRES
    85   42  121 1    
    86   43   44 2    
    87   43   45 1    
    88   45   46 1    
    89   45   47 1    
    90   45  122 1    
    91   46  123 1    
    92   46  124 1    
    93   46  125 1    
    94   47   48 am   BACKBONE|DICT|INTERRES
    95   47  126 1    
    96   48   49 2    
    97   48   50 1    
    98   50   51 1    
    99   50   52 1    
   100   50  127 1    
   101   51  128 1    
   102   51  129 1    
   103   51  130 1    
   104   52   53 am   BACKBONE|DICT|INTERRES
   105   52  131 1    
   106   53   54 2    
   107   53   55 1    
   108   55   56 1    
   109   55   59 1    
   110   55  132 1    
   111   56   57 1    
   112   56  133 1    
   113   56  134 1    
   114   57   58 1    
   115   58  135 1    
   116   58  136 1    
   117   59   60 am   BACKBONE|DICT|INTERRES
   118   59  137 1    
   119   60   61 2    
   120   60   62 1    
   121   62   63 1    
   122   62   64 1    
   123   62  138 1    
   124   63  139 1    
   125   63  140 1    
   126   63  141 1    
   127   64   65 am   BACKBONE|DICT|INTERRES
   128   64  142 1    
   129   65   66 2    
   130   65   67 1    
   131   67   68 1    
   132   67   69 1    
   133   67  143 1    
   134   68  144 1    
   135   68  145 1    
   136   68  146 1    
   137   69   70 am   BACKBONE|DICT|INTERRES
   138   69  147 1    
   139   70   71 2    
   140   70   72 1    
   141   72   73 1    
   142   72   74 1    
   143   72  148 1    
   144   73  149 1    
   145   73  150 1    
   146   73  151 1    
   147   74   75 am   BACKBONE|DICT|INTERRES
   148   74  152 1    
   149   75   76 2    
   150   75   77 1    
   151   77   78 1    
   152   77   79 1    
   153   77  153 1    
   154   78  154 1    
   155   78  155 1    
   156   78  156 1    
   157   79   80 am   BACKBONE|DICT|INTERRES
   158   79  157 1    
   159   80   81 2    
@<TRIPOS>SUBSTRUCTURE
     1 UNK         1 GROUP             0       ****    0 ROOT    
