@<TRIPOS>MOLECULE
3R207
157   159    1
SMALL
USER_CHARGES


@<TRIPOS>ATOM
      1 CA        -49.1685  -30.6102    2.1365 C.3       0 UNK        -0.1975 
      2 C         -48.6369  -29.8404    3.3368 C.2       0 UNK         0.4852 
      3 O         -47.4223  -29.6829    3.4675 O.2       0 UNK        -0.5216 
      4 N         -49.5398  -29.3665    4.2072 N.am      1 UNK        -0.4461 
      5 CA        -49.2663  -28.5826    5.4179 C.3       1 UNK         0.0864 
      6 C6        -48.5167  -29.3833    6.5232 C.3       14 UNK        -0.0898 
      7 S7        -49.5249  -30.7363    7.2215 S.3       14 UNK        -0.2598 
      8 C8        -49.5450  -30.3262    9.0041 C.3       14 UNK         0.0286 
      9 C9        -50.7198  -29.4405    9.4109 C.ar      14 UNK        -0.0844 
     10 C10       -50.9405  -28.2058    8.7942 C.ar      14 UNK        -0.0881 
     11 C11       -52.0282  -27.4026    9.1529 C.ar      14 UNK        -0.0643 
     12 C12       -52.8839  -27.8307   10.1729 C.ar      14 UNK        -0.0930 
     13 C13       -52.6659  -29.0540   10.8141 C.ar      14 UNK        -0.0827 
     14 C14       -51.5870  -29.8544   10.4264 C.ar      14 UNK        -0.1249 
     15 C15       -53.5943  -29.5187   11.9246 C.3       14 UNK         0.0141 
     16 S16       -54.9488  -30.5387   11.2652 S.3       14 UNK        -0.2313 
     17 C17       -55.6332  -31.2464   12.8009 C.3       14 UNK        -0.0915 
     18 CA        -57.1568  -31.0069   12.9581 C.3       13 UNK         0.0968 
     19 C         -57.6886  -31.7787   14.1981 C.2       13 UNK         0.5732 
     20 N         -58.1730  -32.9987   14.0102 N.am      13 UNK        -0.7310 
     21 O         -57.6228  -31.2992   15.3290 O.2       13 UNK        -0.5035 
     22 N         -57.4700  -29.5724   13.0071 N.am      13 UNK        -0.4233 
     23 C         -58.6928  -29.0351   13.0836 C.2       13 UNK         0.4989 
     24 O         -59.7347  -29.6896   13.0079 O.2       13 UNK        -0.4996 
     25 CA        -58.7524  -27.5080   13.3009 C.3       12 UNK         0.0216 
     26 CB        -60.1947  -26.9801   13.4264 C.3       12 UNK        -0.1964 
     27 N         -57.9896  -27.0957   14.4857 N.am      12 UNK        -0.4276 
     28 C         -56.6580  -26.9739   14.5342 C.2       12 UNK         0.5020 
     29 O         -55.9221  -27.1838   13.5663 O.2       12 UNK        -0.5489 
     30 CA        -56.0438  -26.6135   15.8900 C.3       11 UNK         0.0294 
     31 CB        -55.9099  -27.8625   16.7799 C.3       11 UNK        -0.2019 
     32 N         -54.7262  -26.0356   15.6532 N.am      11 UNK        -0.4493 
     33 C         -54.0998  -25.1468   16.4264 C.2       11 UNK         0.4932 
     34 O         -54.5436  -24.7502   17.5057 O.2       11 UNK        -0.5029 
     35 CA        -52.7515  -24.6184   15.8987 C.3       10 UNK         0.0280 
     36 CB        -52.2183  -23.4311   16.7215 C.3       10 UNK        -0.1976 
     37 N         -51.7207  -25.6570   15.8500 N.am      10 UNK        -0.4242 
     38 C         -51.6406  -26.6467   14.9511 C.2       10 UNK         0.5072 
     39 O         -52.4781  -26.8370   14.0671 O.2       10 UNK        -0.5224 
     40 CA        -50.4044  -27.5584   15.0560 C.3       9 UNK         0.0343 
     41 CB        -50.4071  -28.6830   14.0033 C.3       9 UNK        -0.2003 
     42 N         -49.1731  -26.7805   14.9115 N.am      9 UNK        -0.4272 
     43 C         -48.5487  -26.1214   15.8960 C.2       9 UNK         0.4988 
     44 O         -48.9467  -26.1048   17.0617 O.2       9 UNK        -0.5108 
     45 CA        -47.2956  -25.3206   15.5068 C.3       8 UNK         0.0248 
     46 CB        -46.1431  -26.2467   15.0819 C.3       8 UNK        -0.2001 
     47 N         -47.5859  -24.3630   14.4392 N.am      8 UNK        -0.4140 
     48 C         -48.2586  -23.2164   14.6149 C.2       8 UNK         0.5028 
     49 O         -48.6211  -22.7960   15.7141 O.2       8 UNK        -0.5428 
     50 CA        -48.5911  -22.3960   13.3557 C.3       7 UNK         0.0264 
     51 CB        -47.4583  -21.4079   13.0354 C.3       7 UNK        -0.1988 
     52 N         -48.8613  -23.2289   12.1815 N.am      7 UNK        -0.4454 
     53 C         -49.9212  -24.0419   12.0551 C.2       7 UNK         0.5027 
     54 O         -50.8266  -24.1088   12.8846 O.2       7 UNK        -0.5083 
     55 CA        -49.9791  -24.9314   10.7951 C.3       6 UNK         0.0844 
     56 C56       -50.6949  -24.1630    9.6572 C.3       14 UNK        -0.0967 
     57 S57       -50.8372  -25.0904    8.0970 S.3       14 UNK        -0.2604 
     58 C58       -52.3200  -26.1080    8.3992 C.3       14 UNK         0.0134 
     59 N         -48.6544  -25.4448   10.4176 N.am      6 UNK        -0.4116 
     60 C         -47.9036  -26.2446   11.1915 C.2       5 UNK         0.5034 
     61 O         -48.2719  -26.6919   12.2753 O.2       5 UNK        -0.5045 
     62 CA        -46.4709  -26.5411   10.7282 C.3       5 UNK         0.0224 
     63 CB        -46.4279  -27.7324    9.7617 C.3       5 UNK        -0.1978 
     64 N         -45.8581  -25.3656   10.1113 N.am      5 UNK        -0.4737 
     65 C         -45.3849  -24.3222   10.8067 C.2       4 UNK         0.5027 
     66 O         -45.3580  -24.2810   12.0365 O.2       4 UNK        -0.5211 
     67 CA        -44.8894  -23.1099    9.9981 C.3       4 UNK         0.0297 
     68 CB        -43.3996  -23.2658    9.6557 C.3       4 UNK        -0.1993 
     69 N         -45.6538  -22.8894    8.7668 N.am      4 UNK        -0.4486 
     70 C         -46.9469  -22.5382    8.7321 C.2       3 UNK         0.4961 
     71 O         -47.6196  -22.3135    9.7374 O.2       3 UNK        -0.5105 
     72 CA        -47.6185  -22.4764    7.3479 C.3       3 UNK         0.0299 
     73 CB        -47.4579  -21.0757    6.7368 C.3       3 UNK        -0.1972 
     74 N         -47.1464  -23.4884    6.3925 N.am      3 UNK        -0.4305 
     75 C         -47.1755  -24.8122    6.5997 C.2       2 UNK         0.5006 
     76 O         -47.5124  -25.3309    7.6660 O.2       2 UNK        -0.5106 
     77 CA        -46.6852  -25.7066    5.4515 C.3       2 UNK         0.0296 
     78 CB        -45.1690  -25.9335    5.5688 C.3       2 UNK        -0.2002 
     79 N         -47.3638  -27.0020    5.4979 N.am      2 UNK        -0.4032 
     80 C         -48.6131  -27.2253    5.0655 C.2       1 UNK         0.5000 
     81 O         -49.2666  -26.4017    4.4204 O.2       1 UNK        -0.5238 
     82 H82       -50.2560  -30.6818    2.1457 H         1 UNK         0.0889 
     83 H83       -48.7627  -31.6214    2.1306 H         1 UNK         0.0889 
     84 H84       -48.8689  -30.1170    1.2121 H         1 UNK         0.0889 
     85 H85       -50.5204  -29.5211    4.0190 H         1 UNK         0.3028 
     86 H86       -50.2486  -28.3204    5.8125 H         1 UNK         0.0864 
     87 H87       -47.5891  -29.8121    6.1414 H         1 UNK         0.0720 
     88 H88       -48.2285  -28.7229    7.3395 H         1 UNK         0.0720 
     89 H89       -48.6098  -29.8513    9.2982 H         1 UNK         0.0814 
     90 H90       -49.5818  -31.2674    9.5546 H         1 UNK         0.0814 
     91 H91       -50.2715  -27.8665    8.0208 H         1 UNK         0.1469 
     92 H92       -53.7294  -27.2214   10.4621 H         1 UNK         0.1381 
     93 H93       -51.4263  -30.8035   10.9193 H         1 UNK         0.1206 
     94 H94       -53.0275  -30.0971   12.6550 H         1 UNK         0.0813 
     95 H95       -54.0035  -28.6618   12.4612 H         1 UNK         0.0813 
     96 H96       -55.0989  -30.8432   13.6636 H         1 UNK         0.0638 
     97 H97       -55.4159  -32.3161   12.7838 H         1 UNK         0.0638 
     98 H98       -57.6581  -31.4074   12.0750 H         1 UNK         0.0568 
     99 H99       -58.5071  -33.5199   14.8056 H         1 UNK         0.3450 
    100 H100      -58.2189  -33.4062   13.0892 H         1 UNK         0.3450 
    101 H101      -56.6792  -28.9412   13.0876 H         1 UNK         0.2987 
    102 H102      -58.3081  -27.0435   12.4177 H         1 UNK         0.0766 
    103 H103      -60.2127  -25.8949   13.5298 H         1 UNK         0.0798 
    104 H104      -60.7095  -27.4085   14.2874 H         1 UNK         0.0798 
    105 H105      -60.7802  -27.2272   12.5397 H         1 UNK         0.0798 
    106 H106      -58.5209  -26.9531   15.3333 H         1 UNK         0.3198 
    107 H107      -56.6840  -25.8749   16.3776 H         1 UNK         0.0843 
    108 H108      -55.2746  -28.6185   16.3162 H         1 UNK         0.0831 
    109 H109      -56.8815  -28.3229   16.9638 H         1 UNK         0.0831 
    110 H110      -55.4806  -27.6145   17.7507 H         1 UNK         0.0831 
    111 H111      -54.2810  -26.3276   14.7834 H         1 UNK         0.3133 
    112 H112      -52.9216  -24.2607   14.8808 H         1 UNK         0.0566 
    113 H113      -51.3139  -23.0173   16.2752 H         1 UNK         0.0814 
    114 H114      -52.9519  -22.6252   16.7670 H         1 UNK         0.0814 
    115 H115      -51.9846  -23.7206   17.7468 H         1 UNK         0.0814 
    116 H116      -50.9778  -25.5935   16.5362 H         1 UNK         0.3091 
    117 H117      -50.4224  -28.0265   16.0424 H         1 UNK         0.0702 
    118 H118      -49.5193  -29.3097   14.0875 H         1 UNK         0.0785 
    119 H119      -50.4404  -28.2857   12.9873 H         1 UNK         0.0785 
    120 H120      -51.2747  -29.3303   14.1306 H         1 UNK         0.0785 
    121 H121      -48.8064  -26.7092   13.9624 H         1 UNK         0.2998 
    122 H122      -46.9667  -24.7647   16.3875 H         1 UNK         0.0697 
    123 H123      -46.3923  -26.8372   14.2003 H         1 UNK         0.0825 
    124 H124      -45.8915  -26.9453   15.8808 H         1 UNK         0.0825 
    125 H125      -45.2424  -25.6761   14.8541 H         1 UNK         0.0825 
    126 H126      -47.2990  -24.6161   13.5031 H         1 UNK         0.3029 
    127 H127      -49.4943  -21.8202   13.5699 H         1 UNK         0.0897 
    128 H128      -47.7127  -20.7747   12.1851 H         1 UNK         0.0792 
    129 H129      -47.2633  -20.7501   13.8834 H         1 UNK         0.0792 
    130 H130      -46.5265  -21.9233   12.8012 H         1 UNK         0.0792 
    131 H131      -48.2198  -23.1399   11.3977 H         1 UNK         0.3086 
    132 H132      -50.5904  -25.7995   11.0507 H         1 UNK         0.0583 
    133 H133      -51.6952  -23.8602    9.9736 H         1 UNK         0.1020 
    134 H134      -50.1645  -23.2356    9.4348 H         1 UNK         0.1020 
    135 H135      -53.0721  -25.5122    8.9184 H         1 UNK         0.0694 
    136 H136      -52.7536  -26.3720    7.4339 H         1 UNK         0.0694 
    137 H137      -48.3002  -25.1744    9.5053 H         1 UNK         0.2989 
    138 H138      -45.8870  -26.8104   11.6116 H         1 UNK         0.1055 
    139 H139      -46.7988  -28.6345   10.2489 H         1 UNK         0.0806 
    140 H140      -45.4106  -27.9391    9.4295 H         1 UNK         0.0806 
    141 H141      -47.0410  -27.5582    8.8801 H         1 UNK         0.0806 
    142 H142      -45.9398  -25.2890    9.1051 H         1 UNK         0.3061 
    143 H143      -45.0051  -22.2250   10.6278 H         1 UNK         0.0734 
    144 H144      -43.0117  -22.3791    9.1540 H         1 UNK         0.0832 
    145 H145      -42.8061  -23.4095   10.5599 H         1 UNK         0.0832 
    146 H146      -43.2198  -24.1255    9.0088 H         1 UNK         0.0832 
    147 H147      -45.1779  -23.0537    7.8917 H         1 UNK         0.3156 
    148 H148      -48.6844  -22.6570    7.5001 H         1 UNK         0.0589 
    149 H149      -46.4145  -20.8469    6.5164 H         1 UNK         0.0808 
    150 H150      -48.0272  -20.9773    5.8124 H         1 UNK         0.0808 
    151 H151      -47.8222  -20.3078    7.4211 H         1 UNK         0.0808 
    152 H152      -46.8318  -23.1472    5.4952 H         1 UNK         0.3098 
    153 H153      -46.9012  -25.2212    4.4973 H         1 UNK         0.0720 
    154 H154      -44.8017  -26.5727    4.7655 H         1 UNK         0.0791 
    155 H155      -44.9009  -26.4009    6.5176 H         1 UNK         0.0791 
    156 H156      -44.6243  -24.9907    5.5041 H         1 UNK         0.0791 
    157 H157      -46.8970  -27.7312    6.0150 H         1 UNK         0.3028 
@<TRIPOS>BOND
     1    1    2 1    
     2    1   82 1    
     3    1   83 1    
     4    1   84 1    
     5    2    3 2    
     6    2    4 am   BACKBONE|DICT|INTERRES
     7    4    5 1    
     8    4   85 1    
     9    5    6 1    
    10    5   80 1    
    11    5   86 1    
    12    6    7 1    
    13    6   87 1    
    14    6   88 1    
    15    7    8 1    
    16    8    9 1    
    17    8   89 1    
    18    8   90 1    
    19    9   10 ar   
    20    9   14 ar   
    21   10   11 ar   
    22   10   91 1    
    23   11   12 ar   
    24   11   58 1    
    25   12   13 ar   
    26   12   92 1    
    27   13   14 ar   
    28   13   15 1    
    29   14   93 1    
    30   15   16 1    
    31   15   94 1    
    32   15   95 1    
    33   16   17 1    
    34   17   18 1    
    35   17   96 1    
    36   17   97 1    
    37   18   19 1    
    38   18   22 1    
    39   18   98 1    
    40   19   20 am   BACKBONE|DICT|INTERRES
    41   19   21 2    
    42   20   99 1    
    43   20  100 1    
    44   22   23 am   BACKBONE|DICT|INTERRES
    45   22  101 1    
    46   23   24 2    
    47   23   25 1    
    48   25   26 1    
    49   25   27 1    
    50   25  102 1    
    51   26  103 1    
    52   26  104 1    
    53   26  105 1    
    54   27   28 am   BACKBONE|DICT|INTERRES
    55   27  106 1    
    56   28   29 2    
    57   28   30 1    
    58   30   31 1    
    59   30   32 1    
    60   30  107 1    
    61   31  108 1    
    62   31  109 1    
    63   31  110 1    
    64   32   33 am   BACKBONE|DICT|INTERRES
    65   32  111 1    
    66   33   34 2    
    67   33   35 1    
    68   35   36 1    
    69   35   37 1    
    70   35  112 1    
    71   36  113 1    
    72   36  114 1    
    73   36  115 1    
    74   37   38 am   BACKBONE|DICT|INTERRES
    75   37  116 1    
    76   38   39 2    
    77   38   40 1    
    78   40   41 1    
    79   40   42 1    
    80   40  117 1    
    81   41  118 1    
    82   41  119 1    
    83   41  120 1    
    84   42   43 am   BACKBONE|DICT|INTERRES
    85   42  121 1    
    86   43   44 2    
    87   43   45 1    
    88   45   46 1    
    89   45   47 1    
    90   45  122 1    
    91   46  123 1    
    92   46  124 1    
    93   46  125 1    
    94   47   48 am   BACKBONE|DICT|INTERRES
    95   47  126 1    
    96   48   49 2    
    97   48   50 1    
    98   50   51 1    
    99   50   52 1    
   100   50  127 1    
   101   51  128 1    
   102   51  129 1    
   103   51  130 1    
   104   52   53 am   BACKBONE|DICT|INTERRES
   105   52  131 1    
   106   53   54 2    
   107   53   55 1    
   108   55   56 1    
   109   55   59 1    
   110   55  132 1    
   111   56   57 1    
   112   56  133 1    
   113   56  134 1    
   114   57   58 1    
   115   58  135 1    
   116   58  136 1    
   117   59   60 am   BACKBONE|DICT|INTERRES
   118   59  137 1    
   119   60   61 2    
   120   60   62 1    
   121   62   63 1    
   122   62   64 1    
   123   62  138 1    
   124   63  139 1    
   125   63  140 1    
   126   63  141 1    
   127   64   65 am   BACKBONE|DICT|INTERRES
   128   64  142 1    
   129   65   66 2    
   130   65   67 1    
   131   67   68 1    
   132   67   69 1    
   133   67  143 1    
   134   68  144 1    
   135   68  145 1    
   136   68  146 1    
   137   69   70 am   BACKBONE|DICT|INTERRES
   138   69  147 1    
   139   70   71 2    
   140   70   72 1    
   141   72   73 1    
   142   72   74 1    
   143   72  148 1    
   144   73  149 1    
   145   73  150 1    
   146   73  151 1    
   147   74   75 am   BACKBONE|DICT|INTERRES
   148   74  152 1    
   149   75   76 2    
   150   75   77 1    
   151   77   78 1    
   152   77   79 1    
   153   77  153 1    
   154   78  154 1    
   155   78  155 1    
   156   78  156 1    
   157   79   80 am   BACKBONE|DICT|INTERRES
   158   79  157 1    
   159   80   81 2    
@<TRIPOS>SUBSTRUCTURE
     1 UNK         1 GROUP             0       ****    0 ROOT    
