@<TRIPOS>MOLECULE
3R207
157   159    1
SMALL
USER_CHARGES


@<TRIPOS>ATOM
      1 CA        -45.9714  -31.6627    2.8989 C.3       0 UNK        -0.1975 
      2 C         -47.0720  -31.0814    3.7748 C.2       0 UNK         0.4852 
      3 O         -47.4669  -31.7187    4.7509 O.2       0 UNK        -0.5216 
      4 N         -47.5636  -29.8849    3.4199 N.am      1 UNK        -0.4461 
      5 CA        -48.5901  -29.1062    4.1233 C.3       1 UNK         0.0864 
      6 C6        -49.9688  -29.8209    4.1859 C.3       14 UNK        -0.0898 
      7 S7        -51.3542  -28.6364    4.3120 S.3       14 UNK        -0.2598 
      8 C8        -52.5162  -29.5112    5.4097 C.3       14 UNK         0.0286 
      9 C9        -52.2670  -29.2060    6.8808 C.ar      14 UNK        -0.0844 
     10 C10       -51.3406  -29.9528    7.6112 C.ar      14 UNK        -0.0881 
     11 C11       -51.1128  -29.6955    8.9661 C.ar      14 UNK        -0.0643 
     12 C12       -51.8588  -28.6925    9.6020 C.ar      14 UNK        -0.0930 
     13 C13       -52.7846  -27.9313    8.8815 C.ar      14 UNK        -0.0827 
     14 C14       -52.9813  -28.1905    7.5218 C.ar      14 UNK        -0.1249 
     15 C15       -53.5610  -26.8121    9.5585 C.3       14 UNK         0.0141 
     16 S16       -55.2926  -27.2762    9.8607 S.3       14 UNK        -0.2313 
     17 C17       -55.1737  -28.2625   11.3926 C.3       14 UNK        -0.0915 
     18 CA        -56.1173  -27.7116   12.4978 C.3       13 UNK         0.0968 
     19 C         -56.3088  -28.7050   13.6815 C.2       13 UNK         0.5732 
     20 N         -56.3881  -28.2565   14.9300 N.am      13 UNK        -0.7310 
     21 O         -56.4184  -29.9102   13.4686 O.2       13 UNK        -0.5035 
     22 N         -55.6944  -26.3780   12.9487 N.am      13 UNK        -0.4233 
     23 C         -56.4423  -25.2689   12.9182 C.2       13 UNK         0.4989 
     24 O         -57.5682  -25.2161   12.4189 O.2       13 UNK        -0.4996 
     25 CA        -55.8327  -24.0010   13.5569 C.3       12 UNK         0.0216 
     26 CB        -56.9050  -22.9773   13.9871 C.3       12 UNK        -0.1964 
     27 N         -54.9149  -24.2759   14.6702 N.am      12 UNK        -0.4276 
     28 C         -55.1785  -24.9521   15.7970 C.2       12 UNK         0.5020 
     29 O         -56.2673  -25.4650   16.0664 O.2       12 UNK        -0.5489 
     30 CA        -53.9922  -25.1401   16.7583 C.3       11 UNK         0.0294 
     31 CB        -54.4061  -24.8480   18.2109 C.3       11 UNK        -0.2019 
     32 N         -53.3839  -26.4740   16.6966 N.am      11 UNK        -0.4493 
     33 C         -53.0719  -27.1842   15.6024 C.2       11 UNK         0.4932 
     34 O         -53.3283  -26.8522   14.4440 O.2       11 UNK        -0.5029 
     35 CA        -52.2459  -28.4470   15.8575 C.3       10 UNK         0.0280 
     36 CB        -52.4469  -29.5109   14.7617 C.3       10 UNK        -0.1976 
     37 N         -50.8563  -28.0106   15.8595 N.am      10 UNK        -0.4242 
     38 C         -50.1183  -27.7672   16.9476 C.2       10 UNK         0.5072 
     39 O         -50.4691  -28.0483   18.0947 O.2       10 UNK        -0.5224 
     40 CA        -48.7757  -27.0521   16.7162 C.3       9 UNK         0.0343 
     41 CB        -47.7688  -27.9790   16.0151 C.3       9 UNK        -0.2003 
     42 N         -48.9169  -25.8081   15.9515 N.am      9 UNK        -0.4272 
     43 C         -49.5791  -24.7173   16.3714 C.2       9 UNK         0.4988 
     44 O         -50.1416  -24.6307   17.4630 O.2       9 UNK        -0.5108 
     45 CA        -49.6196  -23.5146   15.4153 C.3       8 UNK         0.0248 
     46 CB        -48.2893  -22.7440   15.4388 C.3       8 UNK        -0.2001 
     47 N         -49.9239  -23.9401   14.0509 N.am      8 UNK        -0.4140 
     48 C         -51.1632  -24.1453   13.5854 C.2       8 UNK         0.5028 
     49 O         -52.1836  -23.8269   14.1974 O.2       8 UNK        -0.5428 
     50 CA        -51.3089  -24.8156   12.2070 C.3       7 UNK         0.0264 
     51 CB        -51.6884  -23.7813   11.1366 C.3       7 UNK        -0.1988 
     52 N         -50.1227  -25.5634   11.7730 N.am      7 UNK        -0.4454 
     53 C         -49.7059  -26.7056   12.3415 C.2       7 UNK         0.5027 
     54 O         -50.2854  -27.2426   13.2804 O.2       7 UNK        -0.5083 
     55 CA        -48.3838  -27.3189   11.8367 C.3       6 UNK         0.0844 
     56 C56       -48.5984  -28.3198   10.6761 C.3       14 UNK        -0.0967 
     57 S57       -49.4050  -29.8565   11.2457 S.3       14 UNK        -0.2604 
     58 C58       -50.0578  -30.5393    9.6850 C.3       14 UNK         0.0134 
     59 N         -47.4048  -26.2843   11.5041 N.am      6 UNK        -0.4116 
     60 C         -46.8391  -25.4688   12.4061 C.2       5 UNK         0.5034 
     61 O         -47.0710  -25.5200   13.6148 O.2       5 UNK        -0.5045 
     62 CA        -45.9160  -24.3713   11.8555 C.3       5 UNK         0.0224 
     63 CB        -44.5648  -24.9600   11.4188 C.3       5 UNK        -0.1978 
     64 N         -46.5297  -23.6567   10.7332 N.am      5 UNK        -0.4737 
     65 C         -47.5989  -22.8540   10.8439 C.2       4 UNK         0.5027 
     66 O         -48.1448  -22.5837   11.9114 O.2       4 UNK        -0.5211 
     67 CA        -48.2159  -22.3568    9.5353 C.3       4 UNK         0.0297 
     68 CB        -47.2489  -21.4760    8.7249 C.3       4 UNK        -0.1993 
     69 N         -48.6053  -23.5340    8.7703 N.am      4 UNK        -0.4486 
     70 C         -49.7099  -23.6944    8.0425 C.2       3 UNK         0.4961 
     71 O         -50.5148  -22.7909    7.8132 O.2       3 UNK        -0.5105 
     72 CA        -49.9574  -25.1227    7.5079 C.3       3 UNK         0.0299 
     73 CB        -51.1399  -25.1856    6.5246 C.3       3 UNK        -0.1972 
     74 N         -48.7839  -25.7386    6.8747 N.am      3 UNK        -0.4305 
     75 C         -47.6737  -26.1844    7.4834 C.2       2 UNK         0.5006 
     76 O         -47.4580  -26.0392    8.6903 O.2       2 UNK        -0.5106 
     77 CA        -46.6198  -26.8762    6.5940 C.3       2 UNK         0.0296 
     78 CB        -45.6768  -27.7938    7.4025 C.3       2 UNK        -0.2002 
     79 N         -47.2031  -27.5906    5.4475 N.am      2 UNK        -0.4032 
     80 C         -48.0703  -28.6161    5.4928 C.2       1 UNK         0.5000 
     81 O         -48.4362  -29.1597    6.5355 O.2       1 UNK        -0.5238 
     82 H82       -45.0683  -31.8213    3.4878 H         1 UNK         0.0889 
     83 H83       -45.7213  -31.0066    2.0653 H         1 UNK         0.0889 
     84 H84       -46.2851  -32.6233    2.4910 H         1 UNK         0.0889 
     85 H85       -47.1785  -29.4344    2.6008 H         1 UNK         0.3028 
     86 H86       -48.7246  -28.2151    3.5072 H         1 UNK         0.0864 
     87 H87       -50.1310  -30.3891    3.2688 H         1 UNK         0.0720 
     88 H88       -50.0030  -30.5545    4.9913 H         1 UNK         0.0720 
     89 H89       -52.4642  -30.5860    5.2295 H         1 UNK         0.0814 
     90 H90       -53.5314  -29.2144    5.1422 H         1 UNK         0.0814 
     91 H91       -50.7783  -30.7340    7.1197 H         1 UNK         0.1469 
     92 H92       -51.7158  -28.4902   10.6540 H         1 UNK         0.1381 
     93 H93       -53.6983  -27.6032    6.9644 H         1 UNK         0.1206 
     94 H94       -53.5412  -25.9268    8.9215 H         1 UNK         0.0813 
     95 H95       -53.0912  -26.5224   10.4969 H         1 UNK         0.0813 
     96 H96       -54.1432  -28.2920   11.7511 H         1 UNK         0.0638 
     97 H97       -55.4344  -29.2884   11.1278 H         1 UNK         0.0638 
     98 H98       -57.1133  -27.6435   12.0575 H         1 UNK         0.0568 
     99 H99       -56.5321  -28.9176   15.6755 H         1 UNK         0.3450 
    100 H100      -56.3411  -27.2653   15.1400 H         1 UNK         0.3450 
    101 H101      -54.7999  -26.3601   13.4356 H         1 UNK         0.2987 
    102 H102      -55.2265  -23.5378   12.7771 H         1 UNK         0.0766 
    103 H103      -56.4507  -22.0817   14.4109 H         1 UNK         0.0798 
    104 H104      -57.5834  -23.3943   14.7323 H         1 UNK         0.0798 
    105 H105      -57.5099  -22.6594   13.1370 H         1 UNK         0.0798 
    106 H106      -53.9414  -24.0051   14.5122 H         1 UNK         0.3198 
    107 H107      -53.2134  -24.4231   16.4939 H         1 UNK         0.0843 
    108 H108      -55.1283  -25.5777   18.5795 H         1 UNK         0.0831 
    109 H109      -54.8676  -23.8630   18.2940 H         1 UNK         0.0831 
    110 H110      -53.5452  -24.8576   18.8797 H         1 UNK         0.0831 
    111 H111      -53.0877  -26.8533   17.5846 H         1 UNK         0.3133 
    112 H112      -52.5291  -28.8812   16.8186 H         1 UNK         0.0566 
    113 H113      -51.8441  -30.3973   14.9578 H         1 UNK         0.0814 
    114 H114      -53.4894  -29.8276   14.7153 H         1 UNK         0.0814 
    115 H115      -52.1755  -29.1385   13.7727 H         1 UNK         0.0814 
    116 H116      -50.5150  -27.6941   14.9501 H         1 UNK         0.3091 
    117 H117      -48.3669  -26.7907   17.6944 H         1 UNK         0.0702 
    118 H118      -46.7977  -27.4964   15.9019 H         1 UNK         0.0785 
    119 H119      -48.1118  -28.2745   15.0235 H         1 UNK         0.0785 
    120 H120      -47.6130  -28.8918   16.5915 H         1 UNK         0.0785 
    121 H121      -48.4368  -25.7699   15.0581 H         1 UNK         0.2998 
    122 H122      -50.4021  -22.8356   15.7612 H         1 UNK         0.0697 
    123 H123      -47.4505  -23.3617   15.1181 H         1 UNK         0.0825 
    124 H124      -48.0649  -22.3867   16.4446 H         1 UNK         0.0825 
    125 H125      -48.3276  -21.8722   14.7852 H         1 UNK         0.0825 
    126 H126      -49.1369  -24.1530   13.4530 H         1 UNK         0.3029 
    127 H127      -52.1322  -25.5257   12.3052 H         1 UNK         0.0897 
    128 H128      -51.8735  -24.2518   10.1714 H         1 UNK         0.0792 
    129 H129      -50.9069  -23.0327   11.0048 H         1 UNK         0.0792 
    130 H130      -52.6004  -23.2511   11.4148 H         1 UNK         0.0792 
    131 H131      -49.5705  -25.1604   11.0321 H         1 UNK         0.3086 
    132 H132      -47.9560  -27.8802   12.6700 H         1 UNK         0.0583 
    133 H133      -49.1694  -27.8640    9.8654 H         1 UNK         0.1020 
    134 H134      -47.6379  -28.5991   10.2398 H         1 UNK         0.1020 
    135 H135      -49.2123  -30.7082    9.0155 H         1 UNK         0.0694 
    136 H136      -50.4876  -31.5194    9.8946 H         1 UNK         0.0694 
    137 H137      -47.1962  -26.1650   10.5157 H         1 UNK         0.2989 
    138 H138      -45.7359  -23.6555   12.6612 H         1 UNK         0.1055 
    139 H139      -44.0895  -25.4964   12.2414 H         1 UNK         0.0806 
    140 H140      -43.8750  -24.1763   11.1050 H         1 UNK         0.0806 
    141 H141      -44.6731  -25.6622   10.5909 H         1 UNK         0.0806 
    142 H142      -46.1317  -23.8223    9.8199 H         1 UNK         0.3061 
    143 H143      -49.1012  -21.7678    9.7852 H         1 UNK         0.0734 
    144 H144      -47.7355  -21.0812    7.8329 H         1 UNK         0.0832 
    145 H145      -46.9128  -20.6223    9.3148 H         1 UNK         0.0832 
    146 H146      -46.3625  -22.0231    8.4030 H         1 UNK         0.0832 
    147 H147      -48.0277  -24.3647    8.8882 H         1 UNK         0.3156 
    148 H148      -50.2227  -25.7366    8.3715 H         1 UNK         0.0589 
    149 H149      -50.9605  -24.5779    5.6370 H         1 UNK         0.0808 
    150 H150      -51.3291  -26.2083    6.1992 H         1 UNK         0.0808 
    151 H151      -52.0579  -24.8242    6.9898 H         1 UNK         0.0808 
    152 H152      -48.8467  -25.8658    5.8758 H         1 UNK         0.3098 
    153 H153      -46.0124  -26.0730    6.1747 H         1 UNK         0.0720 
    154 H154      -44.9359  -28.2676    6.7588 H         1 UNK         0.0791 
    155 H155      -46.2239  -28.5821    7.9206 H         1 UNK         0.0791 
    156 H156      -45.1321  -27.2278    8.1592 H         1 UNK         0.0791 
    157 H157      -46.9403  -27.2341    4.5386 H         1 UNK         0.3028 
@<TRIPOS>BOND
     1    1    2 1    
     2    1   82 1    
     3    1   83 1    
     4    1   84 1    
     5    2    3 2    
     6    2    4 am   BACKBONE|DICT|INTERRES
     7    4    5 1    
     8    4   85 1    
     9    5    6 1    
    10    5   80 1    
    11    5   86 1    
    12    6    7 1    
    13    6   87 1    
    14    6   88 1    
    15    7    8 1    
    16    8    9 1    
    17    8   89 1    
    18    8   90 1    
    19    9   10 ar   
    20    9   14 ar   
    21   10   11 ar   
    22   10   91 1    
    23   11   12 ar   
    24   11   58 1    
    25   12   13 ar   
    26   12   92 1    
    27   13   14 ar   
    28   13   15 1    
    29   14   93 1    
    30   15   16 1    
    31   15   94 1    
    32   15   95 1    
    33   16   17 1    
    34   17   18 1    
    35   17   96 1    
    36   17   97 1    
    37   18   19 1    
    38   18   22 1    
    39   18   98 1    
    40   19   20 am   BACKBONE|DICT|INTERRES
    41   19   21 2    
    42   20   99 1    
    43   20  100 1    
    44   22   23 am   BACKBONE|DICT|INTERRES
    45   22  101 1    
    46   23   24 2    
    47   23   25 1    
    48   25   26 1    
    49   25   27 1    
    50   25  102 1    
    51   26  103 1    
    52   26  104 1    
    53   26  105 1    
    54   27   28 am   BACKBONE|DICT|INTERRES
    55   27  106 1    
    56   28   29 2    
    57   28   30 1    
    58   30   31 1    
    59   30   32 1    
    60   30  107 1    
    61   31  108 1    
    62   31  109 1    
    63   31  110 1    
    64   32   33 am   BACKBONE|DICT|INTERRES
    65   32  111 1    
    66   33   34 2    
    67   33   35 1    
    68   35   36 1    
    69   35   37 1    
    70   35  112 1    
    71   36  113 1    
    72   36  114 1    
    73   36  115 1    
    74   37   38 am   BACKBONE|DICT|INTERRES
    75   37  116 1    
    76   38   39 2    
    77   38   40 1    
    78   40   41 1    
    79   40   42 1    
    80   40  117 1    
    81   41  118 1    
    82   41  119 1    
    83   41  120 1    
    84   42   43 am   BACKBONE|DICT|INTERRES
    85   42  121 1    
    86   43   44 2    
    87   43   45 1    
    88   45   46 1    
    89   45   47 1    
    90   45  122 1    
    91   46  123 1    
    92   46  124 1    
    93   46  125 1    
    94   47   48 am   BACKBONE|DICT|INTERRES
    95   47  126 1    
    96   48   49 2    
    97   48   50 1    
    98   50   51 1    
    99   50   52 1    
   100   50  127 1    
   101   51  128 1    
   102   51  129 1    
   103   51  130 1    
   104   52   53 am   BACKBONE|DICT|INTERRES
   105   52  131 1    
   106   53   54 2    
   107   53   55 1    
   108   55   56 1    
   109   55   59 1    
   110   55  132 1    
   111   56   57 1    
   112   56  133 1    
   113   56  134 1    
   114   57   58 1    
   115   58  135 1    
   116   58  136 1    
   117   59   60 am   BACKBONE|DICT|INTERRES
   118   59  137 1    
   119   60   61 2    
   120   60   62 1    
   121   62   63 1    
   122   62   64 1    
   123   62  138 1    
   124   63  139 1    
   125   63  140 1    
   126   63  141 1    
   127   64   65 am   BACKBONE|DICT|INTERRES
   128   64  142 1    
   129   65   66 2    
   130   65   67 1    
   131   67   68 1    
   132   67   69 1    
   133   67  143 1    
   134   68  144 1    
   135   68  145 1    
   136   68  146 1    
   137   69   70 am   BACKBONE|DICT|INTERRES
   138   69  147 1    
   139   70   71 2    
   140   70   72 1    
   141   72   73 1    
   142   72   74 1    
   143   72  148 1    
   144   73  149 1    
   145   73  150 1    
   146   73  151 1    
   147   74   75 am   BACKBONE|DICT|INTERRES
   148   74  152 1    
   149   75   76 2    
   150   75   77 1    
   151   77   78 1    
   152   77   79 1    
   153   77  153 1    
   154   78  154 1    
   155   78  155 1    
   156   78  156 1    
   157   79   80 am   BACKBONE|DICT|INTERRES
   158   79  157 1    
   159   80   81 2    
@<TRIPOS>SUBSTRUCTURE
     1 UNK         1 GROUP             0       ****    0 ROOT    
