@<TRIPOS>MOLECULE
3R207
157   159    1
SMALL
USER_CHARGES


@<TRIPOS>ATOM
      1 CA        -47.4136  -28.3166    8.1068 C.3       0 UNK        -0.1975 
      2 C         -47.9722  -28.9134    6.8286 C.2       0 UNK         0.4852 
      3 O         -47.2363  -29.0686    5.8518 O.2       0 UNK        -0.5216 
      4 N         -49.2691  -29.2445    6.8172 N.am      1 UNK        -0.4461 
      5 CA        -49.9726  -29.8453    5.6798 C.3       1 UNK         0.0864 
      6 C6        -51.2423  -30.6174    6.1183 C.3       14 UNK        -0.0898 
      7 S7        -50.8529  -31.9731    7.2788 S.3       14 UNK        -0.2598 
      8 C8        -51.8467  -31.5333    8.7400 C.3       14 UNK         0.0286 
      9 C9        -51.3258  -30.2910    9.4494 C.ar      14 UNK        -0.0844 
     10 C10       -50.2585  -30.3857   10.3485 C.ar      14 UNK        -0.0881 
     11 C11       -49.8159  -29.2555   11.0419 C.ar      14 UNK        -0.0643 
     12 C12       -50.4349  -28.0247   10.8110 C.ar      14 UNK        -0.0930 
     13 C13       -51.5127  -27.9125    9.9221 C.ar      14 UNK        -0.0827 
     14 C14       -51.9451  -29.0547    9.2438 C.ar      14 UNK        -0.1249 
     15 C15       -52.2564  -26.5972    9.6799 C.3       14 UNK         0.0141 
     16 S16       -51.9588  -25.3166   10.9430 S.3       14 UNK        -0.2313 
     17 C17       -53.4614  -24.2918   10.8531 C.3       14 UNK        -0.0915 
     18 CA        -54.3502  -24.4981   12.1134 C.3       13 UNK         0.0968 
     19 C         -55.4769  -23.4310   12.2696 C.2       13 UNK         0.5732 
     20 N         -56.6040  -23.7484   12.8992 N.am      13 UNK        -0.7310 
     21 O         -55.3208  -22.2875   11.8478 O.2       13 UNK        -0.5035 
     22 N         -54.8081  -25.8874   12.2673 N.am      13 UNK        -0.4233 
     23 C         -55.6817  -26.5233   11.4714 C.2       13 UNK         0.4989 
     24 O         -56.1431  -26.0474   10.4336 O.2       13 UNK        -0.4996 
     25 CA        -56.1455  -27.9268   11.9082 C.3       12 UNK         0.0216 
     26 CB        -55.3956  -29.0021   11.1026 C.3       12 UNK        -0.1964 
     27 N         -55.9764  -28.1975   13.3394 N.am      12 UNK        -0.4276 
     28 C         -56.4972  -27.4870   14.3524 C.2       12 UNK         0.5020 
     29 O         -57.2873  -26.5537   14.2014 O.2       12 UNK        -0.5489 
     30 CA        -55.9965  -27.8360   15.7679 C.3       11 UNK         0.0294 
     31 CB        -57.0195  -28.7208   16.4979 C.3       11 UNK        -0.2019 
     32 N         -54.6839  -28.4975   15.7773 N.am      11 UNK        -0.4493 
     33 C         -53.5405  -27.9443   15.3475 C.2       11 UNK         0.4932 
     34 O         -53.4488  -26.7901   14.9255 O.2       11 UNK        -0.5029 
     35 CA        -52.3292  -28.8787   15.2693 C.3       10 UNK         0.0280 
     36 CB        -51.9767  -29.1568   13.8016 C.3       10 UNK        -0.1976 
     37 N         -51.1675  -28.3074   15.9471 N.am      10 UNK        -0.4242 
     38 C         -50.9126  -28.4733   17.2520 C.2       10 UNK         0.5072 
     39 O         -51.6624  -29.0697   18.0267 O.2       10 UNK        -0.5224 
     40 CA        -49.5900  -27.9053   17.7830 C.3       9 UNK         0.0343 
     41 CB        -48.3939  -28.7067   17.2393 C.3       9 UNK        -0.2003 
     42 N         -49.4371  -26.4980   17.4224 N.am      9 UNK        -0.4272 
     43 C         -49.6459  -25.4683   18.2559 C.2       9 UNK         0.4988 
     44 O         -49.9869  -25.5955   19.4326 O.2       9 UNK        -0.5108 
     45 CA        -49.4189  -24.0488   17.7005 C.3       8 UNK         0.0248 
     46 CB        -48.0343  -23.5258   18.1175 C.3       8 UNK        -0.2001 
     47 N         -49.5388  -23.9779   16.2436 N.am      8 UNK        -0.4140 
     48 C         -50.6946  -24.0806   15.5735 C.2       8 UNK         0.5028 
     49 O         -51.7965  -24.1094   16.1209 O.2       8 UNK        -0.5428 
     50 CA        -50.6108  -24.1739   14.0392 C.3       7 UNK         0.0264 
     51 CB        -50.9622  -22.8150   13.4106 C.3       7 UNK        -0.1988 
     52 N         -49.3082  -24.6169   13.5201 N.am      7 UNK        -0.4454 
     53 C         -48.7407  -25.8134   13.7439 C.2       7 UNK         0.5027 
     54 O         -49.2659  -26.6905   14.4336 O.2       7 UNK        -0.5083 
     55 CA        -47.3315  -26.0226   13.1523 C.3       6 UNK         0.0844 
     56 C56       -46.8280  -27.4967   13.1215 C.3       14 UNK        -0.0967 
     57 S57       -47.2339  -28.4280   11.5997 S.3       14 UNK        -0.2604 
     58 C58       -48.7138  -29.3612   12.0878 C.3       14 UNK         0.0134 
     59 N         -47.1981  -25.3396   11.8627 N.am      6 UNK        -0.4116 
     60 C         -46.1325  -24.6403   11.4591 C.2       5 UNK         0.5034 
     61 O         -45.1557  -24.4061   12.1719 O.2       5 UNK        -0.5045 
     62 CA        -46.1375  -24.1253   10.0076 C.3       5 UNK         0.0224 
     63 CB        -45.1606  -24.9454    9.1492 C.3       5 UNK        -0.1978 
     64 N         -47.4568  -24.1370    9.3641 N.am      5 UNK        -0.4737 
     65 C         -48.4466  -23.2745    9.6241 C.2       4 UNK         0.5027 
     66 O         -48.3762  -22.4160   10.5043 O.2       4 UNK        -0.5211 
     67 CA        -49.7105  -23.3879    8.7462 C.3       4 UNK         0.0297 
     68 CB        -50.7123  -22.2449    8.9950 C.3       4 UNK        -0.1993 
     69 N         -49.4088  -23.4495    7.3128 N.am      4 UNK        -0.4486 
     70 C         -49.0125  -24.5445    6.6550 C.2       3 UNK         0.4961 
     71 O         -48.8032  -25.6310    7.1985 O.2       3 UNK        -0.5105 
     72 CA        -48.7675  -24.3878    5.1527 C.3       3 UNK         0.0299 
     73 CB        -47.3808  -23.7758    4.8846 C.3       3 UNK        -0.1972 
     74 N         -48.8542  -25.7022    4.5239 N.am      3 UNK        -0.4305 
     75 C         -49.2513  -25.9393    3.2684 C.2       2 UNK         0.5006 
     76 O         -49.5856  -25.0516    2.4821 O.2       2 UNK        -0.5106 
     77 CA        -49.2665  -27.4010    2.7842 C.3       2 UNK         0.0296 
     78 CB        -48.0860  -27.6597    1.8328 C.3       2 UNK        -0.2002 
     79 N         -49.2192  -28.3825    3.8704 N.am      2 UNK        -0.4032 
     80 C         -50.2683  -28.7809    4.6011 C.2       1 UNK         0.5000 
     81 O         -51.4094  -28.3366    4.4578 O.2       1 UNK        -0.5238 
     82 H82       -48.2092  -27.9789    8.7707 H         1 UNK         0.0889 
     83 H83       -46.7867  -27.4581    7.8721 H         1 UNK         0.0889 
     84 H84       -46.8082  -29.0529    8.6339 H         1 UNK         0.0889 
     85 H85       -49.8290  -29.0985    7.6471 H         1 UNK         0.3028 
     86 H86       -49.3054  -30.5786    5.2202 H         1 UNK         0.0864 
     87 H87       -51.7309  -31.0624    5.2495 H         1 UNK         0.0720 
     88 H88       -51.9755  -29.9418    6.5593 H         1 UNK         0.0720 
     89 H89       -51.8388  -32.3751    9.4340 H         1 UNK         0.0814 
     90 H90       -52.8884  -31.4002    8.4434 H         1 UNK         0.0814 
     91 H91       -49.7901  -31.3445   10.5242 H         1 UNK         0.1469 
     92 H92       -50.0795  -27.1654   11.3586 H         1 UNK         0.1381 
     93 H93       -52.7848  -28.9831    8.5659 H         1 UNK         0.1206 
     94 H94       -53.3263  -26.8034    9.6372 H         1 UNK         0.0813 
     95 H95       -51.9740  -26.2016    8.7034 H         1 UNK         0.0813 
     96 H96       -53.1325  -23.2543   10.7817 H         1 UNK         0.0638 
     97 H97       -54.0121  -24.4987    9.9349 H         1 UNK         0.0638 
     98 H98       -53.7141  -24.3205   12.9810 H         1 UNK         0.0568 
     99 H99       -56.7511  -24.6804   13.2676 H         1 UNK         0.3450 
    100 H100      -57.3205  -23.0483   13.0051 H         1 UNK         0.3450 
    101 H101      -54.4759  -26.3532   13.1034 H         1 UNK         0.2987 
    102 H102      -57.2113  -28.0021   11.6839 H         1 UNK         0.0766 
    103 H103      -55.7545  -30.0036   11.3402 H         1 UNK         0.0798 
    104 H104      -54.3215  -28.9737   11.2918 H         1 UNK         0.0798 
    105 H105      -55.5373  -28.8562   10.0307 H         1 UNK         0.0798 
    106 H106      -55.3502  -28.9510   13.5803 H         1 UNK         0.3198 
    107 H107      -55.8987  -26.8967   16.3167 H         1 UNK         0.0843 
    108 H108      -57.1469  -29.6853   16.0046 H         1 UNK         0.0831 
    109 H109      -57.9983  -28.2396   16.5286 H         1 UNK         0.0831 
    110 H110      -56.7207  -28.9062   17.5298 H         1 UNK         0.0831 
    111 H111      -54.6629  -29.4525   16.1078 H         1 UNK         0.3133 
    112 H112      -52.5823  -29.8351   15.7326 H         1 UNK         0.0566 
    113 H113      -51.1734  -29.8881   13.7219 H         1 UNK         0.0814 
    114 H114      -52.8298  -29.5608   13.2561 H         1 UNK         0.0814 
    115 H115      -51.6638  -28.2463   13.2894 H         1 UNK         0.0814 
    116 H116      -50.5281  -27.7592   15.3774 H         1 UNK         0.3091 
    117 H117      -49.5926  -28.0173   18.8695 H         1 UNK         0.0702 
    118 H118      -48.4804  -29.7616   17.5031 H         1 UNK         0.0785 
    119 H119      -48.3200  -28.6480   16.1531 H         1 UNK         0.0785 
    120 H120      -47.4545  -28.3448   17.6573 H         1 UNK         0.0785 
    121 H121      -49.2171  -26.3074   16.4522 H         1 UNK         0.2998 
    122 H122      -50.1772  -23.3973   18.1404 H         1 UNK         0.0697 
    123 H123      -47.2292  -24.1346   17.7040 H         1 UNK         0.0825 
    124 H124      -47.9248  -23.5364   19.2030 H         1 UNK         0.0825 
    125 H125      -47.8822  -22.4973   17.7895 H         1 UNK         0.0825 
    126 H126      -48.6818  -23.9152   15.7147 H         1 UNK         0.3029 
    127 H127      -51.3565  -24.9106   13.7343 H         1 UNK         0.0897 
    128 H128      -50.9572  -22.8654   12.3230 H         1 UNK         0.0792 
    129 H129      -50.2584  -22.0375   13.7100 H         1 UNK         0.0792 
    130 H130      -51.9583  -22.4895   13.7138 H         1 UNK         0.0792 
    131 H131      -48.8022  -23.9481   12.9554 H         1 UNK         0.3086 
    132 H132      -46.6950  -25.5039   13.8723 H         1 UNK         0.0583 
    133 H133      -45.7387  -27.4809   13.1793 H         1 UNK         0.1020 
    134 H134      -47.1392  -28.0563   14.0050 H         1 UNK         0.1020 
    135 H135      -48.4344  -30.4016   12.2592 H         1 UNK         0.0694 
    136 H136      -49.0943  -28.9860   13.0372 H         1 UNK         0.0694 
    137 H137      -47.9422  -25.4950   11.1984 H         1 UNK         0.2989 
    138 H138      -45.7844  -23.0918   10.0341 H         1 UNK         0.1055 
    139 H139      -44.1448  -24.8746    9.5408 H         1 UNK         0.0806 
    140 H140      -45.1346  -24.5884    8.1194 H         1 UNK         0.0806 
    141 H141      -45.4272  -26.0023    9.1355 H         1 UNK         0.0806 
    142 H142      -47.6179  -24.8227    8.6326 H         1 UNK         0.3061 
    143 H143      -50.1952  -24.3229    9.0242 H         1 UNK         0.0734 
    144 H144      -51.6301  -22.3911    8.4253 H         1 UNK         0.0832 
    145 H145      -50.9954  -22.1921   10.0461 H         1 UNK         0.0832 
    146 H146      -50.2946  -21.2751    8.7226 H         1 UNK         0.0832 
    147 H147      -49.5053  -22.5853    6.7984 H         1 UNK         0.3156 
    148 H148      -49.5434  -23.7349    4.7469 H         1 UNK         0.0589 
    149 H149      -46.5815  -24.4022    5.2833 H         1 UNK         0.0808 
    150 H150      -47.2036  -23.6481    3.8166 H         1 UNK         0.0808 
    151 H151      -47.2866  -22.7924    5.3467 H         1 UNK         0.0808 
    152 H152      -48.6510  -26.4769    5.1428 H         1 UNK         0.3098 
    153 H153      -50.1923  -27.5470    2.2234 H         1 UNK         0.0720 
    154 H154      -48.1211  -28.6690    1.4220 H         1 UNK         0.0791 
    155 H155      -47.1267  -27.5347    2.3369 H         1 UNK         0.0791 
    156 H156      -48.1038  -26.9681    0.9892 H         1 UNK         0.0791 
    157 H157      -48.3061  -28.7415    4.1319 H         1 UNK         0.3028 
@<TRIPOS>BOND
     1    1    2 1    
     2    1   82 1    
     3    1   83 1    
     4    1   84 1    
     5    2    3 2    
     6    2    4 am   BACKBONE|DICT|INTERRES
     7    4    5 1    
     8    4   85 1    
     9    5    6 1    
    10    5   80 1    
    11    5   86 1    
    12    6    7 1    
    13    6   87 1    
    14    6   88 1    
    15    7    8 1    
    16    8    9 1    
    17    8   89 1    
    18    8   90 1    
    19    9   10 ar   
    20    9   14 ar   
    21   10   11 ar   
    22   10   91 1    
    23   11   12 ar   
    24   11   58 1    
    25   12   13 ar   
    26   12   92 1    
    27   13   14 ar   
    28   13   15 1    
    29   14   93 1    
    30   15   16 1    
    31   15   94 1    
    32   15   95 1    
    33   16   17 1    
    34   17   18 1    
    35   17   96 1    
    36   17   97 1    
    37   18   19 1    
    38   18   22 1    
    39   18   98 1    
    40   19   20 am   BACKBONE|DICT|INTERRES
    41   19   21 2    
    42   20   99 1    
    43   20  100 1    
    44   22   23 am   BACKBONE|DICT|INTERRES
    45   22  101 1    
    46   23   24 2    
    47   23   25 1    
    48   25   26 1    
    49   25   27 1    
    50   25  102 1    
    51   26  103 1    
    52   26  104 1    
    53   26  105 1    
    54   27   28 am   BACKBONE|DICT|INTERRES
    55   27  106 1    
    56   28   29 2    
    57   28   30 1    
    58   30   31 1    
    59   30   32 1    
    60   30  107 1    
    61   31  108 1    
    62   31  109 1    
    63   31  110 1    
    64   32   33 am   BACKBONE|DICT|INTERRES
    65   32  111 1    
    66   33   34 2    
    67   33   35 1    
    68   35   36 1    
    69   35   37 1    
    70   35  112 1    
    71   36  113 1    
    72   36  114 1    
    73   36  115 1    
    74   37   38 am   BACKBONE|DICT|INTERRES
    75   37  116 1    
    76   38   39 2    
    77   38   40 1    
    78   40   41 1    
    79   40   42 1    
    80   40  117 1    
    81   41  118 1    
    82   41  119 1    
    83   41  120 1    
    84   42   43 am   BACKBONE|DICT|INTERRES
    85   42  121 1    
    86   43   44 2    
    87   43   45 1    
    88   45   46 1    
    89   45   47 1    
    90   45  122 1    
    91   46  123 1    
    92   46  124 1    
    93   46  125 1    
    94   47   48 am   BACKBONE|DICT|INTERRES
    95   47  126 1    
    96   48   49 2    
    97   48   50 1    
    98   50   51 1    
    99   50   52 1    
   100   50  127 1    
   101   51  128 1    
   102   51  129 1    
   103   51  130 1    
   104   52   53 am   BACKBONE|DICT|INTERRES
   105   52  131 1    
   106   53   54 2    
   107   53   55 1    
   108   55   56 1    
   109   55   59 1    
   110   55  132 1    
   111   56   57 1    
   112   56  133 1    
   113   56  134 1    
   114   57   58 1    
   115   58  135 1    
   116   58  136 1    
   117   59   60 am   BACKBONE|DICT|INTERRES
   118   59  137 1    
   119   60   61 2    
   120   60   62 1    
   121   62   63 1    
   122   62   64 1    
   123   62  138 1    
   124   63  139 1    
   125   63  140 1    
   126   63  141 1    
   127   64   65 am   BACKBONE|DICT|INTERRES
   128   64  142 1    
   129   65   66 2    
   130   65   67 1    
   131   67   68 1    
   132   67   69 1    
   133   67  143 1    
   134   68  144 1    
   135   68  145 1    
   136   68  146 1    
   137   69   70 am   BACKBONE|DICT|INTERRES
   138   69  147 1    
   139   70   71 2    
   140   70   72 1    
   141   72   73 1    
   142   72   74 1    
   143   72  148 1    
   144   73  149 1    
   145   73  150 1    
   146   73  151 1    
   147   74   75 am   BACKBONE|DICT|INTERRES
   148   74  152 1    
   149   75   76 2    
   150   75   77 1    
   151   77   78 1    
   152   77   79 1    
   153   77  153 1    
   154   78  154 1    
   155   78  155 1    
   156   78  156 1    
   157   79   80 am   BACKBONE|DICT|INTERRES
   158   79  157 1    
   159   80   81 2    
@<TRIPOS>SUBSTRUCTURE
     1 UNK         1 GROUP             0       ****    0 ROOT    
