@<TRIPOS>MOLECULE
3R207
157   159    1
SMALL
USER_CHARGES


@<TRIPOS>ATOM
      1 CA        -48.2754  -28.9248    1.2801 C.3       0 UNK        -0.1975 
      2 C         -49.1433  -28.0030    2.1247 C.2       0 UNK         0.4852 
      3 O         -49.7682  -27.0892    1.5842 O.2       0 UNK        -0.5216 
      4 N         -49.1820  -28.2344    3.4419 N.am      1 UNK        -0.4461 
      5 CA        -49.9651  -27.4479    4.4026 C.3       1 UNK         0.0864 
      6 C6        -51.4733  -27.8075    4.4119 C.3       14 UNK        -0.0898 
      7 S7        -51.8331  -29.5658    4.7621 S.3       14 UNK        -0.2598 
      8 C8        -53.4230  -29.4462    5.6415 C.3       14 UNK         0.0286 
      9 C9        -53.2369  -29.2471    7.1392 C.ar      14 UNK        -0.0844 
     10 C10       -53.1349  -27.9608    7.6793 C.ar      14 UNK        -0.0881 
     11 C11       -52.9920  -27.7786    9.0571 C.ar      14 UNK        -0.0643 
     12 C12       -52.9617  -28.8968    9.8933 C.ar      14 UNK        -0.0930 
     13 C13       -53.0689  -30.1900    9.3734 C.ar      14 UNK        -0.0827 
     14 C14       -53.1983  -30.3562    7.9914 C.ar      14 UNK        -0.1249 
     15 C15       -53.0231  -31.4122   10.2884 C.3       14 UNK         0.0141 
     16 S16       -53.8857  -31.1796   11.8829 S.3       14 UNK        -0.2313 
     17 C17       -55.6373  -31.1585   11.3697 C.3       14 UNK        -0.0915 
     18 CA        -56.1971  -29.7445   11.0497 C.3       13 UNK         0.0968 
     19 C         -57.6909  -29.8355   10.6209 C.2       13 UNK         0.5732 
     20 N         -58.6377  -29.2919   11.3773 N.am      13 UNK        -0.7310 
     21 O         -57.9966  -30.4093    9.5782 O.2       13 UNK        -0.5035 
     22 N         -55.9200  -28.7750   12.1237 N.am      13 UNK        -0.4233 
     23 C         -55.9772  -27.4450   11.9963 C.2       13 UNK         0.4989 
     24 O         -56.2517  -26.8748   10.9405 O.2       13 UNK        -0.4996 
     25 CA        -55.6827  -26.5849   13.2418 C.3       12 UNK         0.0216 
     26 CB        -56.9626  -26.3774   14.0749 C.3       12 UNK        -0.1964 
     27 N         -54.5664  -27.0316   14.0913 N.am      12 UNK        -0.4276 
     28 C         -54.4433  -28.1585   14.8102 C.2       12 UNK         0.5020 
     29 O         -55.2739  -29.0678   14.8186 O.2       12 UNK        -0.5489 
     30 CA        -53.1747  -28.2957   15.6666 C.3       11 UNK         0.0294 
     31 CB        -52.0730  -29.0338   14.8892 C.3       11 UNK        -0.2019 
     32 N         -52.6652  -26.9995   16.1202 N.am      11 UNK        -0.4493 
     33 C         -53.1381  -26.3168   17.1720 C.2       11 UNK         0.4932 
     34 O         -54.0597  -26.7135   17.8871 O.2       11 UNK        -0.5029 
     35 CA        -52.4519  -24.9665   17.4645 C.3       10 UNK         0.0280 
     36 CB        -52.7864  -24.3999   18.8606 C.3       10 UNK        -0.1976 
     37 N         -51.0012  -25.0196   17.2444 N.am      10 UNK        -0.4242 
     38 C         -50.1011  -25.7835   17.8841 C.2       10 UNK         0.5072 
     39 O         -50.3660  -26.5063   18.8455 O.2       10 UNK        -0.5224 
     40 CA        -48.6581  -25.7711   17.3432 C.3       9 UNK         0.0343 
     41 CB        -48.3848  -27.0550   16.5421 C.3       9 UNK        -0.2003 
     42 N         -48.3522  -24.6149   16.4969 N.am      9 UNK        -0.4272 
     43 C         -48.1981  -23.3586   16.9386 C.2       9 UNK         0.4988 
     44 O         -48.2496  -23.0351   18.1254 O.2       9 UNK        -0.5108 
     45 CA        -47.9766  -22.2785   15.8677 C.3       8 UNK         0.0248 
     46 CB        -46.5026  -22.2321   15.4319 C.3       8 UNK        -0.2001 
     47 N         -48.8328  -22.4822   14.6963 N.am      8 UNK        -0.4140 
     48 C         -50.1570  -22.2712   14.6769 C.2       8 UNK         0.5028 
     49 O         -50.7986  -21.8416   15.6353 O.2       8 UNK        -0.5428 
     50 CA        -50.8959  -22.6304   13.3780 C.3       7 UNK         0.0264 
     51 CB        -50.7915  -21.4880   12.3552 C.3       7 UNK        -0.1988 
     52 N         -50.3938  -23.8671   12.7798 N.am      7 UNK        -0.4454 
     53 C         -50.6085  -25.0923   13.2817 C.2       7 UNK         0.5027 
     54 O         -51.2975  -25.3157   14.2777 O.2       7 UNK        -0.5083 
     55 CA        -49.9307  -26.2800   12.5693 C.3       6 UNK         0.0844 
     56 C56       -50.8832  -26.9309   11.5434 C.3       14 UNK        -0.0967 
     57 S57       -51.1788  -25.9223   10.0443 S.3       14 UNK        -0.2604 
     58 C58       -52.8954  -26.3766    9.6444 C.3       14 UNK         0.0134 
     59 N         -48.6386  -25.9511   11.9714 N.am      6 UNK        -0.4116 
     60 C         -47.5758  -25.4442   12.6080 C.2       5 UNK         0.5034 
     61 O         -47.5380  -25.2288   13.8192 O.2       5 UNK        -0.5045 
     62 CA        -46.3699  -25.0699   11.7352 C.3       5 UNK         0.0224 
     63 CB        -45.2799  -26.1482   11.8295 C.3       5 UNK        -0.1978 
     64 N         -46.7314  -24.8666   10.3286 N.am      5 UNK        -0.4737 
     65 C         -47.4170  -23.8141    9.8554 C.2       4 UNK         0.5027 
     66 O         -47.8509  -22.9213   10.5850 O.2       4 UNK        -0.5211 
     67 CA        -47.7084  -23.7575    8.3384 C.3       4 UNK         0.0297 
     68 CB        -47.4415  -22.3564    7.7512 C.3       4 UNK        -0.1993 
     69 N         -47.0382  -24.8035    7.5519 N.am      4 UNK        -0.4486 
     70 C         -45.7176  -24.9991    7.3909 C.2       3 UNK         0.4961 
     71 O         -44.8603  -24.2017    7.7724 O.2       3 UNK        -0.5105 
     72 CA        -45.2691  -26.3278    6.7379 C.3       3 UNK         0.0299 
     73 CB        -43.9575  -26.8585    7.3552 C.3       3 UNK        -0.1972 
     74 N         -46.2930  -27.3842    6.7405 N.am      3 UNK        -0.4305 
     75 C         -46.9368  -27.9065    7.7989 C.2       2 UNK         0.5006 
     76 O         -46.6927  -27.5946    8.9661 O.2       2 UNK        -0.5106 
     77 CA        -48.0880  -28.8905    7.4871 C.3       2 UNK         0.0296 
     78 CB        -49.1225  -28.9659    8.6294 C.3       2 UNK        -0.2002 
     79 N         -48.7741  -28.6314    6.2087 N.am      2 UNK        -0.4032 
     80 C         -49.3304  -27.4736    5.8053 C.2       1 UNK         0.5000 
     81 O         -49.2949  -26.4319    6.4639 O.2       1 UNK        -0.5238 
     82 H82       -47.5064  -28.3490    0.7659 H         1 UNK         0.0889 
     83 H83       -48.8842  -29.4274    0.5291 H         1 UNK         0.0889 
     84 H84       -47.7822  -29.6880    1.8817 H         1 UNK         0.0889 
     85 H85       -48.6301  -28.9883    3.8220 H         1 UNK         0.3028 
     86 H86       -49.8942  -26.4034    4.0890 H         1 UNK         0.0864 
     87 H87       -51.9987  -27.1687    5.1211 H         1 UNK         0.0720 
     88 H88       -51.9079  -27.5730    3.4391 H         1 UNK         0.0720 
     89 H89       -53.9868  -30.3629    5.4616 H         1 UNK         0.0814 
     90 H90       -54.0249  -28.6399    5.2194 H         1 UNK         0.0814 
     91 H91       -53.1767  -27.0969    7.0319 H         1 UNK         0.1469 
     92 H92       -52.8727  -28.7641   10.9596 H         1 UNK         0.1381 
     93 H93       -53.2761  -31.3516    7.5756 H         1 UNK         0.1206 
     94 H94       -53.4399  -32.2865    9.7861 H         1 UNK         0.0813 
     95 H95       -51.9774  -31.6446   10.4930 H         1 UNK         0.0813 
     96 H96       -56.2144  -31.6113   12.1779 H         1 UNK         0.0638 
     97 H97       -55.7546  -31.8200   10.5093 H         1 UNK         0.0638 
     98 H98       -55.6760  -29.3838   10.1625 H         1 UNK         0.0568 
     99 H99       -58.3987  -28.8242   12.2362 H         1 UNK         0.3450 
    100 H100      -59.6001  -29.3562   11.0857 H         1 UNK         0.3450 
    101 H101      -55.7019  -29.1539   13.0429 H         1 UNK         0.2987 
    102 H102      -55.3809  -25.6053   12.8670 H         1 UNK         0.0766 
    103 H103      -56.7906  -25.6835   14.8978 H         1 UNK         0.0798 
    104 H104      -57.3307  -27.3124   14.4984 H         1 UNK         0.0798 
    105 H105      -57.7637  -25.9608   13.4628 H         1 UNK         0.0798 
    106 H106      -53.8011  -26.3745   14.1611 H         1 UNK         0.3198 
    107 H107      -53.4314  -28.8970   16.5417 H         1 UNK         0.0843 
    108 H108      -52.4188  -30.0163   14.5641 H         1 UNK         0.0831 
    109 H109      -51.1891  -29.1907   15.5077 H         1 UNK         0.0831 
    110 H110      -51.7665  -28.4874   13.9987 H         1 UNK         0.0831 
    111 H111      -51.9516  -26.5497   15.5521 H         1 UNK         0.3133 
    112 H112      -52.8399  -24.2645   16.7248 H         1 UNK         0.0566 
    113 H113      -52.2908  -23.4437   19.0285 H         1 UNK         0.0814 
    114 H114      -53.8588  -24.2316   18.9662 H         1 UNK         0.0814 
    115 H115      -52.4853  -25.0793   19.6584 H         1 UNK         0.0814 
    116 H116      -50.6726  -24.4945   16.4451 H         1 UNK         0.3091 
    117 H117      -47.9849  -25.7520   18.2027 H         1 UNK         0.0702 
    118 H118      -47.3542  -27.0911   16.1883 H         1 UNK         0.0785 
    119 H119      -49.0395  -27.1335   15.6739 H         1 UNK         0.0785 
    120 H120      -48.5488  -27.9421   17.1555 H         1 UNK         0.0785 
    121 H121      -48.2088  -24.8008   15.5065 H         1 UNK         0.2998 
    122 H122      -48.2292  -21.3125   16.3105 H         1 UNK         0.0697 
    123 H123      -46.1820  -23.1685   14.9740 H         1 UNK         0.0825 
    124 H124      -45.8507  -22.0494   16.2872 H         1 UNK         0.0825 
    125 H125      -46.3261  -21.4304   14.7146 H         1 UNK         0.0825 
    126 H126      -48.3939  -22.8684   13.8727 H         1 UNK         0.3029 
    127 H127      -51.9507  -22.7729   13.6242 H         1 UNK         0.0897 
    128 H128      -51.3737  -21.7048   11.4593 H         1 UNK         0.0792 
    129 H129      -51.1740  -20.5551   12.7719 H         1 UNK         0.0792 
    130 H130      -49.7597  -21.3103   12.0482 H         1 UNK         0.0792 
    131 H131      -49.8248  -23.7767   11.9482 H         1 UNK         0.3086 
    132 H132      -49.7272  -27.0236   13.3420 H         1 UNK         0.0583 
    133 H133      -51.8362  -27.1481   12.0269 H         1 UNK         0.1020 
    134 H134      -50.4803  -27.8954   11.2300 H         1 UNK         0.1020 
    135 H135      -53.5168  -26.2970   10.5369 H         1 UNK         0.0694 
    136 H136      -53.2912  -25.6460    8.9375 H         1 UNK         0.0694 
    137 H137      -48.5682  -26.0796   10.9722 H         1 UNK         0.2989 
    138 H138      -45.9643  -24.1333   12.1242 H         1 UNK         0.1055 
    139 H139      -44.9598  -26.2901   12.8628 H         1 UNK         0.0806 
    140 H140      -44.3976  -25.8718   11.2518 H         1 UNK         0.0806 
    141 H141      -45.6323  -27.1129   11.4617 H         1 UNK         0.0806 
    142 H142      -46.4674  -25.6032    9.6825 H         1 UNK         0.3061 
    143 H143      -48.7764  -23.9577    8.2372 H         1 UNK         0.0734 
    144 H144      -48.0619  -21.6042    8.2399 H         1 UNK         0.0832 
    145 H145      -46.4032  -22.0510    7.8822 H         1 UNK         0.0832 
    146 H146      -47.6715  -22.3217    6.6864 H         1 UNK         0.0832 
    147 H147      -47.6690  -25.5121    7.1847 H         1 UNK         0.3156 
    148 H148      -45.0735  -26.0963    5.6900 H         1 UNK         0.0589 
    149 H149      -44.0617  -27.0474    8.4243 H         1 UNK         0.0808 
    150 H150      -43.6419  -27.7873    6.8801 H         1 UNK         0.0808 
    151 H151      -43.1445  -26.1423    7.2301 H         1 UNK         0.0808 
    152 H152      -46.5795  -27.7042    5.8264 H         1 UNK         0.3098 
    153 H153      -47.6239  -29.8735    7.3963 H         1 UNK         0.0720 
    154 H154      -49.9054  -29.6930    8.4119 H         1 UNK         0.0791 
    155 H155      -49.6045  -28.0027    8.7890 H         1 UNK         0.0791 
    156 H156      -48.6576  -29.2612    9.5706 H         1 UNK         0.0791 
    157 H157      -48.9007  -29.4439    5.6229 H         1 UNK         0.3028 
@<TRIPOS>BOND
     1    1    2 1    
     2    1   82 1    
     3    1   83 1    
     4    1   84 1    
     5    2    3 2    
     6    2    4 am   BACKBONE|DICT|INTERRES
     7    4    5 1    
     8    4   85 1    
     9    5    6 1    
    10    5   80 1    
    11    5   86 1    
    12    6    7 1    
    13    6   87 1    
    14    6   88 1    
    15    7    8 1    
    16    8    9 1    
    17    8   89 1    
    18    8   90 1    
    19    9   10 ar   
    20    9   14 ar   
    21   10   11 ar   
    22   10   91 1    
    23   11   12 ar   
    24   11   58 1    
    25   12   13 ar   
    26   12   92 1    
    27   13   14 ar   
    28   13   15 1    
    29   14   93 1    
    30   15   16 1    
    31   15   94 1    
    32   15   95 1    
    33   16   17 1    
    34   17   18 1    
    35   17   96 1    
    36   17   97 1    
    37   18   19 1    
    38   18   22 1    
    39   18   98 1    
    40   19   20 am   BACKBONE|DICT|INTERRES
    41   19   21 2    
    42   20   99 1    
    43   20  100 1    
    44   22   23 am   BACKBONE|DICT|INTERRES
    45   22  101 1    
    46   23   24 2    
    47   23   25 1    
    48   25   26 1    
    49   25   27 1    
    50   25  102 1    
    51   26  103 1    
    52   26  104 1    
    53   26  105 1    
    54   27   28 am   BACKBONE|DICT|INTERRES
    55   27  106 1    
    56   28   29 2    
    57   28   30 1    
    58   30   31 1    
    59   30   32 1    
    60   30  107 1    
    61   31  108 1    
    62   31  109 1    
    63   31  110 1    
    64   32   33 am   BACKBONE|DICT|INTERRES
    65   32  111 1    
    66   33   34 2    
    67   33   35 1    
    68   35   36 1    
    69   35   37 1    
    70   35  112 1    
    71   36  113 1    
    72   36  114 1    
    73   36  115 1    
    74   37   38 am   BACKBONE|DICT|INTERRES
    75   37  116 1    
    76   38   39 2    
    77   38   40 1    
    78   40   41 1    
    79   40   42 1    
    80   40  117 1    
    81   41  118 1    
    82   41  119 1    
    83   41  120 1    
    84   42   43 am   BACKBONE|DICT|INTERRES
    85   42  121 1    
    86   43   44 2    
    87   43   45 1    
    88   45   46 1    
    89   45   47 1    
    90   45  122 1    
    91   46  123 1    
    92   46  124 1    
    93   46  125 1    
    94   47   48 am   BACKBONE|DICT|INTERRES
    95   47  126 1    
    96   48   49 2    
    97   48   50 1    
    98   50   51 1    
    99   50   52 1    
   100   50  127 1    
   101   51  128 1    
   102   51  129 1    
   103   51  130 1    
   104   52   53 am   BACKBONE|DICT|INTERRES
   105   52  131 1    
   106   53   54 2    
   107   53   55 1    
   108   55   56 1    
   109   55   59 1    
   110   55  132 1    
   111   56   57 1    
   112   56  133 1    
   113   56  134 1    
   114   57   58 1    
   115   58  135 1    
   116   58  136 1    
   117   59   60 am   BACKBONE|DICT|INTERRES
   118   59  137 1    
   119   60   61 2    
   120   60   62 1    
   121   62   63 1    
   122   62   64 1    
   123   62  138 1    
   124   63  139 1    
   125   63  140 1    
   126   63  141 1    
   127   64   65 am   BACKBONE|DICT|INTERRES
   128   64  142 1    
   129   65   66 2    
   130   65   67 1    
   131   67   68 1    
   132   67   69 1    
   133   67  143 1    
   134   68  144 1    
   135   68  145 1    
   136   68  146 1    
   137   69   70 am   BACKBONE|DICT|INTERRES
   138   69  147 1    
   139   70   71 2    
   140   70   72 1    
   141   72   73 1    
   142   72   74 1    
   143   72  148 1    
   144   73  149 1    
   145   73  150 1    
   146   73  151 1    
   147   74   75 am   BACKBONE|DICT|INTERRES
   148   74  152 1    
   149   75   76 2    
   150   75   77 1    
   151   77   78 1    
   152   77   79 1    
   153   77  153 1    
   154   78  154 1    
   155   78  155 1    
   156   78  156 1    
   157   79   80 am   BACKBONE|DICT|INTERRES
   158   79  157 1    
   159   80   81 2    
@<TRIPOS>SUBSTRUCTURE
     1 UNK         1 GROUP             0       ****    0 ROOT    
