@<TRIPOS>MOLECULE
3R207
157   159    1
SMALL
USER_CHARGES


@<TRIPOS>ATOM
      1 CA        -45.4405  -31.0408    2.8997 C.3       0 UNK        -0.1975 
      2 C         -46.8216  -30.4227    3.0625 C.2       0 UNK         0.4852 
      3 O         -47.1133  -29.4042    2.4339 O.2       0 UNK        -0.5216 
      4 N         -47.6752  -31.0357    3.8925 N.am      1 UNK        -0.4461 
      5 CA        -49.0116  -30.5381    4.2300 C.3       1 UNK         0.0864 
      6 C6        -49.8921  -31.6724    4.8127 C.3       14 UNK        -0.0898 
      7 S7        -51.6785  -31.3095    4.7067 S.3       14 UNK        -0.2598 
      8 C8        -52.2473  -31.6698    6.4002 C.3       14 UNK         0.0286 
      9 C9        -52.0357  -30.5005    7.3537 C.ar      14 UNK        -0.0844 
     10 C10       -50.9142  -30.4551    8.1875 C.ar      14 UNK        -0.0881 
     11 C11       -50.7521  -29.4072    9.0987 C.ar      14 UNK        -0.0643 
     12 C12       -51.7146  -28.3968    9.1666 C.ar      14 UNK        -0.0930 
     13 C13       -52.8464  -28.4288    8.3425 C.ar      14 UNK        -0.0827 
     14 C14       -52.9934  -29.4843    7.4361 C.ar      14 UNK        -0.1249 
     15 C15       -53.9115  -27.3318    8.3835 C.3       14 UNK         0.0141 
     16 S16       -54.0930  -26.4938    9.9953 S.3       14 UNK        -0.2313 
     17 C17       -54.7394  -27.8332   11.0530 C.3       14 UNK        -0.0915 
     18 CA        -55.8956  -27.3441   11.9643 C.3       13 UNK         0.0968 
     19 C         -56.5738  -28.5281   12.7084 C.2       13 UNK         0.5732 
     20 N         -56.4989  -28.6298   14.0288 N.am      13 UNK        -0.7310 
     21 O         -57.1993  -29.3705   12.0690 O.2       13 UNK        -0.5035 
     22 N         -55.4726  -26.2253   12.8238 N.am      13 UNK        -0.4233 
     23 C         -56.2934  -25.2703   13.2758 C.2       13 UNK         0.4989 
     24 O         -57.5173  -25.2837   13.1286 O.2       13 UNK        -0.4996 
     25 CA        -55.6050  -24.0844   13.9710 C.3       12 UNK         0.0216 
     26 CB        -56.5582  -22.9110   14.2900 C.3       12 UNK        -0.1964 
     27 N         -54.8440  -24.5128   15.1473 N.am      12 UNK        -0.4276 
     28 C         -55.3186  -24.9531   16.3211 C.2       12 UNK         0.5020 
     29 O         -56.5160  -25.0390   16.6008 O.2       12 UNK        -0.5489 
     30 CA        -54.2529  -25.3668   17.3540 C.3       11 UNK         0.0294 
     31 CB        -54.8542  -25.9201   18.6641 C.3       11 UNK        -0.2019 
     32 N         -53.2657  -26.2985   16.7977 N.am      11 UNK        -0.4493 
     33 C         -53.4990  -27.5191   16.2900 C.2       11 UNK         0.4932 
     34 O         -54.6187  -28.0267   16.2347 O.2       11 UNK        -0.5029 
     35 CA        -52.3060  -28.3176   15.7258 C.3       10 UNK         0.0280 
     36 CB        -52.5383  -28.6529   14.2424 C.3       10 UNK        -0.1976 
     37 N         -51.0156  -27.6377   15.8571 N.am      10 UNK        -0.4242 
     38 C         -50.3007  -27.5225   16.9841 C.2       10 UNK         0.5072 
     39 O         -50.6142  -28.0473   18.0529 O.2       10 UNK        -0.5224 
     40 CA        -49.0483  -26.6270   16.9180 C.3       9 UNK         0.0343 
     41 CB        -47.8317  -27.4272   16.4275 C.3       9 UNK        -0.2003 
     42 N         -49.2303  -25.4349   16.0793 N.am      9 UNK        -0.4272 
     43 C         -50.1327  -24.4699   16.3186 C.2       9 UNK         0.4988 
     44 O         -50.8884  -24.4664   17.2903 O.2       9 UNK        -0.5108 
     45 CA        -50.2566  -23.3473   15.2763 C.3       8 UNK         0.0248 
     46 CB        -49.1096  -22.3344   15.4184 C.3       8 UNK        -0.2001 
     47 N         -50.3110  -23.8617   13.9066 N.am      8 UNK        -0.4140 
     48 C         -51.2956  -24.6381   13.4289 C.2       8 UNK         0.5028 
     49 O         -52.3088  -24.9331   14.0642 O.2       8 UNK        -0.5428 
     50 CA        -51.1017  -25.2256   12.0237 C.3       7 UNK         0.0264 
     51 CB        -51.4807  -24.1993   10.9460 C.3       7 UNK        -0.1988 
     52 N         -49.7374  -25.7045   11.7977 N.am      7 UNK        -0.4454 
     53 C         -49.1509  -26.6966   12.4857 C.2       7 UNK         0.5027 
     54 O         -49.7247  -27.3524   13.3530 O.2       7 UNK        -0.5083 
     55 CA        -47.6564  -26.9665   12.2125 C.3       6 UNK         0.0844 
     56 C56       -47.3653  -28.0604   11.1464 C.3       14 UNK        -0.0967 
     57 S57       -48.3961  -28.0414    9.6378 S.3       14 UNK        -0.2604 
     58 C58       -49.5631  -29.3783   10.0442 C.3       14 UNK         0.0134 
     59 N         -46.9218  -25.7199   11.9853 N.am      6 UNK        -0.4116 
     60 C         -46.6411  -24.8449   12.9637 C.2       5 UNK         0.5034 
     61 O         -46.9749  -25.0009   14.1394 O.2       5 UNK        -0.5045 
     62 CA        -45.8849  -23.5688   12.5632 C.3       5 UNK         0.0224 
     63 CB        -44.3858  -23.8562   12.3820 C.3       5 UNK        -0.1978 
     64 N         -46.4195  -22.9492   11.3496 N.am      5 UNK        -0.4737 
     65 C         -47.6400  -22.4039   11.2572 C.2       4 UNK         0.5027 
     66 O         -48.4431  -22.3568   12.1882 O.2       4 UNK        -0.5211 
     67 CA        -48.0474  -21.8605    9.8770 C.3       4 UNK         0.0297 
     68 CB        -47.5125  -20.4331    9.6802 C.3       4 UNK        -0.1993 
     69 N         -47.6264  -22.7076    8.7529 N.am      4 UNK        -0.4486 
     70 C         -47.9657  -23.9948    8.6080 C.2       3 UNK         0.4961 
     71 O         -48.5981  -24.6360    9.4507 O.2       3 UNK        -0.5105 
     72 CA        -47.5169  -24.6963    7.3237 C.3       3 UNK         0.0299 
     73 CB        -46.1061  -25.2889    7.4784 C.3       3 UNK        -0.1972 
     74 N         -48.4786  -25.7615    7.0808 N.am      3 UNK        -0.4305 
     75 C         -48.8410  -26.2683    5.9024 C.2       2 UNK         0.5006 
     76 O         -48.3396  -25.9514    4.8210 O.2       2 UNK        -0.5106 
     77 CA        -50.0222  -27.2492    5.9488 C.3       2 UNK         0.0296 
     78 CB        -51.3318  -26.5273    5.5919 C.3       2 UNK        -0.2002 
     79 N         -49.8529  -28.3977    5.0625 N.am      2 UNK        -0.4032 
     80 C         -48.9154  -29.3436    5.2009 C.2       1 UNK         0.5000 
     81 O         -48.0382  -29.3331    6.0696 O.2       1 UNK        -0.5238 
     82 H82       -45.3240  -31.9433    3.4996 H         1 UNK         0.0889 
     83 H83       -44.6735  -30.3296    3.2051 H         1 UNK         0.0889 
     84 H84       -45.2670  -31.3028    1.8563 H         1 UNK         0.0889 
     85 H85       -47.3666  -31.8467    4.4091 H         1 UNK         0.3028 
     86 H86       -49.4699  -30.1916    3.3004 H         1 UNK         0.0864 
     87 H87       -49.6043  -31.9053    5.8394 H         1 UNK         0.0720 
     88 H88       -49.7329  -32.5918    4.2466 H         1 UNK         0.0720 
     89 H89       -51.7549  -32.5686    6.7747 H         1 UNK         0.0814 
     90 H90       -53.3107  -31.9111    6.3612 H         1 UNK         0.0814 
     91 H91       -50.1746  -31.2421    8.1387 H         1 UNK         0.1469 
     92 H92       -51.5704  -27.5867    9.8674 H         1 UNK         0.1381 
     93 H93       -53.8611  -29.5197    6.7913 H         1 UNK         0.1206 
     94 H94       -54.8823  -27.7375    8.0946 H         1 UNK         0.0813 
     95 H95       -53.6584  -26.5797    7.6360 H         1 UNK         0.0813 
     96 H96       -55.0788  -28.6502   10.4134 H         1 UNK         0.0638 
     97 H97       -53.9169  -28.2341   11.6460 H         1 UNK         0.0638 
     98 H98       -56.6687  -26.9577   11.2968 H         1 UNK         0.0568 
     99 H99       -55.9504  -27.9877   14.5855 H         1 UNK         0.3450 
    100 H100      -56.9560  -29.4043   14.4815 H         1 UNK         0.3450 
    101 H101      -54.4821  -26.1417   12.9978 H         1 UNK         0.2987 
    102 H102      -54.8660  -23.7062   13.2625 H         1 UNK         0.0766 
    103 H103      -56.0265  -22.0853   14.7627 H         1 UNK         0.0798 
    104 H104      -57.3725  -23.2087   14.9509 H         1 UNK         0.0798 
    105 H105      -57.0124  -22.5242   13.3771 H         1 UNK         0.0798 
    106 H106      -53.8375  -24.5792   14.9891 H         1 UNK         0.3198 
    107 H107      -53.7051  -24.4572   17.6059 H         1 UNK         0.0843 
    108 H108      -55.4545  -26.8138   18.4910 H         1 UNK         0.0831 
    109 H109      -55.5026  -25.1814   19.1367 H         1 UNK         0.0831 
    110 H110      -54.0741  -26.1732   19.3821 H         1 UNK         0.0831 
    111 H111      -52.3143  -25.9487   16.7780 H         1 UNK         0.3133 
    112 H112      -52.2567  -29.2561   16.2814 H         1 UNK         0.0566 
    113 H113      -51.7348  -29.2731   13.8447 H         1 UNK         0.0814 
    114 H114      -53.4695  -29.2029   14.1001 H         1 UNK         0.0814 
    115 H115      -52.5928  -27.7493   13.6354 H         1 UNK         0.0814 
    116 H116      -50.6287  -27.2466   15.0009 H         1 UNK         0.3091 
    117 H117      -48.8386  -26.2811   17.9323 H         1 UNK         0.0702 
    118 H118      -46.9298  -26.8148   16.4190 H         1 UNK         0.0785 
    119 H119      -47.9831  -27.8152   15.4205 H         1 UNK         0.0785 
    120 H120      -47.6390  -28.2806   17.0791 H         1 UNK         0.0785 
    121 H121      -48.6151  -25.3418   15.2767 H         1 UNK         0.2998 
    122 H122      -51.1946  -22.8216   15.4673 H         1 UNK         0.0697 
    123 H123      -48.1409  -22.7822   15.1954 H         1 UNK         0.0825 
    124 H124      -49.0613  -21.9381   16.4335 H         1 UNK         0.0825 
    125 H125      -49.2462  -21.4870   14.7463 H         1 UNK         0.0825 
    126 H126      -49.5450  -23.6038   13.2907 H         1 UNK         0.3029 
    127 H127      -51.7698  -26.0835   11.9310 H         1 UNK         0.0897 
    128 H128      -50.8281  -23.3264   10.9711 H         1 UNK         0.0792 
    129 H129      -52.5046  -23.8491   11.0833 H         1 UNK         0.0792 
    130 H130      -51.4186  -24.6343    9.9481 H         1 UNK         0.0792 
    131 H131      -49.2152  -25.2534   11.0475 H         1 UNK         0.3086 
    132 H132      -47.2602  -27.3736   13.1455 H         1 UNK         0.0583 
    133 H133      -46.3191  -28.0115   10.8406 H         1 UNK         0.1020 
    134 H134      -47.4666  -29.0412   11.6144 H         1 UNK         0.1020 
    135 H135      -49.0318  -30.3311   10.0279 H         1 UNK         0.0694 
    136 H136      -49.9318  -29.2472   11.0627 H         1 UNK         0.0694 
    137 H137      -46.6831  -25.4932   11.0313 H         1 UNK         0.2989 
    138 H138      -45.9982  -22.8539   13.3817 H         1 UNK         0.1055 
    139 H139      -43.9647  -24.3088   13.2811 H         1 UNK         0.0806 
    140 H140      -43.8269  -22.9396   12.1921 H         1 UNK         0.0806 
    141 H141      -44.1986  -24.5412   11.5541 H         1 UNK         0.0806 
    142 H142      -45.8309  -22.9488   10.5293 H         1 UNK         0.3061 
    143 H143      -49.1383  -21.8174    9.8573 H         1 UNK         0.0734 
    144 H144      -46.4226  -20.4089    9.6468 H         1 UNK         0.0832 
    145 H145      -47.8878  -19.9912    8.7570 H         1 UNK         0.0832 
    146 H146      -47.8274  -19.7833   10.4981 H         1 UNK         0.0832 
    147 H147      -47.0950  -22.2594    8.0198 H         1 UNK         0.3156 
    148 H148      -47.5390  -23.9825    6.4977 H         1 UNK         0.0589 
    149 H149      -46.0591  -26.0047    8.3005 H         1 UNK         0.0808 
    150 H150      -45.7939  -25.8057    6.5707 H         1 UNK         0.0808 
    151 H151      -45.3704  -24.5088    7.6772 H         1 UNK         0.0808 
    152 H152      -48.9561  -26.0614    7.9243 H         1 UNK         0.3098 
    153 H153      -50.1104  -27.6391    6.9636 H         1 UNK         0.0720 
    154 H154      -52.1846  -27.2042    5.6397 H         1 UNK         0.0791 
    155 H155      -51.2970  -26.1020    4.5880 H         1 UNK         0.0791 
    156 H156      -51.5273  -25.7100    6.2874 H         1 UNK         0.0791 
    157 H157      -50.5308  -28.4944    4.3213 H         1 UNK         0.3028 
@<TRIPOS>BOND
     1    1    2 1    
     2    1   82 1    
     3    1   83 1    
     4    1   84 1    
     5    2    3 2    
     6    2    4 am   BACKBONE|DICT|INTERRES
     7    4    5 1    
     8    4   85 1    
     9    5    6 1    
    10    5   80 1    
    11    5   86 1    
    12    6    7 1    
    13    6   87 1    
    14    6   88 1    
    15    7    8 1    
    16    8    9 1    
    17    8   89 1    
    18    8   90 1    
    19    9   10 ar   
    20    9   14 ar   
    21   10   11 ar   
    22   10   91 1    
    23   11   12 ar   
    24   11   58 1    
    25   12   13 ar   
    26   12   92 1    
    27   13   14 ar   
    28   13   15 1    
    29   14   93 1    
    30   15   16 1    
    31   15   94 1    
    32   15   95 1    
    33   16   17 1    
    34   17   18 1    
    35   17   96 1    
    36   17   97 1    
    37   18   19 1    
    38   18   22 1    
    39   18   98 1    
    40   19   20 am   BACKBONE|DICT|INTERRES
    41   19   21 2    
    42   20   99 1    
    43   20  100 1    
    44   22   23 am   BACKBONE|DICT|INTERRES
    45   22  101 1    
    46   23   24 2    
    47   23   25 1    
    48   25   26 1    
    49   25   27 1    
    50   25  102 1    
    51   26  103 1    
    52   26  104 1    
    53   26  105 1    
    54   27   28 am   BACKBONE|DICT|INTERRES
    55   27  106 1    
    56   28   29 2    
    57   28   30 1    
    58   30   31 1    
    59   30   32 1    
    60   30  107 1    
    61   31  108 1    
    62   31  109 1    
    63   31  110 1    
    64   32   33 am   BACKBONE|DICT|INTERRES
    65   32  111 1    
    66   33   34 2    
    67   33   35 1    
    68   35   36 1    
    69   35   37 1    
    70   35  112 1    
    71   36  113 1    
    72   36  114 1    
    73   36  115 1    
    74   37   38 am   BACKBONE|DICT|INTERRES
    75   37  116 1    
    76   38   39 2    
    77   38   40 1    
    78   40   41 1    
    79   40   42 1    
    80   40  117 1    
    81   41  118 1    
    82   41  119 1    
    83   41  120 1    
    84   42   43 am   BACKBONE|DICT|INTERRES
    85   42  121 1    
    86   43   44 2    
    87   43   45 1    
    88   45   46 1    
    89   45   47 1    
    90   45  122 1    
    91   46  123 1    
    92   46  124 1    
    93   46  125 1    
    94   47   48 am   BACKBONE|DICT|INTERRES
    95   47  126 1    
    96   48   49 2    
    97   48   50 1    
    98   50   51 1    
    99   50   52 1    
   100   50  127 1    
   101   51  128 1    
   102   51  129 1    
   103   51  130 1    
   104   52   53 am   BACKBONE|DICT|INTERRES
   105   52  131 1    
   106   53   54 2    
   107   53   55 1    
   108   55   56 1    
   109   55   59 1    
   110   55  132 1    
   111   56   57 1    
   112   56  133 1    
   113   56  134 1    
   114   57   58 1    
   115   58  135 1    
   116   58  136 1    
   117   59   60 am   BACKBONE|DICT|INTERRES
   118   59  137 1    
   119   60   61 2    
   120   60   62 1    
   121   62   63 1    
   122   62   64 1    
   123   62  138 1    
   124   63  139 1    
   125   63  140 1    
   126   63  141 1    
   127   64   65 am   BACKBONE|DICT|INTERRES
   128   64  142 1    
   129   65   66 2    
   130   65   67 1    
   131   67   68 1    
   132   67   69 1    
   133   67  143 1    
   134   68  144 1    
   135   68  145 1    
   136   68  146 1    
   137   69   70 am   BACKBONE|DICT|INTERRES
   138   69  147 1    
   139   70   71 2    
   140   70   72 1    
   141   72   73 1    
   142   72   74 1    
   143   72  148 1    
   144   73  149 1    
   145   73  150 1    
   146   73  151 1    
   147   74   75 am   BACKBONE|DICT|INTERRES
   148   74  152 1    
   149   75   76 2    
   150   75   77 1    
   151   77   78 1    
   152   77   79 1    
   153   77  153 1    
   154   78  154 1    
   155   78  155 1    
   156   78  156 1    
   157   79   80 am   BACKBONE|DICT|INTERRES
   158   79  157 1    
   159   80   81 2    
@<TRIPOS>SUBSTRUCTURE
     1 UNK         1 GROUP             0       ****    0 ROOT    
