@<TRIPOS>MOLECULE
3R207
157   159    1
SMALL
USER_CHARGES


@<TRIPOS>ATOM
      1 CA        -44.0066  -30.0321    4.0918 C.3       0 UNK        -0.1975 
      2 C         -45.4954  -29.7185    4.0643 C.2       0 UNK         0.4852 
      3 O         -46.0624  -29.5373    2.9857 O.2       0 UNK        -0.5216 
      4 N         -46.1329  -29.6609    5.2409 N.am      1 UNK        -0.4461 
      5 CA        -47.5401  -29.2928    5.4134 C.3       1 UNK         0.0864 
      6 C6        -48.0430  -29.7010    6.8210 C.3       14 UNK        -0.0898 
      7 S7        -49.8249  -29.3952    7.0897 S.3       14 UNK        -0.2598 
      8 C8        -49.7600  -28.4848    8.6618 C.3       14 UNK         0.0286 
      9 C9        -51.1133  -27.9169    9.0551 C.ar      14 UNK        -0.0844 
     10 C10       -51.4043  -26.5728    8.8185 C.ar      14 UNK        -0.0881 
     11 C11       -52.6200  -26.0252    9.2343 C.ar      14 UNK        -0.0643 
     12 C12       -53.5588  -26.8424    9.8734 C.ar      14 UNK        -0.0930 
     13 C13       -53.2921  -28.1976   10.1041 C.ar      14 UNK        -0.0827 
     14 C14       -52.0618  -28.7251    9.6862 C.ar      14 UNK        -0.1249 
     15 C15       -54.3639  -29.0588   10.7784 C.3       14 UNK         0.0141 
     16 S16       -53.7225  -30.5324   11.6462 S.3       14 UNK        -0.2313 
     17 C17       -55.2294  -31.1892   12.4321 C.3       14 UNK        -0.0915 
     18 CA        -55.3878  -30.8150   13.9337 C.3       13 UNK         0.0968 
     19 C         -54.2593  -31.3542   14.8581 C.2       13 UNK         0.5732 
     20 N         -53.7126  -30.5689   15.7791 N.am      13 UNK        -0.7310 
     21 O         -53.8976  -32.5252   14.7683 O.2       13 UNK        -0.5035 
     22 N         -55.7212  -29.3959   14.1409 N.am      13 UNK        -0.4233 
     23 C         -56.9636  -28.9077   14.0373 C.2       13 UNK         0.4989 
     24 O         -57.9319  -29.5735   13.6673 O.2       13 UNK        -0.4996 
     25 CA        -57.1910  -27.4434   14.4264 C.3       12 UNK         0.0216 
     26 CB        -57.4384  -27.3346   15.9407 C.3       12 UNK        -0.1964 
     27 N         -56.0643  -26.5806   14.0730 N.am      12 UNK        -0.4276 
     28 C         -56.1207  -25.5728   13.1910 C.2       12 UNK         0.5020 
     29 O         -57.0812  -25.3812   12.4428 O.2       12 UNK        -0.5489 
     30 CA        -54.9199  -24.6000   13.1339 C.3       11 UNK         0.0294 
     31 CB        -55.3601  -23.1443   12.8772 C.3       11 UNK        -0.2019 
     32 N         -54.0276  -24.6639   14.2980 N.am      11 UNK        -0.4493 
     33 C         -54.3357  -24.5047   15.5953 C.2       11 UNK         0.4932 
     34 O         -55.4315  -24.1127   15.9984 O.2       11 UNK        -0.5029 
     35 CA        -53.2506  -24.9199   16.6120 C.3       10 UNK         0.0280 
     36 CB        -53.8525  -25.3962   17.9504 C.3       10 UNK        -0.1976 
     37 N         -52.3165  -25.9268   16.0880 N.am      10 UNK        -0.4242 
     38 C         -52.6010  -27.1460   15.5991 C.2       10 UNK         0.5072 
     39 O         -53.7400  -27.6257   15.5602 O.2       10 UNK        -0.5224 
     40 CA        -51.4446  -27.9477   14.9694 C.3       9 UNK         0.0343 
     41 CB        -51.6977  -28.1201   13.4651 C.3       9 UNK        -0.2003 
     42 N         -50.1236  -27.3439   15.1456 N.am      9 UNK        -0.4272 
     43 C         -49.4205  -27.3266   16.2853 C.2       9 UNK         0.4988 
     44 O         -49.7760  -27.8857   17.3227 O.2       9 UNK        -0.5108 
     45 CA        -48.1217  -26.5029   16.2713 C.3       8 UNK         0.0248 
     46 CB        -46.9496  -27.3379   15.7296 C.3       8 UNK        -0.2001 
     47 N         -48.2539  -25.2678   15.4904 N.am      8 UNK        -0.4140 
     48 C         -49.0232  -24.2258   15.8399 C.2       8 UNK         0.5028 
     49 O         -49.6788  -24.1770   16.8805 O.2       8 UNK        -0.5428 
     50 CA        -49.1123  -23.0598   14.8401 C.3       7 UNK         0.0264 
     51 CB        -47.9003  -22.1252   14.9827 C.3       7 UNK        -0.1988 
     52 N         -49.2291  -23.5078   13.4496 N.am      7 UNK        -0.4454 
     53 C         -50.2798  -24.1831   12.9584 C.2       7 UNK         0.5027 
     54 O         -51.2719  -24.4793   13.6241 O.2       7 UNK        -0.5083 
     55 CA        -50.1812  -24.6616   11.4953 C.3       6 UNK         0.0844 
     56 C56       -50.7048  -23.5968   10.4998 C.3       14 UNK        -0.0967 
     57 S57       -52.5270  -23.5184   10.4347 S.3       14 UNK        -0.2604 
     58 C58       -52.9173  -24.5529    8.9854 C.3       14 UNK         0.0134 
     59 N         -48.8376  -25.1376   11.1382 N.am      6 UNK        -0.4116 
     60 C         -48.2181  -26.1738   11.7273 C.2       5 UNK         0.5034 
     61 O         -48.6974  -26.7942   12.6763 O.2       5 UNK        -0.5045 
     62 CA        -46.8345  -26.5840   11.1950 C.3       5 UNK         0.0224 
     63 CB        -46.6693  -28.1138   11.1376 C.3       5 UNK        -0.1978 
     64 N         -46.5635  -26.0225    9.8687 N.am      5 UNK        -0.4737 
     65 C         -45.5851  -25.1533    9.5919 C.2       4 UNK         0.5027 
     66 O         -44.7823  -24.7307   10.4240 O.2       4 UNK        -0.5211 
     67 CA        -45.4908  -24.6606    8.1387 C.3       4 UNK         0.0297 
     68 CB        -44.5200  -25.5456    7.3399 C.3       4 UNK        -0.1993 
     69 N         -46.7785  -24.5826    7.4345 N.am      4 UNK        -0.4486 
     70 C         -47.7767  -23.7454    7.7648 C.2       3 UNK         0.4961 
     71 O         -47.7889  -23.0956    8.8107 O.2       3 UNK        -0.5105 
     72 CA        -48.9569  -23.5841    6.7872 C.3       3 UNK         0.0299 
     73 CB        -49.1847  -22.1026    6.4388 C.3       3 UNK        -0.1972 
     74 N         -48.7561  -24.3355    5.5490 N.am      3 UNK        -0.4305 
     75 C         -49.5563  -25.3108    5.1040 C.2       2 UNK         0.5006 
     76 O         -50.6175  -25.6317    5.6388 O.2       2 UNK        -0.5106 
     77 CA        -49.0823  -26.0963    3.8678 C.3       2 UNK         0.0296 
     78 CB        -47.9711  -25.3948    3.0512 C.3       2 UNK        -0.2002 
     79 N         -48.6728  -27.4528    4.2464 N.am      2 UNK        -0.4032 
     80 C         -47.7228  -27.7864    5.1343 C.2       1 UNK         0.5000 
     81 O         -47.0181  -26.9698    5.7363 O.2       1 UNK        -0.5238 
     82 H82       -43.8034  -30.9387    3.5225 H         1 UNK         0.0889 
     83 H83       -43.6393  -30.1799    5.1073 H         1 UNK         0.0889 
     84 H84       -43.4434  -29.2141    3.6435 H         1 UNK         0.0889 
     85 H85       -45.6072  -29.7905    6.0932 H         1 UNK         0.3028 
     86 H86       -48.1192  -29.8562    4.6781 H         1 UNK         0.0864 
     87 H87       -47.8727  -30.7678    6.9747 H         1 UNK         0.0720 
     88 H88       -47.4569  -29.1943    7.5903 H         1 UNK         0.0720 
     89 H89       -49.0278  -27.6799    8.5846 H         1 UNK         0.0814 
     90 H90       -49.4076  -29.1557    9.4462 H         1 UNK         0.0814 
     91 H91       -50.6777  -25.9497    8.3181 H         1 UNK         0.1469 
     92 H92       -54.5039  -26.4198   10.1863 H         1 UNK         0.1381 
     93 H93       -51.8291  -29.7681    9.8461 H         1 UNK         0.1206 
     94 H94       -54.9161  -28.4526   11.4981 H         1 UNK         0.0813 
     95 H95       -55.0810  -29.3786   10.0215 H         1 UNK         0.0813 
     96 H96       -56.1034  -30.8631   11.8666 H         1 UNK         0.0638 
     97 H97       -55.2071  -32.2749   12.3247 H         1 UNK         0.0638 
     98 H98       -56.2499  -31.3836   14.2879 H         1 UNK         0.0568 
     99 H99       -53.0046  -30.9595   16.3795 H         1 UNK         0.3450 
    100 H100      -53.9719  -29.5969   15.8799 H         1 UNK         0.3450 
    101 H101      -54.9718  -28.8014   14.4740 H         1 UNK         0.2987 
    102 H102      -58.0984  -27.1121   13.9170 H         1 UNK         0.0766 
    103 H103      -57.6694  -26.3087   16.2290 H         1 UNK         0.0798 
    104 H104      -56.5689  -27.6532   16.5177 H         1 UNK         0.0798 
    105 H105      -58.2815  -27.9556   16.2469 H         1 UNK         0.0798 
    106 H106      -55.2221  -26.6878   14.6305 H         1 UNK         0.3198 
    107 H107      -54.3198  -24.9240   12.2837 H         1 UNK         0.0843 
    108 H108      -56.0197  -22.7772   13.6640 H         1 UNK         0.0831 
    109 H109      -55.8979  -23.0576   11.9323 H         1 UNK         0.0831 
    110 H110      -54.5006  -22.4766   12.8186 H         1 UNK         0.0831 
    111 H111      -53.0549  -24.8773   14.0827 H         1 UNK         0.3133 
    112 H112      -52.6564  -24.0264   16.8082 H         1 UNK         0.0566 
    113 H113      -53.0722  -25.6818   18.6559 H         1 UNK         0.0814 
    114 H114      -54.4391  -24.6063   18.4209 H         1 UNK         0.0814 
    115 H115      -54.5121  -26.2539   17.8139 H         1 UNK         0.0814 
    116 H116      -51.3543  -25.6193   16.0278 H         1 UNK         0.3091 
    117 H117      -51.4375  -28.9341   15.4358 H         1 UNK         0.0702 
    118 H118      -52.6863  -28.5369   13.2867 H         1 UNK         0.0785 
    119 H119      -51.6533  -27.1701   12.9333 H         1 UNK         0.0785 
    120 H120      -50.9717  -28.7934   13.0091 H         1 UNK         0.0785 
    121 H121      -49.7087  -26.9247   14.3174 H         1 UNK         0.2998 
    122 H122      -47.8934  -26.2254   17.3027 H         1 UNK         0.0697 
    123 H123      -47.1119  -27.6470   14.6966 H         1 UNK         0.0825 
    124 H124      -46.8134  -28.2443   16.3211 H         1 UNK         0.0825 
    125 H125      -46.0128  -26.7821   15.7712 H         1 UNK         0.0825 
    126 H126      -47.7800  -25.2401   14.6000 H         1 UNK         0.3029 
    127 H127      -50.0121  -22.4894   15.0824 H         1 UNK         0.0897 
    128 H128      -47.9991  -21.2475   14.3436 H         1 UNK         0.0792 
    129 H129      -46.9665  -22.6260   14.7242 H         1 UNK         0.0792 
    130 H130      -47.8042  -21.7665   16.0086 H         1 UNK         0.0792 
    131 H131      -48.4549  -23.3038   12.8344 H         1 UNK         0.3086 
    132 H132      -50.8272  -25.5376   11.4171 H         1 UNK         0.0583 
    133 H133      -50.3110  -22.6055   10.7331 H         1 UNK         0.1020 
    134 H134      -50.3500  -23.8152    9.4959 H         1 UNK         0.1020 
    135 H135      -53.9746  -24.4315    8.7453 H         1 UNK         0.0694 
    136 H136      -52.3672  -24.1904    8.1153 H         1 UNK         0.0694 
    137 H137      -48.3524  -24.6332   10.4072 H         1 UNK         0.2989 
    138 H138      -46.1155  -26.2039   11.9240 H         1 UNK         0.1055 
    139 H139      -46.8289  -28.5673   12.1169 H         1 UNK         0.0806 
    140 H140      -45.6635  -28.3884   10.8194 H         1 UNK         0.0806 
    141 H141      -47.3734  -28.5739   10.4466 H         1 UNK         0.0806 
    142 H142      -47.1648  -26.3127    9.1110 H         1 UNK         0.3061 
    143 H143      -45.0775  -23.6501    8.1681 H         1 UNK         0.0734 
    144 H144      -44.3970  -25.1835    6.3191 H         1 UNK         0.0832 
    145 H145      -43.5317  -25.5548    7.8015 H         1 UNK         0.0832 
    146 H146      -44.8637  -26.5795    7.2898 H         1 UNK         0.0832 
    147 H147      -46.8886  -25.2040    6.6372 H         1 UNK         0.3156 
    148 H148      -49.8456  -23.9447    7.3041 H         1 UNK         0.0589 
    149 H149      -48.3139  -21.6640    5.9502 H         1 UNK         0.0808 
    150 H150      -50.0397  -21.9803    5.7737 H         1 UNK         0.0808 
    151 H151      -49.3886  -21.5139    7.3344 H         1 UNK         0.0808 
    152 H152      -47.9062  -24.1449    5.0365 H         1 UNK         0.3098 
    153 H153      -49.9530  -26.2000    3.2186 H         1 UNK         0.0720 
    154 H154      -47.7538  -25.9511    2.1392 H         1 UNK         0.0791 
    155 H155      -47.0353  -25.3040    3.6036 H         1 UNK         0.0791 
    156 H156      -48.2785  -24.3936    2.7459 H         1 UNK         0.0791 
    157 H157      -49.2194  -28.1971    3.8362 H         1 UNK         0.3028 
@<TRIPOS>BOND
     1    1    2 1    
     2    1   82 1    
     3    1   83 1    
     4    1   84 1    
     5    2    3 2    
     6    2    4 am   BACKBONE|DICT|INTERRES
     7    4    5 1    
     8    4   85 1    
     9    5    6 1    
    10    5   80 1    
    11    5   86 1    
    12    6    7 1    
    13    6   87 1    
    14    6   88 1    
    15    7    8 1    
    16    8    9 1    
    17    8   89 1    
    18    8   90 1    
    19    9   10 ar   
    20    9   14 ar   
    21   10   11 ar   
    22   10   91 1    
    23   11   12 ar   
    24   11   58 1    
    25   12   13 ar   
    26   12   92 1    
    27   13   14 ar   
    28   13   15 1    
    29   14   93 1    
    30   15   16 1    
    31   15   94 1    
    32   15   95 1    
    33   16   17 1    
    34   17   18 1    
    35   17   96 1    
    36   17   97 1    
    37   18   19 1    
    38   18   22 1    
    39   18   98 1    
    40   19   20 am   BACKBONE|DICT|INTERRES
    41   19   21 2    
    42   20   99 1    
    43   20  100 1    
    44   22   23 am   BACKBONE|DICT|INTERRES
    45   22  101 1    
    46   23   24 2    
    47   23   25 1    
    48   25   26 1    
    49   25   27 1    
    50   25  102 1    
    51   26  103 1    
    52   26  104 1    
    53   26  105 1    
    54   27   28 am   BACKBONE|DICT|INTERRES
    55   27  106 1    
    56   28   29 2    
    57   28   30 1    
    58   30   31 1    
    59   30   32 1    
    60   30  107 1    
    61   31  108 1    
    62   31  109 1    
    63   31  110 1    
    64   32   33 am   BACKBONE|DICT|INTERRES
    65   32  111 1    
    66   33   34 2    
    67   33   35 1    
    68   35   36 1    
    69   35   37 1    
    70   35  112 1    
    71   36  113 1    
    72   36  114 1    
    73   36  115 1    
    74   37   38 am   BACKBONE|DICT|INTERRES
    75   37  116 1    
    76   38   39 2    
    77   38   40 1    
    78   40   41 1    
    79   40   42 1    
    80   40  117 1    
    81   41  118 1    
    82   41  119 1    
    83   41  120 1    
    84   42   43 am   BACKBONE|DICT|INTERRES
    85   42  121 1    
    86   43   44 2    
    87   43   45 1    
    88   45   46 1    
    89   45   47 1    
    90   45  122 1    
    91   46  123 1    
    92   46  124 1    
    93   46  125 1    
    94   47   48 am   BACKBONE|DICT|INTERRES
    95   47  126 1    
    96   48   49 2    
    97   48   50 1    
    98   50   51 1    
    99   50   52 1    
   100   50  127 1    
   101   51  128 1    
   102   51  129 1    
   103   51  130 1    
   104   52   53 am   BACKBONE|DICT|INTERRES
   105   52  131 1    
   106   53   54 2    
   107   53   55 1    
   108   55   56 1    
   109   55   59 1    
   110   55  132 1    
   111   56   57 1    
   112   56  133 1    
   113   56  134 1    
   114   57   58 1    
   115   58  135 1    
   116   58  136 1    
   117   59   60 am   BACKBONE|DICT|INTERRES
   118   59  137 1    
   119   60   61 2    
   120   60   62 1    
   121   62   63 1    
   122   62   64 1    
   123   62  138 1    
   124   63  139 1    
   125   63  140 1    
   126   63  141 1    
   127   64   65 am   BACKBONE|DICT|INTERRES
   128   64  142 1    
   129   65   66 2    
   130   65   67 1    
   131   67   68 1    
   132   67   69 1    
   133   67  143 1    
   134   68  144 1    
   135   68  145 1    
   136   68  146 1    
   137   69   70 am   BACKBONE|DICT|INTERRES
   138   69  147 1    
   139   70   71 2    
   140   70   72 1    
   141   72   73 1    
   142   72   74 1    
   143   72  148 1    
   144   73  149 1    
   145   73  150 1    
   146   73  151 1    
   147   74   75 am   BACKBONE|DICT|INTERRES
   148   74  152 1    
   149   75   76 2    
   150   75   77 1    
   151   77   78 1    
   152   77   79 1    
   153   77  153 1    
   154   78  154 1    
   155   78  155 1    
   156   78  156 1    
   157   79   80 am   BACKBONE|DICT|INTERRES
   158   79  157 1    
   159   80   81 2    
@<TRIPOS>SUBSTRUCTURE
     1 UNK         1 GROUP             0       ****    0 ROOT    
