@<TRIPOS>MOLECULE
3R207
157   159    1
SMALL
USER_CHARGES


@<TRIPOS>ATOM
      1 CA        -45.0054  -29.8126    2.5090 C.3       0 UNK        -0.1975 
      2 C         -46.1918  -28.8613    2.5613 C.2       0 UNK         0.4852 
      3 O         -46.1908  -27.8447    1.8662 O.2       0 UNK        -0.5216 
      4 N         -47.2037  -29.1843    3.3793 N.am      1 UNK        -0.4461 
      5 CA        -48.4188  -28.3809    3.5700 C.3       1 UNK         0.0864 
      6 C6        -49.5202  -29.2008    4.2954 C.3       14 UNK        -0.0898 
      7 S7        -51.2117  -28.6265    3.9182 S.3       14 UNK        -0.2598 
      8 C8        -52.2306  -29.8579    4.7984 C.3       14 UNK         0.0286 
      9 C9        -52.2899  -29.5790    6.2938 C.ar      14 UNK        -0.0844 
     10 C10       -51.3217  -30.1144    7.1472 C.ar      14 UNK        -0.0881 
     11 C11       -51.3318  -29.8085    8.5100 C.ar      14 UNK        -0.0643 
     12 C12       -52.3431  -28.9968    9.0287 C.ar      14 UNK        -0.0930 
     13 C13       -53.3371  -28.4817    8.1931 C.ar      14 UNK        -0.0827 
     14 C14       -53.3032  -28.7732    6.8248 C.ar      14 UNK        -0.1249 
     15 C15       -54.4154  -27.5676    8.7564 C.3       14 UNK         0.0141 
     16 S16       -55.9077  -28.4895    9.2409 S.3       14 UNK        -0.2313 
     17 C17       -55.5175  -28.9935   10.9527 C.3       14 UNK        -0.0915 
     18 CA        -56.0945  -28.0174   12.0127 C.3       13 UNK         0.0968 
     19 C         -57.6445  -28.0955   12.1079 C.2       13 UNK         0.5732 
     20 N         -58.3601  -27.1619   11.4961 N.am      13 UNK        -0.7310 
     21 O         -58.1988  -29.0121   12.7128 O.2       13 UNK        -0.5035 
     22 N         -55.4727  -28.2473   13.3239 N.am      13 UNK        -0.4233 
     23 C         -55.5151  -27.3799   14.3437 C.2       13 UNK         0.4989 
     24 O         -55.9860  -26.2454   14.2427 O.2       13 UNK        -0.4996 
     25 CA        -54.9427  -27.8460   15.6986 C.3       12 UNK         0.0216 
     26 CB        -54.0790  -29.1212   15.6164 C.3       12 UNK        -0.1964 
     27 N         -54.1509  -26.7732   16.3006 N.am      12 UNK        -0.4276 
     28 C         -54.6080  -25.8729   17.1814 C.2       12 UNK         0.5020 
     29 O         -55.7334  -25.9023   17.6826 O.2       12 UNK        -0.5489 
     30 CA        -53.6440  -24.7389   17.5626 C.3       11 UNK         0.0294 
     31 CB        -52.6721  -25.1982   18.6607 C.3       11 UNK        -0.2019 
     32 N         -52.8857  -24.2722   16.4011 N.am      11 UNK        -0.4493 
     33 C         -53.3519  -23.4080   15.4893 C.2       11 UNK         0.4932 
     34 O         -54.4429  -22.8430   15.5854 O.2       11 UNK        -0.5029 
     35 CA        -52.4515  -23.1348   14.2647 C.3       10 UNK         0.0280 
     36 CB        -52.8524  -21.8609   13.4916 C.3       10 UNK        -0.1976 
     37 N         -51.0178  -23.1145   14.5774 N.am      10 UNK        -0.4242 
     38 C         -50.3807  -22.3236   15.4549 C.2       10 UNK         0.5072 
     39 O         -50.9262  -21.4481   16.1296 O.2       10 UNK        -0.5224 
     40 CA        -48.8677  -22.5792   15.5902 C.3       9 UNK         0.0343 
     41 CB        -48.2118  -21.8098   16.7575 C.3       9 UNK        -0.2003 
     42 N         -48.5659  -24.0156   15.6482 N.am      9 UNK        -0.4272 
     43 C         -48.9169  -24.8816   16.6097 C.2       9 UNK         0.4988 
     44 O         -49.4936  -24.5661   17.6511 O.2       9 UNK        -0.5108 
     45 CA        -48.5732  -26.3549   16.3315 C.3       8 UNK         0.0248 
     46 CB        -48.8958  -27.2880   17.5190 C.3       8 UNK        -0.2001 
     47 N         -49.1893  -26.8515   15.0952 N.am      8 UNK        -0.4140 
     48 C         -50.4993  -26.9737   14.8250 C.2       8 UNK         0.5028 
     49 O         -51.3894  -26.6024   15.5919 O.2       8 UNK        -0.5428 
     50 CA        -50.9159  -27.6105   13.4810 C.3       7 UNK         0.0264 
     51 CB        -52.0014  -26.7682   12.7897 C.3       7 UNK        -0.1988 
     52 N         -49.8028  -27.8408   12.5537 N.am      7 UNK        -0.4454 
     53 C         -48.9320  -28.8595   12.6407 C.2       7 UNK         0.5027 
     54 O         -49.0589  -29.7879   13.4397 O.2       7 UNK        -0.5083 
     55 CA        -47.6629  -28.8047   11.7603 C.3       6 UNK         0.0844 
     56 C56       -47.6992  -29.7945   10.5703 C.3       14 UNK        -0.0967 
     57 S57       -48.7449  -29.2576    9.1829 S.3       14 UNK        -0.2604 
     58 C58       -50.2137  -30.3010    9.4090 C.3       14 UNK         0.0134 
     59 N         -47.2922  -27.4352   11.3783 N.am      6 UNK        -0.4116 
     60 C         -46.8151  -26.5323   12.2483 C.2       5 UNK         0.5034 
     61 O         -46.6328  -26.7638   13.4443 O.2       5 UNK        -0.5045 
     62 CA        -46.5481  -25.1203   11.7155 C.3       5 UNK         0.0224 
     63 CB        -45.2987  -25.0843   10.8197 C.3       5 UNK        -0.1978 
     64 N         -47.7053  -24.5864   10.9980 N.am      5 UNK        -0.4737 
     65 C         -48.8394  -24.1925   11.5934 C.2       4 UNK         0.5027 
     66 O         -49.0355  -24.2644   12.8060 O.2       4 UNK        -0.5211 
     67 CA        -49.9515  -23.6312   10.6934 C.3       4 UNK         0.0297 
     68 CB        -49.7909  -22.1126   10.5285 C.3       4 UNK        -0.1993 
     69 N         -50.0160  -24.2706    9.3774 N.am      4 UNK        -0.4486 
     70 C         -50.3356  -25.5581    9.1932 C.2       3 UNK         0.4961 
     71 O         -50.5768  -26.3401   10.1095 O.2       3 UNK        -0.5105 
     72 CA        -50.3631  -26.0639    7.7462 C.3       3 UNK         0.0299 
     73 CB        -51.5923  -25.5229    6.9985 C.3       3 UNK        -0.1972 
     74 N         -49.1601  -25.7891    6.9586 N.am      3 UNK        -0.4305 
     75 C         -47.8817  -25.9739    7.3183 C.2       2 UNK         0.5006 
     76 O         -47.5014  -26.1959    8.4693 O.2       2 UNK        -0.5106 
     77 CA        -46.8654  -25.9628    6.1592 C.3       2 UNK         0.0296 
     78 CB        -45.4099  -26.0918    6.6467 C.3       2 UNK        -0.2002 
     79 N         -47.1549  -27.0541    5.2221 N.am      2 UNK        -0.4032 
     80 C         -48.1406  -27.0531    4.3102 C.2       1 UNK         0.5000 
     81 O         -48.8383  -26.0635    4.0757 O.2       1 UNK        -0.5238 
     82 H82       -44.0954  -29.2939    2.8096 H         1 UNK         0.0889 
     83 H83       -44.8668  -30.1834    1.4938 H         1 UNK         0.0889 
     84 H84       -45.1399  -30.6706    3.1674 H         1 UNK         0.0889 
     85 H85       -47.1515  -30.0408    3.9129 H         1 UNK         0.3028 
     86 H86       -48.7832  -28.1217    2.5732 H         1 UNK         0.0864 
     87 H87       -49.3627  -29.1967    5.3753 H         1 UNK         0.0720 
     88 H88       -49.4704  -30.2466    3.9874 H         1 UNK         0.0720 
     89 H89       -51.8460  -30.8615    4.6108 H         1 UNK         0.0814 
     90 H90       -53.2386  -29.8389    4.3815 H         1 UNK         0.0814 
     91 H91       -50.5323  -30.7354    6.7471 H         1 UNK         0.1469 
     92 H92       -52.3331  -28.7405   10.0780 H         1 UNK         0.1381 
     93 H93       -54.0562  -28.3569    6.1695 H         1 UNK         0.1206 
     94 H94       -54.6965  -26.8299    8.0035 H         1 UNK         0.0813 
     95 H95       -54.0328  -26.9988    9.6058 H         1 UNK         0.0813 
     96 H96       -55.8938  -30.0057   11.1116 H         1 UNK         0.0638 
     97 H97       -54.4346  -29.0613   11.0557 H         1 UNK         0.0638 
     98 H98       -55.8211  -27.0046   11.7087 H         1 UNK         0.0568 
     99 H99       -59.3658  -27.2065   11.5414 H         1 UNK         0.3450 
    100 H100      -57.9134  -26.4181   10.9833 H         1 UNK         0.3450 
    101 H101      -55.1070  -29.1729   13.4875 H         1 UNK         0.2987 
    102 H102      -55.7985  -28.0707   16.3382 H         1 UNK         0.0766 
    103 H103      -53.2465  -29.0063   14.9245 H         1 UNK         0.0798 
    104 H104      -54.6667  -29.9827   15.2972 H         1 UNK         0.0798 
    105 H105      -53.6608  -29.3720   16.5916 H         1 UNK         0.0798 
    106 H106      -53.1930  -26.6687   15.9680 H         1 UNK         0.3198 
    107 H107      -54.2356  -23.9103   17.9585 H         1 UNK         0.0843 
    108 H108      -52.0202  -24.3836   18.9768 H         1 UNK         0.0831 
    109 H109      -52.0378  -26.0183   18.3224 H         1 UNK         0.0831 
    110 H110      -53.2131  -25.5437   19.5425 H         1 UNK         0.0831 
    111 H111      -52.0055  -24.7447   16.2217 H         1 UNK         0.3133 
    112 H112      -52.6034  -23.9794   13.5936 H         1 UNK         0.0566 
    113 H113      -53.8839  -21.9221   13.1426 H         1 UNK         0.0814 
    114 H114      -52.7717  -20.9693   14.1142 H         1 UNK         0.0814 
    115 H115      -52.2240  -21.7153   12.6132 H         1 UNK         0.0814 
    116 H116      -50.4364  -23.7612   14.0502 H         1 UNK         0.3091 
    117 H117      -48.4168  -22.2130   14.6666 H         1 UNK         0.0702 
    118 H118      -47.1438  -22.0181   16.8195 H         1 UNK         0.0785 
    119 H119      -48.6607  -22.0639   17.7180 H         1 UNK         0.0785 
    120 H120      -48.3251  -20.7333   16.6241 H         1 UNK         0.0785 
    121 H121      -48.1848  -24.3982   14.7904 H         1 UNK         0.2998 
    122 H122      -47.4945  -26.3938   16.1725 H         1 UNK         0.0697 
    123 H123      -48.5911  -28.3135   17.3107 H         1 UNK         0.0825 
    124 H124      -48.3684  -26.9689   18.4188 H         1 UNK         0.0825 
    125 H125      -49.9601  -27.2967   17.7547 H         1 UNK         0.0825 
    126 H126      -48.5306  -27.1207   14.3744 H         1 UNK         0.3029 
    127 H127      -51.3536  -28.5796   13.7231 H         1 UNK         0.0897 
    128 H128      -52.3927  -27.2710   11.9065 H         1 UNK         0.0792 
    129 H129      -52.8484  -26.5799   13.4481 H         1 UNK         0.0792 
    130 H130      -51.6115  -25.8000   12.4790 H         1 UNK         0.0792 
    131 H131      -49.6937  -27.1619   11.8061 H         1 UNK         0.3086 
    132 H132      -46.8598  -29.1646   12.4078 H         1 UNK         0.0583 
    133 H133      -46.6875  -29.9138   10.1796 H         1 UNK         0.1020 
    134 H134      -47.9967  -30.7916   10.9011 H         1 UNK         0.1020 
    135 H135      -49.9690  -31.3382    9.1753 H         1 UNK         0.0694 
    136 H136      -50.5276  -30.2771   10.4536 H         1 UNK         0.0694 
    137 H137      -47.4535  -27.1647   10.4128 H         1 UNK         0.2989 
    138 H138      -46.3583  -24.4743   12.5760 H         1 UNK         0.1055 
    139 H139      -45.3981  -25.7294    9.9469 H         1 UNK         0.0806 
    140 H140      -44.4186  -25.4200   11.3699 H         1 UNK         0.0806 
    141 H141      -45.0927  -24.0737   10.4670 H         1 UNK         0.0806 
    142 H142      -47.6676  -24.6110    9.9864 H         1 UNK         0.3061 
    143 H143      -50.9023  -23.8149   11.1982 H         1 UNK         0.0734 
    144 H144      -50.6256  -21.6823    9.9749 H         1 UNK         0.0832 
    145 H145      -49.7599  -21.6171   11.5002 H         1 UNK         0.0832 
    146 H146      -48.8696  -21.8572   10.0034 H         1 UNK         0.0832 
    147 H147      -49.8094  -23.7016    8.5694 H         1 UNK         0.3156 
    148 H148      -50.4562  -27.1494    7.7907 H         1 UNK         0.0589 
    149 H149      -51.5031  -24.4574    6.7851 H         1 UNK         0.0808 
    150 H150      -51.7374  -26.0456    6.0524 H         1 UNK         0.0808 
    151 H151      -52.5006  -25.6624    7.5845 H         1 UNK         0.0808 
    152 H152      -49.3169  -25.6380    5.9666 H         1 UNK         0.3098 
    153 H153      -46.9627  -25.0072    5.6397 H         1 UNK         0.0720 
    154 H154      -45.1536  -25.2777    7.3260 H         1 UNK         0.0791 
    155 H155      -45.2430  -27.0275    7.1821 H         1 UNK         0.0791 
    156 H156      -44.7076  -26.0510    5.8140 H         1 UNK         0.0791 
    157 H157      -46.6444  -27.9132    5.3643 H         1 UNK         0.3028 
@<TRIPOS>BOND
     1    1    2 1    
     2    1   82 1    
     3    1   83 1    
     4    1   84 1    
     5    2    3 2    
     6    2    4 am   BACKBONE|DICT|INTERRES
     7    4    5 1    
     8    4   85 1    
     9    5    6 1    
    10    5   80 1    
    11    5   86 1    
    12    6    7 1    
    13    6   87 1    
    14    6   88 1    
    15    7    8 1    
    16    8    9 1    
    17    8   89 1    
    18    8   90 1    
    19    9   10 ar   
    20    9   14 ar   
    21   10   11 ar   
    22   10   91 1    
    23   11   12 ar   
    24   11   58 1    
    25   12   13 ar   
    26   12   92 1    
    27   13   14 ar   
    28   13   15 1    
    29   14   93 1    
    30   15   16 1    
    31   15   94 1    
    32   15   95 1    
    33   16   17 1    
    34   17   18 1    
    35   17   96 1    
    36   17   97 1    
    37   18   19 1    
    38   18   22 1    
    39   18   98 1    
    40   19   20 am   BACKBONE|DICT|INTERRES
    41   19   21 2    
    42   20   99 1    
    43   20  100 1    
    44   22   23 am   BACKBONE|DICT|INTERRES
    45   22  101 1    
    46   23   24 2    
    47   23   25 1    
    48   25   26 1    
    49   25   27 1    
    50   25  102 1    
    51   26  103 1    
    52   26  104 1    
    53   26  105 1    
    54   27   28 am   BACKBONE|DICT|INTERRES
    55   27  106 1    
    56   28   29 2    
    57   28   30 1    
    58   30   31 1    
    59   30   32 1    
    60   30  107 1    
    61   31  108 1    
    62   31  109 1    
    63   31  110 1    
    64   32   33 am   BACKBONE|DICT|INTERRES
    65   32  111 1    
    66   33   34 2    
    67   33   35 1    
    68   35   36 1    
    69   35   37 1    
    70   35  112 1    
    71   36  113 1    
    72   36  114 1    
    73   36  115 1    
    74   37   38 am   BACKBONE|DICT|INTERRES
    75   37  116 1    
    76   38   39 2    
    77   38   40 1    
    78   40   41 1    
    79   40   42 1    
    80   40  117 1    
    81   41  118 1    
    82   41  119 1    
    83   41  120 1    
    84   42   43 am   BACKBONE|DICT|INTERRES
    85   42  121 1    
    86   43   44 2    
    87   43   45 1    
    88   45   46 1    
    89   45   47 1    
    90   45  122 1    
    91   46  123 1    
    92   46  124 1    
    93   46  125 1    
    94   47   48 am   BACKBONE|DICT|INTERRES
    95   47  126 1    
    96   48   49 2    
    97   48   50 1    
    98   50   51 1    
    99   50   52 1    
   100   50  127 1    
   101   51  128 1    
   102   51  129 1    
   103   51  130 1    
   104   52   53 am   BACKBONE|DICT|INTERRES
   105   52  131 1    
   106   53   54 2    
   107   53   55 1    
   108   55   56 1    
   109   55   59 1    
   110   55  132 1    
   111   56   57 1    
   112   56  133 1    
   113   56  134 1    
   114   57   58 1    
   115   58  135 1    
   116   58  136 1    
   117   59   60 am   BACKBONE|DICT|INTERRES
   118   59  137 1    
   119   60   61 2    
   120   60   62 1    
   121   62   63 1    
   122   62   64 1    
   123   62  138 1    
   124   63  139 1    
   125   63  140 1    
   126   63  141 1    
   127   64   65 am   BACKBONE|DICT|INTERRES
   128   64  142 1    
   129   65   66 2    
   130   65   67 1    
   131   67   68 1    
   132   67   69 1    
   133   67  143 1    
   134   68  144 1    
   135   68  145 1    
   136   68  146 1    
   137   69   70 am   BACKBONE|DICT|INTERRES
   138   69  147 1    
   139   70   71 2    
   140   70   72 1    
   141   72   73 1    
   142   72   74 1    
   143   72  148 1    
   144   73  149 1    
   145   73  150 1    
   146   73  151 1    
   147   74   75 am   BACKBONE|DICT|INTERRES
   148   74  152 1    
   149   75   76 2    
   150   75   77 1    
   151   77   78 1    
   152   77   79 1    
   153   77  153 1    
   154   78  154 1    
   155   78  155 1    
   156   78  156 1    
   157   79   80 am   BACKBONE|DICT|INTERRES
   158   79  157 1    
   159   80   81 2    
@<TRIPOS>SUBSTRUCTURE
     1 UNK         1 GROUP             0       ****    0 ROOT    
