@<TRIPOS>MOLECULE
3R207
157   159    1
SMALL
USER_CHARGES


@<TRIPOS>ATOM
      1 CA        -52.7340  -23.2223    9.6602 C.3       0 UNK        -0.1975 
      2 C         -51.8050  -23.6888    8.5485 C.2       0 UNK         0.4852 
      3 O         -51.4568  -22.8987    7.6700 O.2       0 UNK        -0.5216 
      4 N         -51.3958  -24.9636    8.5871 N.am      1 UNK        -0.4461 
      5 CA        -50.5212  -25.6582    7.6322 C.3       1 UNK         0.0864 
      6 C6        -51.1052  -25.7371    6.1953 C.3       14 UNK        -0.0898 
      7 S7        -50.3985  -27.1133    5.2220 S.3       14 UNK        -0.2598 
      8 C8        -51.6025  -28.4525    5.5248 C.3       14 UNK         0.0286 
      9 C9        -51.6804  -28.8142    7.0015 C.ar      14 UNK        -0.0844 
     10 C10       -50.6070  -29.4593    7.6222 C.ar      14 UNK        -0.0881 
     11 C11       -50.6190  -29.7026    8.9993 C.ar      14 UNK        -0.0643 
     12 C12       -51.7545  -29.3619    9.7410 C.ar      14 UNK        -0.0930 
     13 C13       -52.8351  -28.7183    9.1319 C.ar      14 UNK        -0.0827 
     14 C14       -52.7948  -28.4483    7.7615 C.ar      14 UNK        -0.1249 
     15 C15       -54.0343  -28.2958    9.9620 C.3       14 UNK         0.0141 
     16 S16       -53.6244  -26.9030   11.0614 S.3       14 UNK        -0.2313 
     17 C17       -55.2499  -26.5973   11.8339 C.3       14 UNK        -0.0915 
     18 CA        -55.3185  -26.9832   13.3428 C.3       13 UNK         0.0968 
     19 C         -56.6684  -26.5705   14.0052 C.2       13 UNK         0.5732 
     20 N         -57.1931  -27.3189   14.9691 N.am      13 UNK        -0.7310 
     21 O         -57.2469  -25.5445   13.6542 O.2       13 UNK        -0.5035 
     22 N         -54.9069  -28.3676   13.6285 N.am      13 UNK        -0.4233 
     23 C         -55.4674  -29.4920   13.1628 C.2       13 UNK         0.4989 
     24 O         -56.4125  -29.5218   12.3745 O.2       13 UNK        -0.4996 
     25 CA        -54.8647  -30.8208   13.6570 C.3       12 UNK         0.0216 
     26 CB        -53.7875  -31.3167   12.6779 C.3       12 UNK        -0.1964 
     27 N         -54.2866  -30.7269   15.0008 N.am      12 UNK        -0.4276 
     28 C         -54.9996  -30.5794   16.1262 C.2       12 UNK         0.5020 
     29 O         -56.2305  -30.5791   16.1634 O.2       12 UNK        -0.5489 
     30 CA        -54.2024  -30.3453   17.4230 C.3       11 UNK         0.0294 
     31 CB        -53.8176  -31.6856   18.0701 C.3       11 UNK        -0.2019 
     32 N         -52.9988  -29.5207   17.2429 N.am      11 UNK        -0.4493 
     33 C         -52.9981  -28.2661   16.7711 C.2       11 UNK         0.4932 
     34 O         -54.0109  -27.6829   16.3820 O.2       11 UNK        -0.5029 
     35 CA        -51.6313  -27.5732   16.6593 C.3       10 UNK         0.0280 
     36 CB        -50.9212  -28.0058   15.3643 C.3       10 UNK        -0.1976 
     37 N         -51.7808  -26.1150   16.6695 N.am      10 UNK        -0.4242 
     38 C         -52.0852  -25.3983   17.7642 C.2       10 UNK         0.5072 
     39 O         -52.1694  -25.8895   18.8917 O.2       10 UNK        -0.5224 
     40 CA        -52.3185  -23.8812   17.6081 C.3       9 UNK         0.0343 
     41 CB        -51.1055  -23.0961   18.1350 C.3       9 UNK        -0.2003 
     42 N         -52.5887  -23.4605   16.2336 N.am      9 UNK        -0.4272 
     43 C         -53.7324  -23.6701   15.5662 C.2       9 UNK         0.4988 
     44 O         -54.7428  -24.1526   16.0760 O.2       9 UNK        -0.5108 
     45 CA        -53.7523  -23.2851   14.0709 C.3       8 UNK         0.0248 
     46 CB        -54.5201  -21.9698   13.8631 C.3       8 UNK        -0.2001 
     47 N         -52.4254  -23.1717   13.4480 N.am      8 UNK        -0.4140 
     48 C         -51.5277  -24.1630   13.3692 C.2       8 UNK         0.5028 
     49 O         -51.7070  -25.2897   13.8370 O.2       8 UNK        -0.5428 
     50 CA        -50.1828  -23.8227   12.7240 C.3       7 UNK         0.0264 
     51 CB        -49.3203  -22.9594   13.6642 C.3       7 UNK        -0.1988 
     52 N         -49.4944  -25.0754   12.4338 N.am      7 UNK        -0.4454 
     53 C         -48.5714  -25.2471   11.4847 C.2       7 UNK         0.5027 
     54 O         -48.1654  -24.3277   10.7701 O.2       7 UNK        -0.5083 
     55 CA        -48.0389  -26.6853   11.3012 C.3       6 UNK         0.0844 
     56 C56       -49.1475  -27.6299   10.7697 C.3       14 UNK        -0.0967 
     57 S57       -48.8504  -29.3832   11.1840 S.3       14 UNK        -0.2604 
     58 C58       -49.3804  -30.2845    9.6783 C.3       14 UNK         0.0134 
     59 N         -46.8887  -26.6557   10.3965 N.am      6 UNK        -0.4116 
     60 C         -45.6212  -26.4349   10.7663 C.2       5 UNK         0.5034 
     61 O         -45.2510  -26.4030   11.9416 O.2       5 UNK        -0.5045 
     62 CA        -44.5993  -26.1592    9.6413 C.3       5 UNK         0.0224 
     63 CB        -43.1723  -26.6280    9.9992 C.3       5 UNK        -0.1978 
     64 N         -45.0115  -26.6577    8.3216 N.am      5 UNK        -0.4737 
     65 C         -45.1861  -27.9351    7.9459 C.2       4 UNK         0.5027 
     66 O         -44.9367  -28.8992    8.6697 O.2       4 UNK        -0.5211 
     67 CA        -45.7660  -28.1900    6.5412 C.3       4 UNK         0.0297 
     68 CB        -46.9896  -29.1153    6.6279 C.3       4 UNK        -0.1993 
     69 N         -46.1861  -26.9485    5.8898 N.am      4 UNK        -0.4486 
     70 C         -45.5439  -26.3376    4.8860 C.2       3 UNK         0.4961 
     71 O         -44.5256  -26.7800    4.3538 O.2       3 UNK        -0.5105 
     72 CA        -46.1249  -24.9981    4.3893 C.3       3 UNK         0.0299 
     73 CB        -46.9758  -25.2236    3.1290 C.3       3 UNK        -0.1972 
     74 N         -46.9316  -24.2877    5.3867 N.am      3 UNK        -0.4305 
     75 C         -46.4755  -23.8051    6.5519 C.2       2 UNK         0.5006 
     76 O         -45.2988  -23.8716    6.9076 O.2       2 UNK        -0.5106 
     77 CA        -47.5186  -23.2093    7.5136 C.3       2 UNK         0.0296 
     78 CB        -47.7004  -21.7065    7.2507 C.3       2 UNK        -0.2002 
     79 N         -48.8281  -23.8721    7.4748 N.am      2 UNK        -0.4032 
     80 C         -49.0545  -25.1806    7.6533 C.2       1 UNK         0.5000 
     81 O         -48.1568  -26.0080    7.8295 O.2       1 UNK        -0.5238 
     82 H82       -53.7046  -22.9511    9.2459 H         1 UNK         0.0889 
     83 H83       -52.3181  -22.3445   10.1535 H         1 UNK         0.0889 
     84 H84       -52.8919  -23.9931   10.4138 H         1 UNK         0.0889 
     85 H85       -51.7357  -25.5496    9.3376 H         1 UNK         0.3028 
     86 H86       -50.4929  -26.6722    8.0219 H         1 UNK         0.0864 
     87 H87       -50.9461  -24.8032    5.6536 H         1 UNK         0.0720 
     88 H88       -52.1871  -25.8705    6.2375 H         1 UNK         0.0720 
     89 H89       -51.3068  -29.3325    4.9520 H         1 UNK         0.0814 
     90 H90       -52.5801  -28.1531    5.1437 H         1 UNK         0.0814 
     91 H91       -49.7439  -29.7289    7.0317 H         1 UNK         0.1469 
     92 H92       -51.7753  -29.5491   10.8054 H         1 UNK         0.1381 
     93 H93       -53.6210  -27.9334    7.2903 H         1 UNK         0.1206 
     94 H94       -54.3765  -29.1458   10.5497 H         1 UNK         0.0813 
     95 H95       -54.8665  -28.0119    9.3160 H         1 UNK         0.0813 
     96 H96       -55.4531  -25.5321   11.7119 H         1 UNK         0.0638 
     97 H97       -56.0308  -27.1110   11.2716 H         1 UNK         0.0638 
     98 H98       -54.5734  -26.3758   13.8565 H         1 UNK         0.0568 
     99 H99       -56.7162  -28.1481   15.2897 H         1 UNK         0.3450 
    100 H100      -58.0605  -27.0364   15.3959 H         1 UNK         0.3450 
    101 H101      -54.1987  -28.4459   14.3448 H         1 UNK         0.2987 
    102 H102      -55.6699  -31.5583   13.6829 H         1 UNK         0.0766 
    103 H103      -53.4057  -32.2953   12.9696 H         1 UNK         0.0798 
    104 H104      -52.9431  -30.6287   12.6245 H         1 UNK         0.0798 
    105 H105      -54.1915  -31.4175   11.6695 H         1 UNK         0.0798 
    106 H106      -53.2793  -30.7288   15.0711 H         1 UNK         0.3198 
    107 H107      -54.8601  -29.8115   18.1127 H         1 UNK         0.0843 
    108 H108      -53.1277  -32.2551   17.4460 H         1 UNK         0.0831 
    109 H109      -54.6994  -32.3076   18.2311 H         1 UNK         0.0831 
    110 H110      -53.3481  -31.5376   19.0429 H         1 UNK         0.0831 
    111 H111      -52.1214  -29.9300   17.5326 H         1 UNK         0.3133 
    112 H112      -51.0141  -27.8652   17.5116 H         1 UNK         0.0566 
    113 H113      -49.9799  -27.4730   15.2296 H         1 UNK         0.0814 
    114 H114      -50.6884  -29.0711   15.3805 H         1 UNK         0.0814 
    115 H115      -51.5378  -27.8237   14.4829 H         1 UNK         0.0814 
    116 H116      -51.7879  -25.6630   15.7595 H         1 UNK         0.3091 
    117 H117      -53.1850  -23.6220   18.2202 H         1 UNK         0.0702 
    118 H118      -50.8934  -23.3553   19.1734 H         1 UNK         0.0785 
    119 H119      -50.2051  -23.3072   17.5565 H         1 UNK         0.0785 
    120 H120      -51.2830  -22.0209   18.1023 H         1 UNK         0.0785 
    121 H121      -51.8198  -23.0428   15.7319 H         1 UNK         0.2998 
    122 H122      -54.2904  -24.0736   13.5432 H         1 UNK         0.0697 
    123 H123      -54.0205  -21.1290   14.3458 H         1 UNK         0.0825 
    124 H124      -55.5255  -22.0355   14.2820 H         1 UNK         0.0825 
    125 H125      -54.6297  -21.7357   12.8040 H         1 UNK         0.0825 
    126 H126      -52.1872  -22.2673   13.0663 H         1 UNK         0.3029 
    127 H127      -50.3724  -23.2852   11.7922 H         1 UNK         0.0897 
    128 H128      -48.3577  -22.7216   13.2107 H         1 UNK         0.0792 
    129 H129      -49.1252  -23.4663   14.6103 H         1 UNK         0.0792 
    130 H130      -49.8073  -22.0109   13.8932 H         1 UNK         0.0792 
    131 H131      -49.8502  -25.8633   12.9634 H         1 UNK         0.3086 
    132 H132      -47.7214  -27.0334   12.2865 H         1 UNK         0.0583 
    133 H133      -50.1291  -27.3818   11.1784 H         1 UNK         0.1020 
    134 H134      -49.2385  -27.5242    9.6909 H         1 UNK         0.1020 
    135 H135      -48.5381  -30.2998    8.9858 H         1 UNK         0.0694 
    136 H136      -49.5780  -31.3239    9.9424 H         1 UNK         0.0694 
    137 H137      -47.1171  -26.5803    9.4104 H         1 UNK         0.2989 
    138 H138      -44.5671  -25.0726    9.5443 H         1 UNK         0.1055 
    139 H139      -42.8053  -26.1183   10.8909 H         1 UNK         0.0806 
    140 H140      -42.4699  -26.4127    9.1940 H         1 UNK         0.0806 
    141 H141      -43.1347  -27.6986   10.2019 H         1 UNK         0.0806 
    142 H142      -45.2313  -25.9367    7.6438 H         1 UNK         0.3061 
    143 H143      -44.9939  -28.6905    5.9535 H         1 UNK         0.0734 
    144 H144      -47.4320  -29.2875    5.6465 H         1 UNK         0.0832 
    145 H145      -46.7223  -30.0889    7.0406 H         1 UNK         0.0832 
    146 H146      -47.7544  -28.6822    7.2724 H         1 UNK         0.0832 
    147 H147      -46.9995  -26.4998    6.3021 H         1 UNK         0.3156 
    148 H148      -45.2830  -24.3549    4.1251 H         1 UNK         0.0589 
    149 H149      -46.3978  -25.7265    2.3523 H         1 UNK         0.0808 
    150 H150      -47.8491  -25.8437    3.3374 H         1 UNK         0.0808 
    151 H151      -47.3247  -24.2798    2.7095 H         1 UNK         0.0808 
    152 H152      -47.9169  -24.1931    5.1877 H         1 UNK         0.3098 
    153 H153      -47.1271  -23.3325    8.5249 H         1 UNK         0.0720 
    154 H154      -48.3532  -21.2512    7.9959 H         1 UNK         0.0791 
    155 H155      -48.1314  -21.5176    6.2667 H         1 UNK         0.0791 
    156 H156      -46.7444  -21.1828    7.2961 H         1 UNK         0.0791 
    157 H157      -49.6494  -23.2778    7.3846 H         1 UNK         0.3028 
@<TRIPOS>BOND
     1    1    2 1    
     2    1   82 1    
     3    1   83 1    
     4    1   84 1    
     5    2    3 2    
     6    2    4 am   BACKBONE|DICT|INTERRES
     7    4    5 1    
     8    4   85 1    
     9    5    6 1    
    10    5   80 1    
    11    5   86 1    
    12    6    7 1    
    13    6   87 1    
    14    6   88 1    
    15    7    8 1    
    16    8    9 1    
    17    8   89 1    
    18    8   90 1    
    19    9   10 ar   
    20    9   14 ar   
    21   10   11 ar   
    22   10   91 1    
    23   11   12 ar   
    24   11   58 1    
    25   12   13 ar   
    26   12   92 1    
    27   13   14 ar   
    28   13   15 1    
    29   14   93 1    
    30   15   16 1    
    31   15   94 1    
    32   15   95 1    
    33   16   17 1    
    34   17   18 1    
    35   17   96 1    
    36   17   97 1    
    37   18   19 1    
    38   18   22 1    
    39   18   98 1    
    40   19   20 am   BACKBONE|DICT|INTERRES
    41   19   21 2    
    42   20   99 1    
    43   20  100 1    
    44   22   23 am   BACKBONE|DICT|INTERRES
    45   22  101 1    
    46   23   24 2    
    47   23   25 1    
    48   25   26 1    
    49   25   27 1    
    50   25  102 1    
    51   26  103 1    
    52   26  104 1    
    53   26  105 1    
    54   27   28 am   BACKBONE|DICT|INTERRES
    55   27  106 1    
    56   28   29 2    
    57   28   30 1    
    58   30   31 1    
    59   30   32 1    
    60   30  107 1    
    61   31  108 1    
    62   31  109 1    
    63   31  110 1    
    64   32   33 am   BACKBONE|DICT|INTERRES
    65   32  111 1    
    66   33   34 2    
    67   33   35 1    
    68   35   36 1    
    69   35   37 1    
    70   35  112 1    
    71   36  113 1    
    72   36  114 1    
    73   36  115 1    
    74   37   38 am   BACKBONE|DICT|INTERRES
    75   37  116 1    
    76   38   39 2    
    77   38   40 1    
    78   40   41 1    
    79   40   42 1    
    80   40  117 1    
    81   41  118 1    
    82   41  119 1    
    83   41  120 1    
    84   42   43 am   BACKBONE|DICT|INTERRES
    85   42  121 1    
    86   43   44 2    
    87   43   45 1    
    88   45   46 1    
    89   45   47 1    
    90   45  122 1    
    91   46  123 1    
    92   46  124 1    
    93   46  125 1    
    94   47   48 am   BACKBONE|DICT|INTERRES
    95   47  126 1    
    96   48   49 2    
    97   48   50 1    
    98   50   51 1    
    99   50   52 1    
   100   50  127 1    
   101   51  128 1    
   102   51  129 1    
   103   51  130 1    
   104   52   53 am   BACKBONE|DICT|INTERRES
   105   52  131 1    
   106   53   54 2    
   107   53   55 1    
   108   55   56 1    
   109   55   59 1    
   110   55  132 1    
   111   56   57 1    
   112   56  133 1    
   113   56  134 1    
   114   57   58 1    
   115   58  135 1    
   116   58  136 1    
   117   59   60 am   BACKBONE|DICT|INTERRES
   118   59  137 1    
   119   60   61 2    
   120   60   62 1    
   121   62   63 1    
   122   62   64 1    
   123   62  138 1    
   124   63  139 1    
   125   63  140 1    
   126   63  141 1    
   127   64   65 am   BACKBONE|DICT|INTERRES
   128   64  142 1    
   129   65   66 2    
   130   65   67 1    
   131   67   68 1    
   132   67   69 1    
   133   67  143 1    
   134   68  144 1    
   135   68  145 1    
   136   68  146 1    
   137   69   70 am   BACKBONE|DICT|INTERRES
   138   69  147 1    
   139   70   71 2    
   140   70   72 1    
   141   72   73 1    
   142   72   74 1    
   143   72  148 1    
   144   73  149 1    
   145   73  150 1    
   146   73  151 1    
   147   74   75 am   BACKBONE|DICT|INTERRES
   148   74  152 1    
   149   75   76 2    
   150   75   77 1    
   151   77   78 1    
   152   77   79 1    
   153   77  153 1    
   154   78  154 1    
   155   78  155 1    
   156   78  156 1    
   157   79   80 am   BACKBONE|DICT|INTERRES
   158   79  157 1    
   159   80   81 2    
@<TRIPOS>SUBSTRUCTURE
     1 UNK         1 GROUP             0       ****    0 ROOT    
