@<TRIPOS>MOLECULE
3R207
157   159    1
SMALL
USER_CHARGES


@<TRIPOS>ATOM
      1 CA        -49.7313  -30.4360    1.6148 C.3       0 UNK        -0.1975 
      2 C         -49.9530  -29.5075    2.7992 C.2       0 UNK         0.4852 
      3 O         -49.6633  -29.8870    3.9346 O.2       0 UNK        -0.5216 
      4 N         -50.4493  -28.2882    2.5423 N.am      1 UNK        -0.4461 
      5 CA        -50.7685  -27.2197    3.5032 C.3       1 UNK         0.0864 
      6 C6        -51.7902  -27.6569    4.5870 C.3       14 UNK        -0.0898 
      7 S7        -52.7595  -26.2609    5.2466 S.3       14 UNK        -0.2598 
      8 C8        -53.7141  -27.0867    6.5575 C.3       14 UNK         0.0286 
      9 C9        -52.9445  -27.1529    7.8692 C.ar      14 UNK        -0.0844 
     10 C10       -52.1178  -28.2454    8.1554 C.ar      14 UNK        -0.0881 
     11 C11       -51.4383  -28.3222    9.3749 C.ar      14 UNK        -0.0643 
     12 C12       -51.6013  -27.2962   10.3097 C.ar      14 UNK        -0.0930 
     13 C13       -52.4119  -26.1936   10.0353 C.ar      14 UNK        -0.0827 
     14 C14       -53.0837  -26.1284    8.8118 C.ar      14 UNK        -0.1249 
     15 C15       -52.5408  -25.0682   11.0535 C.3       14 UNK         0.0141 
     16 S16       -53.8578  -25.3830   12.2742 S.3       14 UNK        -0.2313 
     17 C17       -53.1084  -26.6862   13.3060 C.3       14 UNK        -0.0915 
     18 CA        -53.6866  -28.0963   13.0207 C.3       13 UNK         0.0968 
     19 C         -52.8179  -29.1880   13.7138 C.2       13 UNK         0.5732 
     20 N         -53.2956  -29.8817   14.7414 N.am      13 UNK        -0.7310 
     21 O         -51.6805  -29.4077   13.3068 O.2       13 UNK        -0.5035 
     22 N         -55.1174  -28.1509   13.3468 N.am      13 UNK        -0.4233 
     23 C         -55.9548  -29.1383   13.0080 C.2       13 UNK         0.4989 
     24 O         -55.6520  -30.0647   12.2540 O.2       13 UNK        -0.4996 
     25 CA        -57.3639  -29.0825   13.6375 C.3       12 UNK         0.0216 
     26 CB        -58.0239  -30.4747   13.7315 C.3       12 UNK        -0.1964 
     27 N         -57.3974  -28.4092   14.9466 N.am      12 UNK        -0.4276 
     28 C         -56.7054  -28.7325   16.0495 C.2       12 UNK         0.5020 
     29 O         -55.8984  -29.6626   16.1074 O.2       12 UNK        -0.5489 
     30 CA        -56.9013  -27.8094   17.2655 C.3       11 UNK         0.0294 
     31 CB        -56.4694  -28.4813   18.5817 C.3       11 UNK        -0.2019 
     32 N         -56.1520  -26.5618   17.1080 N.am      11 UNK        -0.4493 
     33 C         -56.4506  -25.5581   16.2761 C.2       11 UNK         0.4932 
     34 O         -57.4396  -25.5612   15.5421 O.2       11 UNK        -0.5029 
     35 CA        -55.4909  -24.3542   16.2317 C.3       10 UNK         0.0280 
     36 CB        -55.8615  -23.3166   17.3084 C.3       10 UNK        -0.1976 
     37 N         -54.0577  -24.6862   16.2780 N.am      10 UNK        -0.4242 
     38 C         -53.3357  -25.2295   17.2713 C.2       10 UNK         0.5072 
     39 O         -53.8185  -25.5987   18.3425 O.2       10 UNK        -0.5224 
     40 CA        -51.8247  -25.4279   17.0310 C.3       9 UNK         0.0343 
     41 CB        -51.4817  -26.9240   16.9296 C.3       9 UNK        -0.2003 
     42 N         -51.3012  -24.7373   15.8469 N.am      9 UNK        -0.4272 
     43 C         -51.1480  -23.4128   15.7267 C.2       9 UNK         0.4988 
     44 O         -51.4290  -22.6100   16.6179 O.2       9 UNK        -0.5108 
     45 CA        -50.5804  -22.9153   14.3838 C.3       8 UNK         0.0248 
     46 CB        -50.6491  -21.3829   14.2437 C.3       8 UNK        -0.2001 
     47 N         -49.1961  -23.3499   14.1805 N.am      8 UNK        -0.4140 
     48 C         -48.8175  -24.5821   13.8186 C.2       8 UNK         0.5028 
     49 O         -49.6128  -25.5100   13.6435 O.2       8 UNK        -0.5428 
     50 CA        -47.3049  -24.7893   13.6274 C.3       7 UNK         0.0264 
     51 CB        -46.5702  -24.9746   14.9709 C.3       7 UNK        -0.1988 
     52 N         -47.0364  -25.8658   12.6684 N.am      7 UNK        -0.4454 
     53 C         -47.0716  -27.1964   12.8451 C.2       7 UNK         0.5027 
     54 O         -47.1265  -27.7663   13.9360 O.2       7 UNK        -0.5083 
     55 CA        -47.0796  -28.0428   11.5533 C.3       6 UNK         0.0844 
     56 C56       -48.5319  -28.1092   11.0307 C.3       14 UNK        -0.0967 
     57 S57       -48.7773  -29.1603    9.5626 S.3       14 UNK        -0.2604 
     58 C58       -50.5602  -29.5270    9.6989 C.3       14 UNK         0.0134 
     59 N         -46.1453  -27.5291   10.5455 N.am      6 UNK        -0.4116 
     60 C         -44.8129  -27.4728   10.6918 C.2       5 UNK         0.5034 
     61 O         -44.2055  -27.9282   11.6615 O.2       5 UNK        -0.5045 
     62 CA        -44.0229  -26.7665    9.5803 C.3       5 UNK         0.0224 
     63 CB        -43.7041  -27.7381    8.4318 C.3       5 UNK        -0.1978 
     64 N         -44.7542  -25.6055    9.0664 N.am      5 UNK        -0.4737 
     65 C         -44.7340  -24.3925    9.6386 C.2       4 UNK         0.5027 
     66 O         -44.0299  -24.1088   10.6075 O.2       4 UNK        -0.5211 
     67 CA        -45.6521  -23.3081    9.0428 C.3       4 UNK         0.0297 
     68 CB        -44.8842  -22.4626    8.0144 C.3       4 UNK        -0.1993 
     69 N         -46.8639  -23.8444    8.4189 N.am      4 UNK        -0.4486 
     70 C         -47.8636  -24.4424    9.0818 C.2       3 UNK         0.4961 
     71 O         -47.8979  -24.5561   10.3056 O.2       3 UNK        -0.5105 
     72 CA        -48.9867  -25.0663    8.2349 C.3       3 UNK         0.0299 
     73 CB        -50.1269  -24.0599    8.0217 C.3       3 UNK        -0.1972 
     74 N         -48.5408  -25.5794    6.9353 N.am      3 UNK        -0.4305 
     75 C         -47.5916  -26.5058    6.7430 C.2       2 UNK         0.5006 
     76 O         -46.9195  -26.9822    7.6590 O.2       2 UNK        -0.5106 
     77 CA        -47.3408  -26.9524    5.2884 C.3       2 UNK         0.0296 
     78 CB        -46.3144  -28.0964    5.1914 C.3       2 UNK        -0.2002 
     79 N         -48.5744  -27.3681    4.6178 N.am      2 UNK        -0.4032 
     80 C         -49.5217  -26.5579    4.1298 C.2       1 UNK         0.5000 
     81 O         -49.4400  -25.3283    4.1710 O.2       1 UNK        -0.5238 
     82 H82       -48.6786  -30.7084    1.5442 H         1 UNK         0.0889 
     83 H83       -50.0266  -29.9747    0.6726 H         1 UNK         0.0889 
     84 H84       -50.3120  -31.3492    1.7417 H         1 UNK         0.0889 
     85 H85       -50.6296  -28.0431    1.5779 H         1 UNK         0.3028 
     86 H86       -51.2442  -26.4496    2.8931 H         1 UNK         0.0864 
     87 H87       -51.2941  -28.1832    5.4032 H         1 UNK         0.0720 
     88 H88       -52.5026  -28.3653    4.1613 H         1 UNK         0.0720 
     89 H89       -54.0063  -28.0871    6.2344 H         1 UNK         0.0814 
     90 H90       -54.6451  -26.5376    6.7068 H         1 UNK         0.0814 
     91 H91       -52.0136  -29.0444    7.4348 H         1 UNK         0.1469 
     92 H92       -51.1008  -27.3563   11.2631 H         1 UNK         0.1381 
     93 H93       -53.7175  -25.2798    8.5933 H         1 UNK         0.1206 
     94 H94       -51.5895  -24.9123   11.5655 H         1 UNK         0.0813 
     95 H95       -52.7606  -24.1313   10.5397 H         1 UNK         0.0813 
     96 H96       -53.2829  -26.4270   14.3482 H         1 UNK         0.0638 
     97 H97       -52.0260  -26.6628   13.1785 H         1 UNK         0.0638 
     98 H98       -53.6022  -28.2886   11.9503 H         1 UNK         0.0568 
     99 H99       -54.2344  -29.7313   15.0991 H         1 UNK         0.3450 
    100 H100      -52.7110  -30.5829   15.1658 H         1 UNK         0.3450 
    101 H101      -55.4603  -27.4240   13.9546 H         1 UNK         0.2987 
    102 H102      -57.9690  -28.4734   12.9644 H         1 UNK         0.0766 
    103 H103      -59.0237  -30.4119   14.1610 H         1 UNK         0.0798 
    104 H104      -57.4371  -31.1584   14.3460 H         1 UNK         0.0798 
    105 H105      -58.1257  -30.9295   12.7453 H         1 UNK         0.0798 
    106 H106      -57.9427  -27.5537   14.9881 H         1 UNK         0.3198 
    107 H107      -57.9652  -27.5739   17.3425 H         1 UNK         0.0843 
    108 H108      -55.4010  -28.7016   18.5925 H         1 UNK         0.0831 
    109 H109      -56.9986  -29.4234   18.7308 H         1 UNK         0.0831 
    110 H110      -56.6883  -27.8471   19.4410 H         1 UNK         0.0831 
    111 H111      -55.3176  -26.4475   17.6800 H         1 UNK         0.3133 
    112 H112      -55.6418  -23.8796   15.2606 H         1 UNK         0.0566 
    113 H113      -55.2386  -22.4254   17.2305 H         1 UNK         0.0814 
    114 H114      -56.8990  -22.9975   17.2004 H         1 UNK         0.0814 
    115 H115      -55.7500  -23.7158   18.3171 H         1 UNK         0.0814 
    116 H116      -53.5478  -24.4510   15.4388 H         1 UNK         0.3091 
    117 H117      -51.3108  -25.0239   17.9057 H         1 UNK         0.0702 
    118 H118      -50.4068  -27.0784   16.8311 H         1 UNK         0.0785 
    119 H119      -51.9656  -27.3979   16.0764 H         1 UNK         0.0785 
    120 H120      -51.8031  -27.4611   17.8232 H         1 UNK         0.0785 
    121 H121      -50.9562  -25.3126   15.0824 H         1 UNK         0.2998 
    122 H122      -51.1999  -23.3441   13.5929 H         1 UNK         0.0697 
    123 H123      -50.0368  -20.8787   14.9925 H         1 UNK         0.0825 
    124 H124      -51.6726  -21.0254   14.3653 H         1 UNK         0.0825 
    125 H125      -50.3107  -21.0589   13.2593 H         1 UNK         0.0825 
    126 H126      -48.4833  -22.6526   14.3409 H         1 UNK         0.3029 
    127 H127      -46.9115  -23.8886   13.1529 H         1 UNK         0.0897 
    128 H128      -45.5161  -25.2076   14.8194 H         1 UNK         0.0792 
    129 H129      -46.6183  -24.0639   15.5687 H         1 UNK         0.0792 
    130 H130      -47.0101  -25.7716   15.5712 H         1 UNK         0.0792 
    131 H131      -47.0826  -25.5432   11.7045 H         1 UNK         0.3086 
    132 H132      -46.7601  -29.0539   11.8140 H         1 UNK         0.0583 
    133 H133      -49.1841  -28.4826   11.8240 H         1 UNK         0.1020 
    134 H134      -48.8822  -27.1050   10.7884 H         1 UNK         0.1020 
    135 H135      -50.7924  -30.3513    9.0230 H         1 UNK         0.0694 
    136 H136      -50.7866  -29.8909   10.7021 H         1 UNK         0.0694 
    137 H137      -46.5503  -27.2081    9.6723 H         1 UNK         0.2989 
    138 H138      -43.0749  -26.4303   10.0071 H         1 UNK         0.1055 
    139 H139      -43.0855  -28.5639    8.7857 H         1 UNK         0.0806 
    140 H140      -43.1550  -27.2419    7.6315 H         1 UNK         0.0806 
    141 H141      -44.6059  -28.1739    8.0014 H         1 UNK         0.0806 
    142 H142      -45.4125  -25.7867    8.3167 H         1 UNK         0.3061 
    143 H143      -45.9593  -22.6540    9.8619 H         1 UNK         0.0734 
    144 H144      -45.4931  -21.6385    7.6423 H         1 UNK         0.0832 
    145 H145      -43.9895  -22.0255    8.4604 H         1 UNK         0.0832 
    146 H146      -44.5629  -23.0584    7.1592 H         1 UNK         0.0832 
    147 H147      -46.9218  -23.7976    7.4120 H         1 UNK         0.3156 
    148 H148      -49.3862  -25.9154    8.7916 H         1 UNK         0.0589 
    149 H149      -49.8013  -23.1943    7.4437 H         1 UNK         0.0808 
    150 H150      -50.9651  -24.5190    7.4968 H         1 UNK         0.0808 
    151 H151      -50.5065  -23.6941    8.9767 H         1 UNK         0.0808 
    152 H152      -49.0292  -25.2400    6.1118 H         1 UNK         0.3098 
    153 H153      -46.9300  -26.0921    4.7562 H         1 UNK         0.0720 
    154 H154      -46.1356  -28.3834    4.1551 H         1 UNK         0.0791 
    155 H155      -46.6484  -28.9828    5.7327 H         1 UNK         0.0791 
    156 H156      -45.3538  -27.7975    5.6126 H         1 UNK         0.0791 
    157 H157      -48.7559  -28.3679    4.5602 H         1 UNK         0.3028 
@<TRIPOS>BOND
     1    1    2 1    
     2    1   82 1    
     3    1   83 1    
     4    1   84 1    
     5    2    3 2    
     6    2    4 am   BACKBONE|DICT|INTERRES
     7    4    5 1    
     8    4   85 1    
     9    5    6 1    
    10    5   80 1    
    11    5   86 1    
    12    6    7 1    
    13    6   87 1    
    14    6   88 1    
    15    7    8 1    
    16    8    9 1    
    17    8   89 1    
    18    8   90 1    
    19    9   10 ar   
    20    9   14 ar   
    21   10   11 ar   
    22   10   91 1    
    23   11   12 ar   
    24   11   58 1    
    25   12   13 ar   
    26   12   92 1    
    27   13   14 ar   
    28   13   15 1    
    29   14   93 1    
    30   15   16 1    
    31   15   94 1    
    32   15   95 1    
    33   16   17 1    
    34   17   18 1    
    35   17   96 1    
    36   17   97 1    
    37   18   19 1    
    38   18   22 1    
    39   18   98 1    
    40   19   20 am   BACKBONE|DICT|INTERRES
    41   19   21 2    
    42   20   99 1    
    43   20  100 1    
    44   22   23 am   BACKBONE|DICT|INTERRES
    45   22  101 1    
    46   23   24 2    
    47   23   25 1    
    48   25   26 1    
    49   25   27 1    
    50   25  102 1    
    51   26  103 1    
    52   26  104 1    
    53   26  105 1    
    54   27   28 am   BACKBONE|DICT|INTERRES
    55   27  106 1    
    56   28   29 2    
    57   28   30 1    
    58   30   31 1    
    59   30   32 1    
    60   30  107 1    
    61   31  108 1    
    62   31  109 1    
    63   31  110 1    
    64   32   33 am   BACKBONE|DICT|INTERRES
    65   32  111 1    
    66   33   34 2    
    67   33   35 1    
    68   35   36 1    
    69   35   37 1    
    70   35  112 1    
    71   36  113 1    
    72   36  114 1    
    73   36  115 1    
    74   37   38 am   BACKBONE|DICT|INTERRES
    75   37  116 1    
    76   38   39 2    
    77   38   40 1    
    78   40   41 1    
    79   40   42 1    
    80   40  117 1    
    81   41  118 1    
    82   41  119 1    
    83   41  120 1    
    84   42   43 am   BACKBONE|DICT|INTERRES
    85   42  121 1    
    86   43   44 2    
    87   43   45 1    
    88   45   46 1    
    89   45   47 1    
    90   45  122 1    
    91   46  123 1    
    92   46  124 1    
    93   46  125 1    
    94   47   48 am   BACKBONE|DICT|INTERRES
    95   47  126 1    
    96   48   49 2    
    97   48   50 1    
    98   50   51 1    
    99   50   52 1    
   100   50  127 1    
   101   51  128 1    
   102   51  129 1    
   103   51  130 1    
   104   52   53 am   BACKBONE|DICT|INTERRES
   105   52  131 1    
   106   53   54 2    
   107   53   55 1    
   108   55   56 1    
   109   55   59 1    
   110   55  132 1    
   111   56   57 1    
   112   56  133 1    
   113   56  134 1    
   114   57   58 1    
   115   58  135 1    
   116   58  136 1    
   117   59   60 am   BACKBONE|DICT|INTERRES
   118   59  137 1    
   119   60   61 2    
   120   60   62 1    
   121   62   63 1    
   122   62   64 1    
   123   62  138 1    
   124   63  139 1    
   125   63  140 1    
   126   63  141 1    
   127   64   65 am   BACKBONE|DICT|INTERRES
   128   64  142 1    
   129   65   66 2    
   130   65   67 1    
   131   67   68 1    
   132   67   69 1    
   133   67  143 1    
   134   68  144 1    
   135   68  145 1    
   136   68  146 1    
   137   69   70 am   BACKBONE|DICT|INTERRES
   138   69  147 1    
   139   70   71 2    
   140   70   72 1    
   141   72   73 1    
   142   72   74 1    
   143   72  148 1    
   144   73  149 1    
   145   73  150 1    
   146   73  151 1    
   147   74   75 am   BACKBONE|DICT|INTERRES
   148   74  152 1    
   149   75   76 2    
   150   75   77 1    
   151   77   78 1    
   152   77   79 1    
   153   77  153 1    
   154   78  154 1    
   155   78  155 1    
   156   78  156 1    
   157   79   80 am   BACKBONE|DICT|INTERRES
   158   79  157 1    
   159   80   81 2    
@<TRIPOS>SUBSTRUCTURE
     1 UNK         1 GROUP             0       ****    0 ROOT    
