@<TRIPOS>MOLECULE
3R207
157   159    1
SMALL
USER_CHARGES


@<TRIPOS>ATOM
      1 CA        -50.4225  -27.7200    1.7267 C.3       0 UNK        -0.1975 
      2 C         -50.1114  -27.0201    3.0414 C.2       0 UNK         0.4852 
      3 O         -50.1113  -25.7899    3.0941 O.2       0 UNK        -0.5216 
      4 N         -49.8447  -27.7953    4.1019 N.am      1 UNK        -0.4461 
      5 CA        -49.5467  -27.3040    5.4559 C.3       1 UNK         0.0864 
      6 C6        -49.6537  -28.4290    6.5198 C.3       14 UNK        -0.0898 
      7 S7        -51.2263  -29.3587    6.4327 S.3       14 UNK        -0.2598 
      8 C8        -51.7185  -29.4866    8.1895 C.3       14 UNK         0.0286 
      9 C9        -52.4485  -28.2769    8.7811 C.ar      14 UNK        -0.0844 
     10 C10       -52.5498  -27.0441    8.1215 C.ar      14 UNK        -0.0881 
     11 C11       -53.2300  -25.9717    8.7057 C.ar      14 UNK        -0.0643 
     12 C12       -53.8375  -26.1395    9.9503 C.ar      14 UNK        -0.0930 
     13 C13       -53.7296  -27.3522   10.6321 C.ar      14 UNK        -0.0827 
     14 C14       -53.0328  -28.4129   10.0455 C.ar      14 UNK        -0.1249 
     15 C15       -54.3439  -27.4961   12.0147 C.3       14 UNK         0.0141 
     16 S16       -56.1509  -27.7176   11.9439 S.3       14 UNK        -0.2313 
     17 C17       -56.3093  -29.4299   11.3308 C.3       14 UNK        -0.0915 
     18 CA        -56.8159  -30.4217   12.4202 C.3       13 UNK         0.0968 
     19 C         -57.1395  -31.8339   11.8423 C.2       13 UNK         0.5732 
     20 N         -56.9502  -32.9146   12.5905 N.am      13 UNK        -0.7310 
     21 O         -57.6050  -31.9564   10.7114 O.2       13 UNK        -0.5035 
     22 N         -55.9771  -30.4307   13.6329 N.am      13 UNK        -0.4233 
     23 C         -54.6876  -30.7784   13.7109 C.2       13 UNK         0.4989 
     24 O         -54.0253  -31.1694   12.7484 O.2       13 UNK        -0.4996 
     25 CA        -54.0223  -30.6500   15.0979 C.3       12 UNK         0.0216 
     26 CB        -52.5082  -30.9290   15.0479 C.3       12 UNK        -0.1964 
     27 N         -54.2410  -29.3439   15.7340 N.am      12 UNK        -0.4276 
     28 C         -55.3695  -28.9439   16.3368 C.2       12 UNK         0.5020 
     29 O         -56.4029  -29.6150   16.3476 O.2       12 UNK        -0.5489 
     30 CA        -55.3528  -27.5858   17.0587 C.3       11 UNK         0.0294 
     31 CB        -55.2162  -27.7951   18.5755 C.3       11 UNK        -0.2019 
     32 N         -54.2741  -26.7045   16.6056 N.am      11 UNK        -0.4493 
     33 C         -54.3562  -25.8550   15.5767 C.2       11 UNK         0.4932 
     34 O         -55.3657  -25.7229   14.8866 O.2       11 UNK        -0.5029 
     35 CA        -53.1150  -25.0005   15.2543 C.3       10 UNK         0.0280 
     36 CB        -53.0710  -23.7353   16.1316 C.3       10 UNK        -0.1976 
     37 N         -51.8266  -25.7081   15.2838 N.am      10 UNK        -0.4242 
     38 C         -51.1916  -26.2872   16.3143 C.2       10 UNK         0.5072 
     39 O         -51.6577  -26.3769   17.4506 O.2       10 UNK        -0.5224 
     40 CA        -49.7990  -26.8624   16.0313 C.3       9 UNK         0.0343 
     41 CB        -49.8858  -28.1558   15.2040 C.3       9 UNK        -0.2003 
     42 N         -48.9672  -25.8790   15.3342 N.am      9 UNK        -0.4272 
     43 C         -47.8117  -25.3927   15.8070 C.2       9 UNK         0.4988 
     44 O         -47.2979  -25.7513   16.8678 O.2       9 UNK        -0.5108 
     45 CA        -47.0845  -24.3323   14.9628 C.3       8 UNK         0.0248 
     46 CB        -46.0153  -24.9893   14.0739 C.3       8 UNK        -0.2001 
     47 N         -47.9673  -23.5062   14.1349 N.am      8 UNK        -0.4140 
     48 C         -48.7979  -22.5676   14.6146 C.2       8 UNK         0.5028 
     49 O         -48.9719  -22.3584   15.8154 O.2       8 UNK        -0.5428 
     50 CA        -49.5479  -21.7013   13.5923 C.3       7 UNK         0.0264 
     51 CB        -48.6379  -20.5727   13.0792 C.3       7 UNK        -0.1988 
     52 N         -50.0115  -22.4964   12.4564 N.am      7 UNK        -0.4454 
     53 C         -51.2959  -22.7715   12.1850 C.2       7 UNK         0.5027 
     54 O         -52.2467  -22.3295   12.8305 O.2       7 UNK        -0.5083 
     55 CA        -51.5706  -23.7061   10.9859 C.3       6 UNK         0.0844 
     56 C56       -51.8378  -22.8644    9.7052 C.3       14 UNK        -0.0967 
     57 S57       -51.7006  -23.7558    8.1121 S.3       14 UNK        -0.2604 
     58 C58       -53.2918  -24.6308    7.9923 C.3       14 UNK         0.0134 
     59 N         -50.5263  -24.7148   10.7949 N.am      6 UNK        -0.4116 
     60 C         -50.1023  -25.6057   11.7009 C.2       5 UNK         0.5034 
     61 O         -50.5803  -25.7288   12.8278 O.2       5 UNK        -0.5045 
     62 CA        -48.8797  -26.4543   11.3195 C.3       5 UNK         0.0224 
     63 CB        -49.3274  -27.8282   10.8039 C.3       5 UNK        -0.1978 
     64 N         -47.9945  -25.8284   10.3294 N.am      5 UNK        -0.4737 
     65 C         -47.4106  -24.6236   10.4286 C.2       4 UNK         0.5027 
     66 O         -47.5922  -23.8548   11.3757 O.2       4 UNK        -0.5211 
     67 CA        -46.5252  -24.1936    9.2470 C.3       4 UNK         0.0297 
     68 CB        -45.4446  -23.1675    9.6493 C.3       4 UNK        -0.1993 
     69 N         -45.9628  -25.3372    8.5162 N.am      4 UNK        -0.4486 
     70 C         -45.0187  -26.1986    8.9326 C.2       3 UNK         0.4961 
     71 O         -44.4376  -26.1078   10.0140 O.2       3 UNK        -0.5105 
     72 CA        -44.6754  -27.3901    8.0106 C.3       3 UNK         0.0299 
     73 CB        -45.0845  -28.7158    8.6761 C.3       3 UNK        -0.1972 
     74 N         -45.2995  -27.3226    6.6862 N.am      3 UNK        -0.4305 
     75 C         -44.9823  -26.4514    5.7184 C.2       2 UNK         0.5006 
     76 O         -44.0312  -25.6724    5.7876 O.2       2 UNK        -0.5106 
     77 CA        -45.8960  -26.4102    4.4776 C.3       2 UNK         0.0296 
     78 CB        -45.2102  -27.0968    3.2849 C.3       2 UNK        -0.2002 
     79 N         -47.2366  -26.9883    4.6534 N.am      2 UNK        -0.4032 
     80 C         -48.1679  -26.6108    5.5462 C.2       1 UNK         0.5000 
     81 O         -47.9672  -25.7727    6.4276 O.2       1 UNK        -0.5238 
     82 H82       -51.4162  -27.4392    1.3789 H         1 UNK         0.0889 
     83 H83       -50.3921  -28.8051    1.8247 H         1 UNK         0.0889 
     84 H84       -49.6995  -27.4275    0.9657 H         1 UNK         0.0889 
     85 H85       -49.8970  -28.8004    4.0079 H         1 UNK         0.3028 
     86 H86       -50.2901  -26.5407    5.6951 H         1 UNK         0.0864 
     87 H87       -49.5456  -28.0042    7.5190 H         1 UNK         0.0720 
     88 H88       -48.8408  -29.1487    6.4053 H         1 UNK         0.0720 
     89 H89       -50.8399  -29.7142    8.7941 H         1 UNK         0.0814 
     90 H90       -52.3753  -30.3535    8.2768 H         1 UNK         0.0814 
     91 H91       -52.0971  -26.8978    7.1532 H         1 UNK         0.1469 
     92 H92       -54.3788  -25.3196   10.4019 H         1 UNK         0.1381 
     93 H93       -52.9496  -29.3525   10.5758 H         1 UNK         0.1206 
     94 H94       -53.8832  -28.3192   12.5593 H         1 UNK         0.0813 
     95 H95       -54.1249  -26.5973   12.5914 H         1 UNK         0.0813 
     96 H96       -57.0087  -29.3967   10.4939 H         1 UNK         0.0638 
     97 H97       -55.3628  -29.7690   10.9106 H         1 UNK         0.0638 
     98 H98       -57.7837  -30.0490   12.7565 H         1 UNK         0.0568 
     99 H99       -56.5855  -32.8317   13.5254 H         1 UNK         0.3450 
    100 H100      -57.1742  -33.8214   12.2125 H         1 UNK         0.3450 
    101 H101      -56.4286  -30.1322   14.4930 H         1 UNK         0.2987 
    102 H102      -54.4745  -31.4153   15.7323 H         1 UNK         0.0766 
    103 H103      -52.3082  -31.9330   14.6709 H         1 UNK         0.0798 
    104 H104      -52.0569  -30.8648   16.0381 H         1 UNK         0.0798 
    105 H105      -51.9921  -30.2282   14.3907 H         1 UNK         0.0798 
    106 H106      -53.4579  -28.7084   15.7449 H         1 UNK         0.3198 
    107 H107      -56.3145  -27.1039   16.8687 H         1 UNK         0.0843 
    108 H108      -56.0164  -28.4314   18.9564 H         1 UNK         0.0831 
    109 H109      -55.2740  -26.8483   19.1127 H         1 UNK         0.0831 
    110 H110      -54.2693  -28.2706   18.8348 H         1 UNK         0.0831 
    111 H111      -53.4001  -26.7124   17.1308 H         1 UNK         0.3133 
    112 H112      -53.2312  -24.6703   14.2206 H         1 UNK         0.0566 
    113 H113      -52.2525  -23.0792   15.8341 H         1 UNK         0.0814 
    114 H114      -52.9440  -23.9736   17.1880 H         1 UNK         0.0814 
    115 H115      -53.9946  -23.1632   16.0356 H         1 UNK         0.0814 
    116 H116      -51.3653  -25.7512   14.3743 H         1 UNK         0.3091 
    117 H117      -49.3586  -27.1186   16.9972 H         1 UNK         0.0702 
    118 H118      -48.8942  -28.5610   15.0023 H         1 UNK         0.0785 
    119 H119      -50.3843  -28.0049   14.2462 H         1 UNK         0.0785 
    120 H120      -50.4396  -28.9201   15.7488 H         1 UNK         0.0785 
    121 H121      -49.3323  -25.5150   14.4626 H         1 UNK         0.2998 
    122 H122      -46.5713  -23.6655   15.6592 H         1 UNK         0.0697 
    123 H123      -46.4525  -25.6757   13.3495 H         1 UNK         0.0825 
    124 H124      -45.3055  -25.5599   14.6742 H         1 UNK         0.0825 
    125 H125      -45.4443  -24.2429   13.5211 H         1 UNK         0.0825 
    126 H126      -47.8493  -23.5973   13.1271 H         1 UNK         0.3029 
    127 H127      -50.3939  -21.2442   14.1107 H         1 UNK         0.0897 
    128 H128      -47.7711  -20.9620   12.5430 H         1 UNK         0.0792 
    129 H129      -48.2665  -19.9641   13.9049 H         1 UNK         0.0792 
    130 H130      -49.1771  -19.9079   12.4042 H         1 UNK         0.0792 
    131 H131      -49.2917  -22.9237   11.8816 H         1 UNK         0.3086 
    132 H132      -52.4800  -24.2504   11.2349 H         1 UNK         0.0583 
    133 H133      -52.8208  -22.3937    9.7667 H         1 UNK         0.1020 
    134 H134      -51.1258  -22.0385    9.6406 H         1 UNK         0.1020 
    135 H135      -54.0950  -24.0074    8.3880 H         1 UNK         0.0694 
    136 H136      -53.5234  -24.7959    6.9391 H         1 UNK         0.0694 
    137 H137      -50.0841  -24.7127    9.8876 H         1 UNK         0.2989 
    138 H138      -48.2997  -26.6061   12.2309 H         1 UNK         0.1055 
    139 H139      -49.8834  -27.7356    9.8723 H         1 UNK         0.0806 
    140 H140      -48.4773  -28.4876   10.6284 H         1 UNK         0.0806 
    141 H141      -49.9801  -28.3253   11.5236 H         1 UNK         0.0806 
    142 H142      -47.7923  -26.3688    9.5013 H         1 UNK         0.3061 
    143 H143      -47.1953  -23.6977    8.5431 H         1 UNK         0.0734 
    144 H144      -44.7969  -23.5460   10.4403 H         1 UNK         0.0832 
    145 H145      -44.8180  -22.8958    8.8000 H         1 UNK         0.0832 
    146 H146      -45.9008  -22.2497   10.0222 H         1 UNK         0.0832 
    147 H147      -46.4181  -25.5271    7.6270 H         1 UNK         0.3156 
    148 H148      -43.5917  -27.3933    7.8760 H         1 UNK         0.0589 
    149 H149      -44.7894  -29.5728    8.0704 H         1 UNK         0.0808 
    150 H150      -44.6032  -28.8311    9.6485 H         1 UNK         0.0808 
    151 H151      -46.1616  -28.7724    8.8387 H         1 UNK         0.0808 
    152 H152      -46.0839  -27.9366    6.5259 H         1 UNK         0.3098 
    153 H153      -46.0360  -25.3565    4.2280 H         1 UNK         0.0720 
    154 H154      -45.0755  -28.1654    3.4575 H         1 UNK         0.0791 
    155 H155      -44.2230  -26.6697    3.1010 H         1 UNK         0.0791 
    156 H156      -45.7876  -26.9733    2.3684 H         1 UNK         0.0791 
    157 H157      -47.5057  -27.6925    3.9817 H         1 UNK         0.3028 
@<TRIPOS>BOND
     1    1    2 1    
     2    1   82 1    
     3    1   83 1    
     4    1   84 1    
     5    2    3 2    
     6    2    4 am   BACKBONE|DICT|INTERRES
     7    4    5 1    
     8    4   85 1    
     9    5    6 1    
    10    5   80 1    
    11    5   86 1    
    12    6    7 1    
    13    6   87 1    
    14    6   88 1    
    15    7    8 1    
    16    8    9 1    
    17    8   89 1    
    18    8   90 1    
    19    9   10 ar   
    20    9   14 ar   
    21   10   11 ar   
    22   10   91 1    
    23   11   12 ar   
    24   11   58 1    
    25   12   13 ar   
    26   12   92 1    
    27   13   14 ar   
    28   13   15 1    
    29   14   93 1    
    30   15   16 1    
    31   15   94 1    
    32   15   95 1    
    33   16   17 1    
    34   17   18 1    
    35   17   96 1    
    36   17   97 1    
    37   18   19 1    
    38   18   22 1    
    39   18   98 1    
    40   19   20 am   BACKBONE|DICT|INTERRES
    41   19   21 2    
    42   20   99 1    
    43   20  100 1    
    44   22   23 am   BACKBONE|DICT|INTERRES
    45   22  101 1    
    46   23   24 2    
    47   23   25 1    
    48   25   26 1    
    49   25   27 1    
    50   25  102 1    
    51   26  103 1    
    52   26  104 1    
    53   26  105 1    
    54   27   28 am   BACKBONE|DICT|INTERRES
    55   27  106 1    
    56   28   29 2    
    57   28   30 1    
    58   30   31 1    
    59   30   32 1    
    60   30  107 1    
    61   31  108 1    
    62   31  109 1    
    63   31  110 1    
    64   32   33 am   BACKBONE|DICT|INTERRES
    65   32  111 1    
    66   33   34 2    
    67   33   35 1    
    68   35   36 1    
    69   35   37 1    
    70   35  112 1    
    71   36  113 1    
    72   36  114 1    
    73   36  115 1    
    74   37   38 am   BACKBONE|DICT|INTERRES
    75   37  116 1    
    76   38   39 2    
    77   38   40 1    
    78   40   41 1    
    79   40   42 1    
    80   40  117 1    
    81   41  118 1    
    82   41  119 1    
    83   41  120 1    
    84   42   43 am   BACKBONE|DICT|INTERRES
    85   42  121 1    
    86   43   44 2    
    87   43   45 1    
    88   45   46 1    
    89   45   47 1    
    90   45  122 1    
    91   46  123 1    
    92   46  124 1    
    93   46  125 1    
    94   47   48 am   BACKBONE|DICT|INTERRES
    95   47  126 1    
    96   48   49 2    
    97   48   50 1    
    98   50   51 1    
    99   50   52 1    
   100   50  127 1    
   101   51  128 1    
   102   51  129 1    
   103   51  130 1    
   104   52   53 am   BACKBONE|DICT|INTERRES
   105   52  131 1    
   106   53   54 2    
   107   53   55 1    
   108   55   56 1    
   109   55   59 1    
   110   55  132 1    
   111   56   57 1    
   112   56  133 1    
   113   56  134 1    
   114   57   58 1    
   115   58  135 1    
   116   58  136 1    
   117   59   60 am   BACKBONE|DICT|INTERRES
   118   59  137 1    
   119   60   61 2    
   120   60   62 1    
   121   62   63 1    
   122   62   64 1    
   123   62  138 1    
   124   63  139 1    
   125   63  140 1    
   126   63  141 1    
   127   64   65 am   BACKBONE|DICT|INTERRES
   128   64  142 1    
   129   65   66 2    
   130   65   67 1    
   131   67   68 1    
   132   67   69 1    
   133   67  143 1    
   134   68  144 1    
   135   68  145 1    
   136   68  146 1    
   137   69   70 am   BACKBONE|DICT|INTERRES
   138   69  147 1    
   139   70   71 2    
   140   70   72 1    
   141   72   73 1    
   142   72   74 1    
   143   72  148 1    
   144   73  149 1    
   145   73  150 1    
   146   73  151 1    
   147   74   75 am   BACKBONE|DICT|INTERRES
   148   74  152 1    
   149   75   76 2    
   150   75   77 1    
   151   77   78 1    
   152   77   79 1    
   153   77  153 1    
   154   78  154 1    
   155   78  155 1    
   156   78  156 1    
   157   79   80 am   BACKBONE|DICT|INTERRES
   158   79  157 1    
   159   80   81 2    
@<TRIPOS>SUBSTRUCTURE
     1 UNK         1 GROUP             0       ****    0 ROOT    
