@<TRIPOS>MOLECULE
3R207
157   159    1
SMALL
USER_CHARGES


@<TRIPOS>ATOM
      1 CA        -44.0770  -29.1954    7.2739 C.3       0 UNK        -0.1975 
      2 C         -44.9934  -29.2589    6.0610 C.2       0 UNK         0.4852 
      3 O         -44.5641  -28.9384    4.9524 O.2       0 UNK        -0.5216 
      4 N         -46.2522  -29.6712    6.2641 N.am      1 UNK        -0.4461 
      5 CA        -47.2902  -29.7793    5.2289 C.3       1 UNK         0.0864 
      6 C6        -48.4724  -30.6712    5.6914 C.3       14 UNK        -0.0898 
      7 S7        -49.1864  -30.1638    7.2938 S.3       14 UNK        -0.2598 
      8 C8        -50.9720  -30.2519    6.9689 C.3       14 UNK         0.0286 
      9 C9        -51.7293  -29.3789    7.9553 C.ar      14 UNK        -0.0844 
     10 C10       -52.0070  -28.0512    7.6257 C.ar      14 UNK        -0.0881 
     11 C11       -52.6762  -27.2195    8.5261 C.ar      14 UNK        -0.0643 
     12 C12       -53.0704  -27.7244    9.7672 C.ar      14 UNK        -0.0930 
     13 C13       -52.8157  -29.0583   10.1031 C.ar      14 UNK        -0.0827 
     14 C14       -52.1417  -29.8816    9.1937 C.ar      14 UNK        -0.1249 
     15 C15       -53.2654  -29.6084   11.4494 C.3       14 UNK         0.0141 
     16 S16       -54.9355  -30.3292   11.3584 S.3       14 UNK        -0.2313 
     17 C17       -55.9632  -28.8292   11.1674 C.3       14 UNK        -0.0915 
     18 CA        -57.3373  -28.9012   11.8812 C.3       13 UNK         0.0968 
     19 C         -58.3481  -29.8269   11.1428 C.2       13 UNK         0.5732 
     20 N         -58.8950  -30.8584   11.7761 N.am      13 UNK        -0.7310 
     21 O         -58.6591  -29.5916    9.9774 O.2       13 UNK        -0.5035 
     22 N         -57.1832  -29.1769   13.3175 N.am      13 UNK        -0.4233 
     23 C         -58.0121  -28.7466   14.2744 C.2       13 UNK         0.4989 
     24 O         -58.9767  -28.0086   14.0674 O.2       13 UNK        -0.4996 
     25 CA        -57.7409  -29.2213   15.7126 C.3       12 UNK         0.0216 
     26 CB        -56.8959  -30.5143   15.8105 C.3       12 UNK        -0.1964 
     27 N         -57.1779  -28.1456   16.5358 N.am      12 UNK        -0.4276 
     28 C         -55.9855  -27.5487   16.3941 C.2       12 UNK         0.5020 
     29 O         -55.1596  -27.8482   15.5272 O.2       12 UNK        -0.5489 
     30 CA        -55.6635  -26.4556   17.4296 C.3       11 UNK         0.0294 
     31 CB        -55.5662  -27.0508   18.8465 C.3       11 UNK        -0.2019 
     32 N         -54.3923  -25.8026   17.1273 N.am      11 UNK        -0.4493 
     33 C         -54.2161  -24.7348   16.3452 C.2       11 UNK         0.4932 
     34 O         -55.1395  -24.1034   15.8297 O.2       11 UNK        -0.5029 
     35 CA        -52.7619  -24.2824   16.1045 C.3       10 UNK         0.0280 
     36 CB        -52.1752  -23.5953   17.3528 C.3       10 UNK        -0.1976 
     37 N         -51.8633  -25.3318   15.6012 N.am      10 UNK        -0.4242 
     38 C         -51.4825  -26.4777   16.1884 C.2       10 UNK         0.5072 
     39 O         -51.8361  -26.8354   17.3137 O.2       10 UNK        -0.5224 
     40 CA        -50.5365  -27.3791   15.3806 C.3       9 UNK         0.0343 
     41 CB        -51.2610  -27.9967   14.1729 C.3       9 UNK        -0.2003 
     42 N         -49.3391  -26.6663   14.9347 N.am      9 UNK        -0.4272 
     43 C         -48.3710  -26.2231   15.7507 C.2       9 UNK         0.4988 
     44 O         -48.3498  -26.4233   16.9659 O.2       9 UNK        -0.5108 
     45 CA        -47.2283  -25.4189   15.1077 C.3       8 UNK         0.0248 
     46 CB        -46.1855  -26.3613   14.4863 C.3       8 UNK        -0.2001 
     47 N         -47.7008  -24.4601   14.1053 N.am      8 UNK        -0.4140 
     48 C         -48.4548  -23.3864   14.3871 C.2       8 UNK         0.5028 
     49 O         -48.7741  -23.0521   15.5285 O.2       8 UNK        -0.5428 
     50 CA        -48.9502  -22.5441   13.2000 C.3       7 UNK         0.0264 
     51 CB        -47.8737  -21.5394   12.7593 C.3       7 UNK        -0.1988 
     52 N         -49.3644  -23.3491   12.0501 N.am      7 UNK        -0.4454 
     53 C         -50.3889  -24.2164   12.0429 C.2       7 UNK         0.5027 
     54 O         -51.1241  -24.4279   13.0081 O.2       7 UNK        -0.5083 
     55 CA        -50.5975  -25.0091   10.7372 C.3       6 UNK         0.0844 
     56 C56       -51.2970  -24.1022    9.6904 C.3       14 UNK        -0.0967 
     57 S57       -51.4454  -24.8095    8.0189 S.3       14 UNK        -0.2604 
     58 C58       -52.9751  -25.7818    8.1377 C.3       14 UNK         0.0134 
     59 N         -49.3377  -25.6098   10.2791 N.am      6 UNK        -0.4116 
     60 C         -48.6048  -26.4742   11.0016 C.2       5 UNK         0.5034 
     61 O         -48.9473  -26.9207   12.0956 O.2       5 UNK        -0.5045 
     62 CA        -47.2222  -26.8557   10.4572 C.3       5 UNK         0.0224 
     63 CB        -47.3155  -28.0560    9.5065 C.3       5 UNK        -0.1978 
     64 N         -46.5770  -25.7271    9.7874 N.am      5 UNK        -0.4737 
     65 C         -46.0346  -24.6844   10.4308 C.2       4 UNK         0.5027 
     66 O         -45.9766  -24.5958   11.6566 O.2       4 UNK        -0.5211 
     67 CA        -45.5068  -23.5285    9.5626 C.3       4 UNK         0.0297 
     68 CB        -44.0656  -23.8109    9.1105 C.3       4 UNK        -0.1993 
     69 N         -46.3460  -23.2636    8.3904 N.am      4 UNK        -0.4486 
     70 C         -47.6174  -22.8445    8.4519 C.2       3 UNK         0.4961 
     71 O         -48.1979  -22.5819    9.5057 O.2       3 UNK        -0.5105 
     72 CA        -48.3873  -22.7340    7.1225 C.3       3 UNK         0.0299 
     73 CB        -48.1911  -21.3363    6.5144 C.3       3 UNK        -0.1972 
     74 N         -48.0744  -23.7533    6.1079 N.am      3 UNK        -0.4305 
     75 C         -48.0176  -25.0822    6.2882 C.2       2 UNK         0.5006 
     76 O         -48.1237  -25.6310    7.3863 O.2       2 UNK        -0.5106 
     77 CA        -47.7786  -25.9401    5.0359 C.3       2 UNK         0.0296 
     78 CB        -46.5667  -25.4479    4.2160 C.3       2 UNK        -0.2002 
     79 N         -47.5643  -27.3309    5.4342 N.am      2 UNK        -0.4032 
     80 C         -47.7514  -28.4124    4.6661 C.2       1 UNK         0.5000 
     81 O         -48.2297  -28.3639    3.5306 O.2       1 UNK        -0.5238 
     82 H82       -44.5002  -29.7181    8.1314 H         1 UNK         0.0889 
     83 H83       -43.9000  -28.1580    7.5568 H         1 UNK         0.0889 
     84 H84       -43.1161  -29.6548    7.0435 H         1 UNK         0.0889 
     85 H85       -46.5523  -29.9340    7.1926 H         1 UNK         0.3028 
     86 H86       -46.8279  -30.2933    4.3830 H         1 UNK         0.0864 
     87 H87       -49.2464  -30.7090    4.9228 H         1 UNK         0.0720 
     88 H88       -48.1251  -31.6996    5.8021 H         1 UNK         0.0720 
     89 H89       -51.1850  -29.9243    5.9502 H         1 UNK         0.0814 
     90 H90       -51.3056  -31.2883    7.0389 H         1 UNK         0.0814 
     91 H91       -51.6876  -27.6550    6.6713 H         1 UNK         0.1469 
     92 H92       -53.5820  -27.0798   10.4677 H         1 UNK         0.1381 
     93 H93       -51.9326  -30.9108    9.4517 H         1 UNK         0.1206 
     94 H94       -52.5670  -30.3752   11.7879 H         1 UNK         0.0813 
     95 H95       -53.2464  -28.8254   12.2082 H         1 UNK         0.0813 
     96 H96       -56.0820  -28.6190   10.1028 H         1 UNK         0.0638 
     97 H97       -55.4169  -27.9789   11.5763 H         1 UNK         0.0638 
     98 H98       -57.7707  -27.9033   11.7913 H         1 UNK         0.0568 
     99 H99       -59.5534  -31.4438   11.2869 H         1 UNK         0.3450 
    100 H100      -58.6485  -31.0630   12.7302 H         1 UNK         0.3450 
    101 H101      -56.3983  -29.7579   13.5726 H         1 UNK         0.2987 
    102 H102      -58.7188  -29.4490   16.1399 H         1 UNK         0.0766 
    103 H103      -56.8310  -30.8575   16.8431 H         1 UNK         0.0798 
    104 H104      -55.8762  -30.3824   15.4478 H         1 UNK         0.0798 
    105 H105      -57.3480  -31.3231   15.2351 H         1 UNK         0.0798 
    106 H106      -57.7910  -27.8011   17.2620 H         1 UNK         0.3198 
    107 H107      -56.4663  -25.7153   17.4092 H         1 UNK         0.0843 
    108 H108      -54.8057  -27.8311   18.9030 H         1 UNK         0.0831 
    109 H109      -56.5114  -27.4928   19.1632 H         1 UNK         0.0831 
    110 H110      -55.3122  -26.2852   19.5800 H         1 UNK         0.0831 
    111 H111      -53.5477  -26.2943   17.4155 H         1 UNK         0.3133 
    112 H112      -52.7960  -23.5338   15.3113 H         1 UNK         0.0566 
    113 H113      -51.1825  -23.1927   17.1497 H         1 UNK         0.0814 
    114 H114      -52.8045  -22.7632   17.6709 H         1 UNK         0.0814 
    115 H115      -52.0911  -24.2798   18.1972 H         1 UNK         0.0814 
    116 H116      -51.5137  -25.1512   14.6609 H         1 UNK         0.3091 
    117 H117      -50.2181  -28.1953   16.0325 H         1 UNK         0.0702 
    118 H118      -52.1683  -28.5151   14.4871 H         1 UNK         0.0785 
    119 H119      -51.5513  -27.2408   13.4421 H         1 UNK         0.0785 
    120 H120      -50.6294  -28.7241   13.6626 H         1 UNK         0.0785 
    121 H121      -49.2437  -26.5200   13.9327 H         1 UNK         0.2998 
    122 H122      -46.7366  -24.8509   15.9003 H         1 UNK         0.0697 
    123 H123      -46.6130  -26.9639   13.6853 H         1 UNK         0.0825 
    124 H124      -45.7885  -27.0492   15.2340 H         1 UNK         0.0825 
    125 H125      -45.3415  -25.8063   14.0765 H         1 UNK         0.0825 
    126 H126      -47.4102  -24.6178   13.1460 H         1 UNK         0.3029 
    127 H127      -49.8235  -21.9827   13.5391 H         1 UNK         0.0897 
    128 H128      -48.2443  -20.8811   11.9732 H         1 UNK         0.0792 
    129 H129      -46.9834  -22.0423   12.3799 H         1 UNK         0.0792 
    130 H130      -47.5635  -20.9078   13.5928 H         1 UNK         0.0792 
    131 H131      -48.8422  -23.2092   11.1873 H         1 UNK         0.3086 
    132 H132      -51.2707  -25.8373   10.9647 H         1 UNK         0.0583 
    133 H133      -52.2912  -23.8217   10.0432 H         1 UNK         0.1020 
    134 H134      -50.7586  -23.1600    9.5769 H         1 UNK         0.1020 
    135 H135      -53.6722  -25.3162    8.8357 H         1 UNK         0.0694 
    136 H136      -53.4686  -25.7752    7.1648 H         1 UNK         0.0694 
    137 H137      -49.0044  -25.3345    9.3626 H         1 UNK         0.2989 
    138 H138      -46.5997  -27.1504   11.3044 H         1 UNK         0.1055 
    139 H139      -47.7230  -28.9269   10.0219 H         1 UNK         0.0806 
    140 H140      -46.3351  -28.3335    9.1228 H         1 UNK         0.0806 
    141 H141      -47.9694  -27.8509    8.6600 H         1 UNK         0.0806 
    142 H142      -46.7075  -25.6667    8.7835 H         1 UNK         0.3061 
    143 H143      -45.5020  -22.6281   10.1807 H         1 UNK         0.0734 
    144 H144      -43.6471  -22.9652    8.5646 H         1 UNK         0.0832 
    145 H145      -43.4176  -23.9922    9.9693 H         1 UNK         0.0832 
    146 H146      -44.0067  -24.6901    8.4675 H         1 UNK         0.0832 
    147 H147      -45.9485  -23.4568    7.4829 H         1 UNK         0.3156 
    148 H148      -49.4454  -22.8414    7.3599 H         1 UNK         0.0589 
    149 H149      -47.1603  -21.1744    6.1966 H         1 UNK         0.0808 
    150 H150      -48.8382  -21.1832    5.6505 H         1 UNK         0.0808 
    151 H151      -48.4348  -20.5572    7.2385 H         1 UNK         0.0808 
    152 H152      -47.9616  -23.4073    5.1661 H         1 UNK         0.3098 
    153 H153      -48.6817  -25.8810    4.4251 H         1 UNK         0.0720 
    154 H154      -46.3877  -26.0868    3.3510 H         1 UNK         0.0791 
    155 H155      -45.6544  -25.4415    4.8141 H         1 UNK         0.0791 
    156 H156      -46.7186  -24.4387    3.8326 H         1 UNK         0.0791 
    157 H157      -47.2627  -27.4539    6.3911 H         1 UNK         0.3028 
@<TRIPOS>BOND
     1    1    2 1    
     2    1   82 1    
     3    1   83 1    
     4    1   84 1    
     5    2    3 2    
     6    2    4 am   BACKBONE|DICT|INTERRES
     7    4    5 1    
     8    4   85 1    
     9    5    6 1    
    10    5   80 1    
    11    5   86 1    
    12    6    7 1    
    13    6   87 1    
    14    6   88 1    
    15    7    8 1    
    16    8    9 1    
    17    8   89 1    
    18    8   90 1    
    19    9   10 ar   
    20    9   14 ar   
    21   10   11 ar   
    22   10   91 1    
    23   11   12 ar   
    24   11   58 1    
    25   12   13 ar   
    26   12   92 1    
    27   13   14 ar   
    28   13   15 1    
    29   14   93 1    
    30   15   16 1    
    31   15   94 1    
    32   15   95 1    
    33   16   17 1    
    34   17   18 1    
    35   17   96 1    
    36   17   97 1    
    37   18   19 1    
    38   18   22 1    
    39   18   98 1    
    40   19   20 am   BACKBONE|DICT|INTERRES
    41   19   21 2    
    42   20   99 1    
    43   20  100 1    
    44   22   23 am   BACKBONE|DICT|INTERRES
    45   22  101 1    
    46   23   24 2    
    47   23   25 1    
    48   25   26 1    
    49   25   27 1    
    50   25  102 1    
    51   26  103 1    
    52   26  104 1    
    53   26  105 1    
    54   27   28 am   BACKBONE|DICT|INTERRES
    55   27  106 1    
    56   28   29 2    
    57   28   30 1    
    58   30   31 1    
    59   30   32 1    
    60   30  107 1    
    61   31  108 1    
    62   31  109 1    
    63   31  110 1    
    64   32   33 am   BACKBONE|DICT|INTERRES
    65   32  111 1    
    66   33   34 2    
    67   33   35 1    
    68   35   36 1    
    69   35   37 1    
    70   35  112 1    
    71   36  113 1    
    72   36  114 1    
    73   36  115 1    
    74   37   38 am   BACKBONE|DICT|INTERRES
    75   37  116 1    
    76   38   39 2    
    77   38   40 1    
    78   40   41 1    
    79   40   42 1    
    80   40  117 1    
    81   41  118 1    
    82   41  119 1    
    83   41  120 1    
    84   42   43 am   BACKBONE|DICT|INTERRES
    85   42  121 1    
    86   43   44 2    
    87   43   45 1    
    88   45   46 1    
    89   45   47 1    
    90   45  122 1    
    91   46  123 1    
    92   46  124 1    
    93   46  125 1    
    94   47   48 am   BACKBONE|DICT|INTERRES
    95   47  126 1    
    96   48   49 2    
    97   48   50 1    
    98   50   51 1    
    99   50   52 1    
   100   50  127 1    
   101   51  128 1    
   102   51  129 1    
   103   51  130 1    
   104   52   53 am   BACKBONE|DICT|INTERRES
   105   52  131 1    
   106   53   54 2    
   107   53   55 1    
   108   55   56 1    
   109   55   59 1    
   110   55  132 1    
   111   56   57 1    
   112   56  133 1    
   113   56  134 1    
   114   57   58 1    
   115   58  135 1    
   116   58  136 1    
   117   59   60 am   BACKBONE|DICT|INTERRES
   118   59  137 1    
   119   60   61 2    
   120   60   62 1    
   121   62   63 1    
   122   62   64 1    
   123   62  138 1    
   124   63  139 1    
   125   63  140 1    
   126   63  141 1    
   127   64   65 am   BACKBONE|DICT|INTERRES
   128   64  142 1    
   129   65   66 2    
   130   65   67 1    
   131   67   68 1    
   132   67   69 1    
   133   67  143 1    
   134   68  144 1    
   135   68  145 1    
   136   68  146 1    
   137   69   70 am   BACKBONE|DICT|INTERRES
   138   69  147 1    
   139   70   71 2    
   140   70   72 1    
   141   72   73 1    
   142   72   74 1    
   143   72  148 1    
   144   73  149 1    
   145   73  150 1    
   146   73  151 1    
   147   74   75 am   BACKBONE|DICT|INTERRES
   148   74  152 1    
   149   75   76 2    
   150   75   77 1    
   151   77   78 1    
   152   77   79 1    
   153   77  153 1    
   154   78  154 1    
   155   78  155 1    
   156   78  156 1    
   157   79   80 am   BACKBONE|DICT|INTERRES
   158   79  157 1    
   159   80   81 2    
@<TRIPOS>SUBSTRUCTURE
     1 UNK         1 GROUP             0       ****    0 ROOT    
