@<TRIPOS>MOLECULE
3R207
157   159    1
SMALL
USER_CHARGES


@<TRIPOS>ATOM
      1 CA        -46.8808  -32.4030    3.7818 C.3       0 UNK        -0.1975 
      2 C         -47.9061  -31.3075    4.0345 C.2       0 UNK         0.4852 
      3 O         -48.2200  -30.5437    3.1210 O.2       0 UNK        -0.5216 
      4 N         -48.4313  -31.2306    5.2657 N.am      1 UNK        -0.4461 
      5 CA        -49.4085  -30.2281    5.7097 C.3       1 UNK         0.0864 
      6 C6        -50.0293  -30.6381    7.0687 C.3       14 UNK        -0.0898 
      7 S7        -51.5797  -29.7610    7.4530 S.3       14 UNK        -0.2598 
      8 C8        -50.9785  -28.6531    8.7590 C.3       14 UNK         0.0286 
      9 C9        -52.0379  -27.6558    9.1878 C.ar      14 UNK        -0.0844 
     10 C10       -52.2680  -26.5156    8.4167 C.ar      14 UNK        -0.0881 
     11 C11       -53.1872  -25.5516    8.8374 C.ar      14 UNK        -0.0643 
     12 C12       -53.8967  -25.7473   10.0251 C.ar      14 UNK        -0.0930 
     13 C13       -53.6801  -26.8899   10.8037 C.ar      14 UNK        -0.0827 
     14 C14       -52.7478  -27.8404   10.3766 C.ar      14 UNK        -0.1249 
     15 C15       -54.3763  -27.0849   12.1456 C.3       14 UNK         0.0141 
     16 S16       -56.0950  -26.4770   12.2143 S.3       14 UNK        -0.2313 
     17 C17       -57.0182  -27.5852   11.0855 C.3       14 UNK        -0.0915 
     18 CA        -56.9204  -29.1299   11.3200 C.3       13 UNK         0.0968 
     19 C         -55.8240  -29.8269   10.4697 C.2       13 UNK         0.5732 
     20 N         -55.8709  -29.6927    9.1518 N.am      13 UNK        -0.7310 
     21 O         -54.9402  -30.5048   10.9924 O.2       13 UNK        -0.5035 
     22 N         -56.8000  -29.5254   12.7264 N.am      13 UNK        -0.4233 
     23 C         -57.6750  -29.3140   13.7134 C.2       13 UNK         0.4989 
     24 O         -58.7732  -28.7800   13.5517 O.2       13 UNK        -0.4996 
     25 CA        -57.2690  -29.7855   15.1270 C.3       12 UNK         0.0216 
     26 CB        -58.1898  -30.9223   15.6036 C.3       12 UNK        -0.1964 
     27 N         -55.8720  -30.2302   15.2343 N.am      12 UNK        -0.4276 
     28 C         -54.8035  -29.4216   15.2328 C.2       12 UNK         0.5020 
     29 O         -54.8699  -28.1910   15.1922 O.2       12 UNK        -0.5489 
     30 CA        -53.4324  -30.1093   15.2438 C.3       11 UNK         0.0294 
     31 CB        -53.1971  -30.9371   13.9643 C.3       11 UNK        -0.2019 
     32 N         -52.3909  -29.0931   15.3583 N.am      11 UNK        -0.4493 
     33 C         -51.1680  -29.2864   15.8610 C.2       11 UNK         0.4932 
     34 O         -50.7865  -30.3702   16.3058 O.2       11 UNK        -0.5029 
     35 CA        -50.1843  -28.0997   15.8600 C.3       10 UNK         0.0280 
     36 CB        -48.9289  -28.4370   15.0379 C.3       10 UNK        -0.1976 
     37 N         -50.7327  -26.8314   15.3694 N.am      10 UNK        -0.4242 
     38 C         -51.5529  -26.0246   16.0553 C.2       10 UNK         0.5072 
     39 O         -52.0743  -26.3261   17.1305 O.2       10 UNK        -0.5224 
     40 CA        -51.7561  -24.6233   15.4459 C.3       9 UNK         0.0343 
     41 CB        -52.6810  -23.7165   16.2840 C.3       9 UNK        -0.2003 
     42 N         -50.4638  -23.9719   15.1891 N.am      9 UNK        -0.4272 
     43 C         -49.4932  -23.7065   16.0802 C.2       9 UNK         0.4988 
     44 O         -49.6149  -23.8458   17.2978 O.2       9 UNK        -0.5108 
     45 CA        -48.1304  -23.2463   15.5306 C.3       8 UNK         0.0248 
     46 CB        -47.1377  -24.4206   15.5443 C.3       8 UNK        -0.2001 
     47 N         -48.1932  -22.6902   14.1772 N.am      8 UNK        -0.4140 
     48 C         -48.6949  -21.4837   13.8799 C.2       8 UNK         0.5028 
     49 O         -49.1161  -20.6888   14.7214 O.2       8 UNK        -0.5428 
     50 CA        -48.7584  -21.1070   12.3906 C.3       7 UNK         0.0264 
     51 CB        -47.3924  -20.6036   11.8971 C.3       7 UNK        -0.1988 
     52 N         -49.2113  -22.2045   11.5326 N.am      7 UNK        -0.4454 
     53 C         -50.4138  -22.7961   11.6013 C.2       7 UNK         0.5027 
     54 O         -51.2835  -22.4937   12.4187 O.2       7 UNK        -0.5083 
     55 CA        -50.6653  -23.9494   10.6111 C.3       6 UNK         0.0844 
     56 C56       -50.8951  -23.4271    9.1654 C.3       14 UNK        -0.0967 
     57 S57       -52.6060  -22.8454    8.9005 S.3       14 UNK        -0.2604 
     58 C58       -53.3626  -24.2663    8.0444 C.3       14 UNK         0.0134 
     59 N         -49.5917  -24.9435   10.6816 N.am      6 UNK        -0.4116 
     60 C         -49.3194  -25.7124   11.7472 C.2       5 UNK         0.5034 
     61 O         -50.0093  -25.7613   12.7667 O.2       5 UNK        -0.5045 
     62 CA        -48.0191  -26.5308   11.6942 C.3       5 UNK         0.0224 
     63 CB        -48.2703  -27.9456   11.1506 C.3       5 UNK        -0.1978 
     64 N         -46.9735  -25.8741   10.9048 N.am      5 UNK        -0.4737 
     65 C         -46.3249  -24.7667   11.2943 C.2       4 UNK         0.5027 
     66 O         -46.5136  -24.2110   12.3753 O.2       4 UNK        -0.5211 
     67 CA        -45.3483  -24.1414   10.2838 C.3       4 UNK         0.0297 
     68 CB        -43.9867  -24.8515   10.3367 C.3       4 UNK        -0.1993 
     69 N         -45.8638  -24.1634    8.9121 N.am      4 UNK        -0.4486 
     70 C         -46.9780  -23.5354    8.5096 C.2       3 UNK         0.4961 
     71 O         -47.6493  -22.8092    9.2410 O.2       3 UNK        -0.5105 
     72 CA        -47.4563  -23.7882    7.0687 C.3       3 UNK         0.0299 
     73 CB        -46.9974  -22.6478    6.1470 C.3       3 UNK        -0.1972 
     74 N         -47.0260  -25.0740    6.5078 N.am      3 UNK        -0.4305 
     75 C         -47.3650  -26.2800    6.9858 C.2       2 UNK         0.5006 
     76 O         -48.0559  -26.4514    7.9924 O.2       2 UNK        -0.5106 
     77 CA        -46.7433  -27.4841    6.2574 C.3       2 UNK         0.0296 
     78 CB        -45.3794  -27.8241    6.8819 C.3       2 UNK        -0.2002 
     79 N         -47.5763  -28.6897    6.2652 N.am      2 UNK        -0.4032 
     80 C         -48.8011  -28.8047    5.7284 C.2       1 UNK         0.5000 
     81 O         -49.4159  -27.8718    5.2072 O.2       1 UNK        -0.5238 
     82 H82       -45.9316  -31.9644    3.4750 H         1 UNK         0.0889 
     83 H83       -47.2250  -33.0621    2.9852 H         1 UNK         0.0889 
     84 H84       -46.7027  -33.0094    4.6697 H         1 UNK         0.0889 
     85 H85       -48.1405  -31.9010    5.9635 H         1 UNK         0.3028 
     86 H86       -50.2090  -30.2228    4.9662 H         1 UNK         0.0864 
     87 H87       -50.2800  -31.7000    7.0497 H         1 UNK         0.0720 
     88 H88       -49.3107  -30.5224    7.8825 H         1 UNK         0.0720 
     89 H89       -50.1060  -28.1102    8.3950 H         1 UNK         0.0814 
     90 H90       -50.6451  -29.2471    9.6112 H         1 UNK         0.0814 
     91 H91       -51.7035  -26.3665    7.5059 H         1 UNK         0.1469 
     92 H92       -54.5864  -24.9848   10.3591 H         1 UNK         0.1381 
     93 H93       -52.5599  -28.7179   10.9803 H         1 UNK         0.1206 
     94 H94       -54.3573  -28.1336   12.4384 H         1 UNK         0.0813 
     95 H95       -53.7999  -26.5534   12.9037 H         1 UNK         0.0813 
     96 H96       -58.0654  -27.2969   11.1858 H         1 UNK         0.0638 
     97 H97       -56.7562  -27.3149   10.0616 H         1 UNK         0.0638 
     98 H98       -57.8542  -29.5735   10.9703 H         1 UNK         0.0568 
     99 H99       -56.5896  -29.1471    8.7041 H         1 UNK         0.3450 
    100 H100      -55.1561  -30.1341    8.5956 H         1 UNK         0.3450 
    101 H101      -55.9383  -30.0116   12.9312 H         1 UNK         0.2987 
    102 H102      -57.4059  -28.9333   15.7963 H         1 UNK         0.0766 
    103 H103      -57.9625  -31.2150   16.6289 H         1 UNK         0.0798 
    104 H104      -58.1002  -31.8072   14.9721 H         1 UNK         0.0798 
    105 H105      -59.2361  -30.6136   15.5837 H         1 UNK         0.0798 
    106 H106      -55.7232  -31.2287   15.2799 H         1 UNK         0.3198 
    107 H107      -53.3981  -30.7637   16.1177 H         1 UNK         0.0843 
    108 H108      -53.1944  -30.3076   13.0741 H         1 UNK         0.0831 
    109 H109      -53.9648  -31.6987   13.8253 H         1 UNK         0.0831 
    110 H110      -52.2397  -31.4572   14.0013 H         1 UNK         0.0831 
    111 H111      -52.6884  -28.1584   15.1077 H         1 UNK         0.3133 
    112 H112      -49.8736  -27.9488   16.8959 H         1 UNK         0.0566 
    113 H113      -48.1946  -27.6331   15.0829 H         1 UNK         0.0814 
    114 H114      -48.4411  -29.3372   15.4141 H         1 UNK         0.0814 
    115 H115      -49.1746  -28.6142   13.9914 H         1 UNK         0.0814 
    116 H116      -50.3904  -26.5005   14.4692 H         1 UNK         0.3091 
    117 H117      -52.2278  -24.7693   14.4726 H         1 UNK         0.0702 
    118 H118      -53.6690  -24.1654   16.3922 H         1 UNK         0.0785 
    119 H119      -52.8153  -22.7445   15.8092 H         1 UNK         0.0785 
    120 H120      -52.2890  -23.5488   17.2875 H         1 UNK         0.0785 
    121 H121      -50.2511  -23.8256   14.2108 H         1 UNK         0.2998 
    122 H122      -47.7508  -22.4726   16.2014 H         1 UNK         0.0697 
    123 H123      -47.4567  -25.2225   14.8778 H         1 UNK         0.0825 
    124 H124      -47.0433  -24.8450   16.5448 H         1 UNK         0.0825 
    125 H125      -46.1428  -24.1029   15.2319 H         1 UNK         0.0825 
    126 H126      -47.7870  -23.2526   13.4323 H         1 UNK         0.3029 
    127 H127      -49.4796  -20.2934   12.2884 H         1 UNK         0.0897 
    128 H128      -47.4470  -20.2578   10.8645 H         1 UNK         0.0792 
    129 H129      -46.6324  -21.3844   11.9468 H         1 UNK         0.0792 
    130 H130      -47.0421  -19.7663   12.5021 H         1 UNK         0.0792 
    131 H131      -48.5700  -22.4984   10.7971 H         1 UNK         0.3086 
    132 H132      -51.5690  -24.4642   10.9420 H         1 UNK         0.0583 
    133 H133      -50.2155  -22.6110    8.9150 H         1 UNK         0.1020 
    134 H134      -50.6766  -24.2089    8.4376 H         1 UNK         0.1020 
    135 H135      -54.4256  -24.0707    7.8971 H         1 UNK         0.0694 
    136 H136      -52.9251  -24.3602    7.0492 H         1 UNK         0.0694 
    137 H137      -48.9596  -24.9887    9.8951 H         1 UNK         0.2989 
    138 H138      -47.6612  -26.6239   12.7218 H         1 UNK         0.1055 
    139 H139      -49.1258  -28.4138   11.6386 H         1 UNK         0.0806 
    140 H140      -47.4073  -28.5899   11.3188 H         1 UNK         0.0806 
    141 H141      -48.4728  -27.9374   10.0816 H         1 UNK         0.0806 
    142 H142      -46.8126  -26.2339    9.9732 H         1 UNK         0.3061 
    143 H143      -45.2017  -23.0972   10.5684 H         1 UNK         0.0734 
    144 H144      -43.2588  -24.3641    9.6879 H         1 UNK         0.0832 
    145 H145      -43.5785  -24.8334   11.3484 H         1 UNK         0.0832 
    146 H146      -44.0607  -25.8970   10.0345 H         1 UNK         0.0832 
    147 H147      -45.3650  -24.7285    8.2414 H         1 UNK         0.3156 
    148 H148      -48.5478  -23.7903    7.0867 H         1 UNK         0.0589 
    149 H149      -45.9107  -22.6080    6.0618 H         1 UNK         0.0808 
    150 H150      -47.4109  -22.7558    5.1441 H         1 UNK         0.0808 
    151 H151      -47.3295  -21.6808    6.5284 H         1 UNK         0.0808 
    152 H152      -46.4374  -25.0290    5.6878 H         1 UNK         0.3098 
    153 H153      -46.5891  -27.2100    5.2116 H         1 UNK         0.0720 
    154 H154      -44.8856  -28.6329    6.3426 H         1 UNK         0.0791 
    155 H155      -45.4787  -28.1279    7.9251 H         1 UNK         0.0791 
    156 H156      -44.7064  -26.9661    6.8549 H         1 UNK         0.0791 
    157 H157      -47.1604  -29.5147    6.6701 H         1 UNK         0.3028 
@<TRIPOS>BOND
     1    1    2 1    
     2    1   82 1    
     3    1   83 1    
     4    1   84 1    
     5    2    3 2    
     6    2    4 am   BACKBONE|DICT|INTERRES
     7    4    5 1    
     8    4   85 1    
     9    5    6 1    
    10    5   80 1    
    11    5   86 1    
    12    6    7 1    
    13    6   87 1    
    14    6   88 1    
    15    7    8 1    
    16    8    9 1    
    17    8   89 1    
    18    8   90 1    
    19    9   10 ar   
    20    9   14 ar   
    21   10   11 ar   
    22   10   91 1    
    23   11   12 ar   
    24   11   58 1    
    25   12   13 ar   
    26   12   92 1    
    27   13   14 ar   
    28   13   15 1    
    29   14   93 1    
    30   15   16 1    
    31   15   94 1    
    32   15   95 1    
    33   16   17 1    
    34   17   18 1    
    35   17   96 1    
    36   17   97 1    
    37   18   19 1    
    38   18   22 1    
    39   18   98 1    
    40   19   20 am   BACKBONE|DICT|INTERRES
    41   19   21 2    
    42   20   99 1    
    43   20  100 1    
    44   22   23 am   BACKBONE|DICT|INTERRES
    45   22  101 1    
    46   23   24 2    
    47   23   25 1    
    48   25   26 1    
    49   25   27 1    
    50   25  102 1    
    51   26  103 1    
    52   26  104 1    
    53   26  105 1    
    54   27   28 am   BACKBONE|DICT|INTERRES
    55   27  106 1    
    56   28   29 2    
    57   28   30 1    
    58   30   31 1    
    59   30   32 1    
    60   30  107 1    
    61   31  108 1    
    62   31  109 1    
    63   31  110 1    
    64   32   33 am   BACKBONE|DICT|INTERRES
    65   32  111 1    
    66   33   34 2    
    67   33   35 1    
    68   35   36 1    
    69   35   37 1    
    70   35  112 1    
    71   36  113 1    
    72   36  114 1    
    73   36  115 1    
    74   37   38 am   BACKBONE|DICT|INTERRES
    75   37  116 1    
    76   38   39 2    
    77   38   40 1    
    78   40   41 1    
    79   40   42 1    
    80   40  117 1    
    81   41  118 1    
    82   41  119 1    
    83   41  120 1    
    84   42   43 am   BACKBONE|DICT|INTERRES
    85   42  121 1    
    86   43   44 2    
    87   43   45 1    
    88   45   46 1    
    89   45   47 1    
    90   45  122 1    
    91   46  123 1    
    92   46  124 1    
    93   46  125 1    
    94   47   48 am   BACKBONE|DICT|INTERRES
    95   47  126 1    
    96   48   49 2    
    97   48   50 1    
    98   50   51 1    
    99   50   52 1    
   100   50  127 1    
   101   51  128 1    
   102   51  129 1    
   103   51  130 1    
   104   52   53 am   BACKBONE|DICT|INTERRES
   105   52  131 1    
   106   53   54 2    
   107   53   55 1    
   108   55   56 1    
   109   55   59 1    
   110   55  132 1    
   111   56   57 1    
   112   56  133 1    
   113   56  134 1    
   114   57   58 1    
   115   58  135 1    
   116   58  136 1    
   117   59   60 am   BACKBONE|DICT|INTERRES
   118   59  137 1    
   119   60   61 2    
   120   60   62 1    
   121   62   63 1    
   122   62   64 1    
   123   62  138 1    
   124   63  139 1    
   125   63  140 1    
   126   63  141 1    
   127   64   65 am   BACKBONE|DICT|INTERRES
   128   64  142 1    
   129   65   66 2    
   130   65   67 1    
   131   67   68 1    
   132   67   69 1    
   133   67  143 1    
   134   68  144 1    
   135   68  145 1    
   136   68  146 1    
   137   69   70 am   BACKBONE|DICT|INTERRES
   138   69  147 1    
   139   70   71 2    
   140   70   72 1    
   141   72   73 1    
   142   72   74 1    
   143   72  148 1    
   144   73  149 1    
   145   73  150 1    
   146   73  151 1    
   147   74   75 am   BACKBONE|DICT|INTERRES
   148   74  152 1    
   149   75   76 2    
   150   75   77 1    
   151   77   78 1    
   152   77   79 1    
   153   77  153 1    
   154   78  154 1    
   155   78  155 1    
   156   78  156 1    
   157   79   80 am   BACKBONE|DICT|INTERRES
   158   79  157 1    
   159   80   81 2    
@<TRIPOS>SUBSTRUCTURE
     1 UNK         1 GROUP             0       ****    0 ROOT    
